REMARK  Name = 
REMARK  8 active torsions:
REMARK  status: ('A' for Active; 'I' for Inactive)
REMARK    1  A    between atoms: C_1  and  O_2
REMARK    2  A    between atoms: O_2  and  C_3
REMARK    3  A    between atoms: C_8  and  C_9
REMARK    4  A    between atoms: N_11  and  C_12
REMARK    5  A    between atoms: C_12  and  C_13
REMARK    6  A    between atoms: C_16  and  C_17
REMARK    7  A    between atoms: C_17  and  N_18
REMARK    8  A    between atoms: C_19  and  C_21
REMARK                            x       y       z     vdW  Elec       q    Type
REMARK                         _______ _______ _______ _____ _____    ______ ____
ROOT
ATOM      1  C   UNL     1       3.120   0.180  -4.402  0.00  0.00    +0.000 A 
ATOM      2  C   UNL     1       3.278  -1.207  -4.523  0.00  0.00    +0.000 A 
ATOM      3  C   UNL     1       2.349  -1.973  -5.237  0.00  0.00    +0.000 A 
ATOM      4  C   UNL     1       1.253  -1.363  -5.862  0.00  0.00    +0.000 A 
ATOM      5  C   UNL     1       1.087   0.022  -5.726  0.00  0.00    +0.000 A 
ATOM      6  C   UNL     1       2.016   0.787  -5.014  0.00  0.00    +0.000 A 
ENDROOT
BRANCH   1   7
ATOM      7  C   UNL     1       4.137   1.010  -3.662  0.00  0.00    +0.000 C 
BRANCH   7  10
ATOM      8  C   UNL     1       6.263   2.181  -4.072  0.00  0.00    +0.000 C 
ATOM      9  O   UNL     1       6.328   2.562  -2.905  0.00  0.00    +0.000 OA
ATOM     10  N   UNL     1       5.204   1.437  -4.532  0.00  0.00    +0.000 N 
ATOM     11  H   UNL     1       5.199   1.146  -5.505  0.00  0.00    +0.000 HD
BRANCH   8  17
ATOM     12  C   UNL     1       7.401   2.109  -6.393  0.00  0.00    +0.000 A 
ATOM     13  C   UNL     1       8.547   2.383  -7.157  0.00  0.00    +0.000 A 
ATOM     14  C   UNL     1       9.638   3.059  -6.604  0.00  0.00    +0.000 A 
ATOM     15  C   UNL     1       9.596   3.481  -5.282  0.00  0.00    +0.000 A 
ATOM     16  C   UNL     1       8.474   3.199  -4.503  0.00  0.00    +0.000 A 
ATOM     17  C   UNL     1       7.375   2.495  -5.035  0.00  0.00    +0.000 A 
BRANCH  12  19
ATOM     18  C   UNL     1       6.274   1.194  -8.299  0.00  0.00    +0.000 C 
ATOM     19  O   UNL     1       6.295   1.477  -6.904  0.00  0.00    +0.000 OA
ENDBRANCH  12  19
ENDBRANCH   8  17
ENDBRANCH   7  10
ENDBRANCH   1   7
BRANCH   4  20
ATOM     20  C   UNL     1       0.251  -2.173  -6.645  0.00  0.00    +0.000 C 
BRANCH  20  21
ATOM     21  N   UNL     1      -0.831  -2.627  -5.809  0.00  0.00    +0.000 N 
ATOM     22  C   UNL     1      -1.826  -3.431  -6.305  0.00  0.00    +0.000 C 
ATOM     23  O   UNL     1      -1.820  -3.836  -7.465  0.00  0.00    +0.000 OA
ATOM     24  H   UNL     1      -0.991  -2.114  -4.948  0.00  0.00    +0.000 HD
BRANCH  22  25
ATOM     25  C   UNL     1      -2.871  -3.838  -5.357  0.00  0.00    +0.000 A 
ATOM     26  C   UNL     1      -3.592  -5.004  -5.582  0.00  0.00    +0.000 A 
ATOM     27  S   UNL     1      -4.723  -5.357  -4.355  0.00  0.00    +0.000 S 
ATOM     28  C   UNL     1      -4.329  -3.935  -3.508  0.00  0.00    +0.000 A 
ATOM     29  N   UNL     1      -4.966  -3.609  -2.351  0.00  0.00    +0.000 NA
ATOM     30  C   UNL     1      -4.587  -2.492  -1.830  0.00  0.00    +0.000 A 
ATOM     31  N   UNL     1      -3.624  -1.669  -2.357  0.00  0.00    +0.000 N 
ATOM     32  C   UNL     1      -2.937  -1.967  -3.510  0.00  0.00    +0.000 A 
ATOM     33  O   UNL     1      -2.059  -1.227  -3.935  0.00  0.00    +0.000 OA
ATOM     34  C   UNL     1      -3.333  -3.211  -4.141  0.00  0.00    +0.000 A 
ATOM     35  H   UNL     1      -3.368  -0.808  -1.895  0.00  0.00    +0.000 HD
ENDBRANCH  22  25
ENDBRANCH  20  21
ENDBRANCH   4  20
TORSDOF 7
