REMARK  Name = 
REMARK  7 active torsions:
REMARK  status: ('A' for Active; 'I' for Inactive)
REMARK    1  A    between atoms: C_1  and  C_2
REMARK    2  A    between atoms: C_2  and  N_3
REMARK    3  A    between atoms: C_2  and  C_16
REMARK    4  A    between atoms: C_4  and  C_6
REMARK    5  A    between atoms: C_19  and  O_20
REMARK    6  A    between atoms: O_20  and  C_21
REMARK    7  A    between atoms: C_21  and  C_22
REMARK                            x       y       z     vdW  Elec       q    Type
REMARK                         _______ _______ _______ _____ _____    ______ ____
ROOT
ATOM      1  C   UNL     1      12.059  -1.047   8.459  0.00  0.00    +0.000 C 
ATOM      2  C   UNL     1      11.211  -2.022   9.292  0.00  0.00    +0.000 C 
ENDROOT
BRANCH   2   3
ATOM      3  C   UNL     1       9.970  -2.508   8.560  0.00  0.00    +0.000 A 
ATOM      4  C   UNL     1       8.811  -2.849   9.275  0.00  0.00    +0.000 A 
ATOM      5  C   UNL     1       7.643  -3.239   8.605  0.00  0.00    +0.000 A 
ATOM      6  C   UNL     1       7.621  -3.306   7.211  0.00  0.00    +0.000 A 
ATOM      7  C   UNL     1       8.786  -3.041   6.499  0.00  0.00    +0.000 A 
ATOM      8  C   UNL     1       9.948  -2.655   7.165  0.00  0.00    +0.000 A 
BRANCH   6   9
ATOM      9  O   UNL     1       6.540  -3.659   6.452  0.00  0.00    +0.000 OA
BRANCH   9  10
ATOM     10  C   UNL     1       5.267  -3.280   6.989  0.00  0.00    +0.000 C 
BRANCH  10  11
ATOM     11  C   UNL     1       4.160  -3.709   6.003  0.00  0.00    +0.000 C 
ATOM     12  C   UNL     1       2.768  -3.361   6.507  0.00  0.00    +0.000 C 
ATOM     13  C   UNL     1       2.605  -1.905   6.110  0.00  0.00    +0.000 C 
ATOM     14  C   UNL     1       3.461  -1.752   4.859  0.00  0.00    +0.000 C 
ATOM     15  N   UNL     1       4.216  -2.997   4.715  0.00  0.00    +0.000 NA
ATOM     16  H   UNL     1       5.188  -2.813   4.460  0.00  0.00    +0.000 HD
ENDBRANCH  10  11
ENDBRANCH   9  10
ENDBRANCH   6   9
ENDBRANCH   2   3
BRANCH   2  17
ATOM     17  N   UNL     1      11.994  -3.166   9.708  0.00  0.00    +0.000 N 
ATOM     18  C   UNL     1      12.862  -3.130  10.774  0.00  0.00    +0.000 C 
ATOM     19  O   UNL     1      12.953  -2.162  11.522  0.00  0.00    +0.000 OA
ATOM     20  H   UNL     1      12.029  -3.948   9.066  0.00  0.00    +0.000 HD
BRANCH  18  21
ATOM     21  C   UNL     1      13.627  -4.359  10.995  0.00  0.00    +0.000 A 
ATOM     22  C   UNL     1      13.989  -4.727  12.282  0.00  0.00    +0.000 A 
ATOM     23  S   UNL     1      14.889  -6.175  12.346  0.00  0.00    +0.000 S 
ATOM     24  C   UNL     1      14.860  -6.335  10.652  0.00  0.00    +0.000 A 
ATOM     25  N   UNL     1      15.504  -7.361  10.034  0.00  0.00    +0.000 NA
ATOM     26  C   UNL     1      15.430  -7.337   8.745  0.00  0.00    +0.000 A 
ATOM     27  N   UNL     1      14.753  -6.391   8.019  0.00  0.00    +0.000 N 
ATOM     28  C   UNL     1      14.034  -5.377   8.603  0.00  0.00    +0.000 A 
ATOM     29  O   UNL     1      13.339  -4.616   7.929  0.00  0.00    +0.000 OA
ATOM     30  C   UNL     1      14.133  -5.324  10.049  0.00  0.00    +0.000 A 
ATOM     31  H   UNL     1      14.706  -6.453   7.011  0.00  0.00    +0.000 HD
ENDBRANCH  18  21
ENDBRANCH   2  17
TORSDOF 6
