REMARK  Name = 
REMARK  8 active torsions:
REMARK  status: ('A' for Active; 'I' for Inactive)
REMARK    1  A    between atoms: C_1  and  C_2
REMARK    2  A    between atoms: C_2  and  O_3
REMARK    3  A    between atoms: O_3  and  C_4
REMARK    4  A    between atoms: C_9  and  C_10
REMARK    5  A    between atoms: C_10  and  C_11
REMARK    6  A    between atoms: C_14  and  C_15
REMARK    7  A    between atoms: C_15  and  N_16
REMARK    8  A    between atoms: C_17  and  C_19
REMARK                            x       y       z     vdW  Elec       q    Type
REMARK                         _______ _______ _______ _____ _____    ______ ____
ROOT
ATOM      1  C   UNL     1       5.608  -2.708  -0.893  0.00  0.00    +0.000 A 
ATOM      2  C   UNL     1       6.594  -2.651   0.102  0.00  0.00    +0.000 A 
ATOM      3  C   UNL     1       7.586  -3.633   0.186  0.00  0.00    +0.000 A 
ATOM      4  C   UNL     1       7.625  -4.687  -0.734  0.00  0.00    +0.000 A 
ATOM      5  C   UNL     1       6.612  -4.774  -1.699  0.00  0.00    +0.000 A 
ATOM      6  C   UNL     1       5.618  -3.790  -1.785  0.00  0.00    +0.000 A 
ENDROOT
BRANCH   1   7
ATOM      7  C   UNL     1       4.572  -1.599  -0.990  0.00  0.00    +0.000 C 
BRANCH   7  13
ATOM      8  C   UNL     1       4.380   0.861  -1.594  0.00  0.00    +0.000 A 
ATOM      9  N   UNL     1       4.700   1.978  -2.292  0.00  0.00    +0.000 NA
ATOM     10  C   UNL     1       5.576   1.848  -3.305  0.00  0.00    +0.000 A 
ATOM     11  C   UNL     1       6.138   0.644  -3.673  0.00  0.00    +0.000 A 
ATOM     12  C   UNL     1       5.816  -0.488  -2.928  0.00  0.00    +0.000 A 
ATOM     13  C   UNL     1       4.950  -0.395  -1.827  0.00  0.00    +0.000 A 
BRANCH   8  14
ATOM     14  O   UNL     1       3.427   0.986  -0.596  0.00  0.00    +0.000 OA
BRANCH  14  16
ATOM     15  C   UNL     1       1.483   2.161   0.229  0.00  0.00    +0.000 C 
ATOM     16  C   UNL     1       2.519   2.061  -0.876  0.00  0.00    +0.000 C 
ENDBRANCH  14  16
ENDBRANCH   8  14
ENDBRANCH   7  13
ENDBRANCH   1   7
BRANCH   4  17
ATOM     17  C   UNL     1       8.721  -5.721  -0.684  0.00  0.00    +0.000 C 
BRANCH  17  18
ATOM     18  N   UNL     1       8.358  -6.833   0.153  0.00  0.00    +0.000 N 
ATOM     19  C   UNL     1       9.224  -7.870   0.382  0.00  0.00    +0.000 C 
ATOM     20  O   UNL     1      10.358  -7.894  -0.088  0.00  0.00    +0.000 OA
ATOM     21  H   UNL     1       7.367  -6.971   0.324  0.00  0.00    +0.000 HD
BRANCH  19  22
ATOM     22  C   UNL     1       8.741  -8.930   1.276  0.00  0.00    +0.000 A 
ATOM     23  C   UNL     1       9.646  -9.697   1.995  0.00  0.00    +0.000 A 
ATOM     24  S   UNL     1       8.908 -10.855   3.006  0.00  0.00    +0.000 S 
ATOM     25  C   UNL     1       7.352 -10.403   2.481  0.00  0.00    +0.000 A 
ATOM     26  N   UNL     1       6.243 -11.039   2.944  0.00  0.00    +0.000 NA
ATOM     27  C   UNL     1       5.133 -10.608   2.446  0.00  0.00    +0.000 A 
ATOM     28  N   UNL     1       5.030  -9.594   1.529  0.00  0.00    +0.000 N 
ATOM     29  C   UNL     1       6.117  -8.902   1.062  0.00  0.00    +0.000 A 
ATOM     30  O   UNL     1       5.989  -7.954   0.286  0.00  0.00    +0.000 OA
ATOM     31  C   UNL     1       7.395  -9.363   1.571  0.00  0.00    +0.000 A 
ATOM     32  H   UNL     1       4.128  -9.285   1.195  0.00  0.00    +0.000 HD
ENDBRANCH  19  22
ENDBRANCH  17  18
ENDBRANCH   4  17
TORSDOF 7
