REMARK  Name = 
REMARK  8 active torsions:
REMARK  status: ('A' for Active; 'I' for Inactive)
REMARK    1  A    between atoms: C_1  and  C_2
REMARK    2  A    between atoms: C_2  and  N_3
REMARK    3  A    between atoms: C_2  and  C_25
REMARK    4  A    between atoms: N_3  and  C_4
REMARK    5  A    between atoms: C_4  and  C_5
REMARK    6  A    between atoms: C_8  and  C_9
REMARK    7  A    between atoms: C_9  and  N_10
REMARK    8  A    between atoms: C_11  and  C_13
REMARK                            x       y       z     vdW  Elec       q    Type
REMARK                         _______ _______ _______ _____ _____    ______ ____
ROOT
ATOM      1  C   UNL     1       2.979   2.373  -2.989  0.00  0.00    +0.000 A 
ATOM      2  C   UNL     1       3.863   2.271  -4.054  0.00  0.00    +0.000 A 
ATOM      3  C   UNL     1       4.231   3.425  -4.733  0.00  0.00    +0.000 A 
ATOM      4  C   UNL     1       3.686   4.631  -4.330  0.00  0.00    +0.000 A 
ATOM      5  N   UNL     1       2.846   4.708  -3.272  0.00  0.00    +0.000 NA
ATOM      6  N   UNL     1       2.492   3.573  -2.594  0.00  0.00    +0.000 NA
ENDROOT
BRANCH   1   7
ATOM      7  C   UNL     1       2.511   1.148  -2.236  0.00  0.00    +0.000 C 
BRANCH   7   8
ATOM      8  N   UNL     1       1.067   0.951  -2.379  0.00  0.00    +0.000 NA
ATOM      9  H   UNL     1       0.604   1.800  -2.042  0.00  0.00    +0.000 HD
BRANCH   8  11
ATOM     10  C   UNL     1       1.101  -1.530  -2.141  0.00  0.00    +0.000 C 
ATOM     11  C   UNL     1       0.539  -0.196  -1.630  0.00  0.00    +0.000 C 
BRANCH  11  12
ATOM     12  C   UNL     1      -0.982  -0.203  -1.733  0.00  0.00    +0.000 A 
ATOM     13  C   UNL     1      -1.781  -0.127  -0.582  0.00  0.00    +0.000 A 
ATOM     14  C   UNL     1      -3.175  -0.106  -0.686  0.00  0.00    +0.000 A 
ATOM     15  C   UNL     1      -3.786  -0.163  -1.938  0.00  0.00    +0.000 A 
ATOM     16  C   UNL     1      -3.007  -0.246  -3.088  0.00  0.00    +0.000 A 
ATOM     17  C   UNL     1      -1.616  -0.266  -2.986  0.00  0.00    +0.000 A 
ENDBRANCH  11  12
ENDBRANCH   8  11
ENDBRANCH   7   8
ENDBRANCH   1   7
BRANCH   4  18
ATOM     18  C   UNL     1       4.010   5.912  -5.050  0.00  0.00    +0.000 C 
BRANCH  18  19
ATOM     19  N   UNL     1       5.153   6.588  -4.483  0.00  0.00    +0.000 N 
ATOM     20  C   UNL     1       6.416   6.465  -4.995  0.00  0.00    +0.000 C 
ATOM     21  O   UNL     1       6.657   5.767  -5.977  0.00  0.00    +0.000 OA
ATOM     22  H   UNL     1       5.023   6.968  -3.550  0.00  0.00    +0.000 HD
BRANCH  20  23
ATOM     23  C   UNL     1       7.460   7.274  -4.352  0.00  0.00    +0.000 A 
ATOM     24  C   UNL     1       8.598   7.624  -5.065  0.00  0.00    +0.000 A 
ATOM     25  S   UNL     1       9.683   8.602  -4.184  0.00  0.00    +0.000 S 
ATOM     26  C   UNL     1       8.692   8.552  -2.801  0.00  0.00    +0.000 A 
ATOM     27  N   UNL     1       9.061   9.177  -1.651  0.00  0.00    +0.000 NA
ATOM     28  C   UNL     1       8.231   9.030  -0.673  0.00  0.00    +0.000 A 
ATOM     29  N   UNL     1       7.059   8.322  -0.744  0.00  0.00    +0.000 N 
ATOM     30  C   UNL     1       6.620   7.720  -1.899  0.00  0.00    +0.000 A 
ATOM     31  O   UNL     1       5.526   7.174  -1.957  0.00  0.00    +0.000 OA
ATOM     32  C   UNL     1       7.537   7.823  -3.019  0.00  0.00    +0.000 A 
ATOM     33  H   UNL     1       6.440   8.261   0.050  0.00  0.00    +0.000 HD
ENDBRANCH  20  23
ENDBRANCH  18  19
ENDBRANCH   4  18
TORSDOF 7
