REMARK  Name = 
REMARK  6 active torsions:
REMARK  status: ('A' for Active; 'I' for Inactive)
REMARK    1  A    between atoms: C_1  and  C_2
REMARK    2  A    between atoms: C_4  and  C_5
REMARK    3  A    between atoms: C_10  and  O_11
REMARK    4  A    between atoms: O_11  and  C_12
REMARK    5  A    between atoms: C_12  and  C_13
REMARK    6  A    between atoms: C_17  and  C_18
REMARK                            x       y       z     vdW  Elec       q    Type
REMARK                         _______ _______ _______ _____ _____    ______ ____
ROOT
ATOM      1  C   UNL     1       2.346  -2.562   0.044  0.00  0.00    +0.000 C 
ENDROOT
BRANCH   1   2
ATOM      2  C   UNL     1       2.772  -4.015   0.046  0.00  0.00    +0.000 A 
ATOM      3  C   UNL     1       1.868  -5.078   0.041  0.00  0.00    +0.000 A 
ATOM      4  C   UNL     1       2.335  -6.391   0.044  0.00  0.00    +0.000 A 
ATOM      5  C   UNL     1       3.709  -6.652   0.044  0.00  0.00    +0.000 A 
ATOM      6  C   UNL     1       4.652  -5.611   0.035  0.00  0.00    +0.000 A 
ATOM      7  C   UNL     1       4.153  -4.296   0.050  0.00  0.00    +0.000 A 
BRANCH   6   8
ATOM      8  C   UNL     1       6.108  -5.868   0.008  0.00  0.00    +0.000 A 
ATOM      9  C   UNL     1       6.661  -6.978  -0.638  0.00  0.00    +0.000 A 
ATOM     10  C   UNL     1       8.040  -7.170  -0.619  0.00  0.00    +0.000 A 
ATOM     11  C   UNL     1       8.838  -6.245   0.038  0.00  0.00    +0.000 A 
ATOM     12  C   UNL     1       8.221  -5.165   0.639  0.00  0.00    +0.000 A 
ATOM     13  F   UNL     1       8.989  -4.262   1.266  0.00  0.00    +0.000 F 
ATOM     14  N   UNL     1       6.888  -4.952   0.637  0.00  0.00    +0.000 NA
ENDBRANCH   6   8
ENDBRANCH   1   2
BRANCH   1  15
ATOM     15  O   UNL     1       0.936  -2.392   0.006  0.00  0.00    +0.000 OA
BRANCH  15  22
ATOM     16  C   UNL     1       2.519   0.371   0.018  0.00  0.00    +0.000 C 
ATOM     17  C   UNL     1       1.036   0.123  -0.003  0.00  0.00    +0.000 A 
ATOM     18  C   UNL     1       0.226   1.283  -0.021  0.00  0.00    +0.000 A 
ATOM     19  C   UNL     1      -1.174   1.229  -0.048  0.00  0.00    +0.000 A 
ATOM     20  C   UNL     1      -1.790  -0.019  -0.056  0.00  0.00    +0.000 A 
ATOM     21  C   UNL     1      -1.005  -1.178  -0.035  0.00  0.00    +0.000 A 
ATOM     22  C   UNL     1       0.402  -1.131  -0.008  0.00  0.00    +0.000 A 
BRANCH  19  23
ATOM     23  C   UNL     1      -1.913   2.525  -0.068  0.00  0.00    +0.000 C 
ATOM     24  N   UNL     1      -3.278   2.505  -0.088  0.00  0.00    +0.000 N 
ATOM     25  O   UNL     1      -1.323   3.599  -0.067  0.00  0.00    +0.000 OA
ATOM     26  H   UNL     1      -3.852   1.676  -0.084  0.00  0.00    +0.000 HD
ATOM     27  H   UNL     1      -3.742   3.404  -0.099  0.00  0.00    +0.000 HD
ENDBRANCH  19  23
ENDBRANCH  15  22
ENDBRANCH   1  15
TORSDOF 5
