REMARK  Name = 
REMARK  8 active torsions:
REMARK  status: ('A' for Active; 'I' for Inactive)
REMARK    1  A    between atoms: C_2  and  C_4
REMARK    2  A    between atoms: N_8  and  C_9
REMARK    3  A    between atoms: C_9  and  C_10
REMARK    4  A    between atoms: C_10  and  C_11
REMARK    5  A    between atoms: C_10  and  C_13
REMARK    6  A    between atoms: C_11  and  O_12
REMARK    7  A    between atoms: C_17  and  O_18
REMARK    8  A    between atoms: O_18  and  C_19
REMARK                            x       y       z     vdW  Elec       q    Type
REMARK                         _______ _______ _______ _____ _____    ______ ____
ROOT
ATOM      1  C   UNL     1       5.786   7.007  -1.212  0.00  0.00    +0.000 C 
ENDROOT
BRANCH   1   2
ATOM      2  C   UNL     1       5.465   8.302  -0.466  0.00  0.00    +0.000 A 
ATOM      3  C   UNL     1       4.225   8.943  -0.602  0.00  0.00    +0.000 A 
ATOM      4  C   UNL     1       3.925  10.086   0.140  0.00  0.00    +0.000 A 
ATOM      5  C   UNL     1       4.860  10.617   1.028  0.00  0.00    +0.000 A 
ATOM      6  C   UNL     1       6.104  10.007   1.164  0.00  0.00    +0.000 A 
ATOM      7  C   UNL     1       6.400   8.854   0.427  0.00  0.00    +0.000 A 
BRANCH   6   8
ATOM      8  O   UNL     1       7.088  10.426   2.025  0.00  0.00    +0.000 OA
BRANCH   8   9
ATOM      9  C   UNL     1       7.089  11.795   2.482  0.00  0.00    +0.000 C 
ATOM     10  C   UNL     1       7.428  12.879   1.441  0.00  0.00    +0.000 C 
ATOM     11  C   UNL     1       8.440  13.485   2.426  0.00  0.00    +0.000 C 
ATOM     12  F   UNL     1       9.655  13.771   1.908  0.00  0.00    +0.000 F 
ATOM     13  F   UNL     1       8.020  14.601   3.066  0.00  0.00    +0.000 F 
ATOM     14  C   UNL     1       8.363  12.193   3.253  0.00  0.00    +0.000 C 
ENDBRANCH   8   9
ENDBRANCH   6   8
ENDBRANCH   1   2
BRANCH   1  15
ATOM     15  C   UNL     1       4.842   5.886  -0.729  0.00  0.00    +0.000 C 
BRANCH  15  20
ATOM     16  C   UNL     1       3.041   1.148  -0.459  0.00  0.00    +0.000 A 
ATOM     17  C   UNL     1       3.015   2.163   0.493  0.00  0.00    +0.000 A 
ATOM     18  C   UNL     1       3.745   3.329   0.262  0.00  0.00    +0.000 A 
ATOM     19  C   UNL     1       4.468   3.470  -0.919  0.00  0.00    +0.000 A 
ATOM     20  N   UNL     1       5.257   4.572  -1.203  0.00  0.00    +0.000 N 
ATOM     21  N   UNL     1       4.496   2.496  -1.851  0.00  0.00    +0.000 NA
ATOM     22  C   UNL     1       3.804   1.352  -1.597  0.00  0.00    +0.000 A 
ATOM     23  H   UNL     1       5.551   4.480  -2.173  0.00  0.00    +0.000 HD
BRANCH  16  25
ATOM     24  N   UNL     1       1.208  -0.120   0.507  0.00  0.00    +0.000 N 
ATOM     25  C   UNL     1       2.327  -0.132  -0.281  0.00  0.00    +0.000 C 
ATOM     26  O   UNL     1       2.702  -1.157  -0.837  0.00  0.00    +0.000 OA
ATOM     27  H   UNL     1       0.672  -0.978   0.544  0.00  0.00    +0.000 HD
ATOM     28  H   UNL     1       0.739   0.733   0.777  0.00  0.00    +0.000 HD
ENDBRANCH  16  25
ENDBRANCH  15  20
ENDBRANCH   1  15
BRANCH   1  29
ATOM     29  C   UNL     1       5.778   7.191  -2.743  0.00  0.00    +0.000 C 
BRANCH  29  30
ATOM     30  O   UNL     1       4.475   7.393  -3.282  0.00  0.00    +0.000 OA
ATOM     31  H   UNL     1       4.006   6.540  -3.267  0.00  0.00    +0.000 HD
ENDBRANCH  29  30
ENDBRANCH   1  29
TORSDOF 8
