REMARK  Name = 
REMARK  4 active torsions:
REMARK  status: ('A' for Active; 'I' for Inactive)
REMARK    1  A    between atoms: C_1  and  C_2
REMARK    2  A    between atoms: N_6  and  C_7
REMARK    3  A    between atoms: C_7  and  C_8
REMARK    4  A    between atoms: C_12  and  C_13
REMARK                            x       y       z     vdW  Elec       q    Type
REMARK                         _______ _______ _______ _____ _____    ______ ____
ROOT
ATOM      1  C   UNL     1       5.295  -0.979  -0.080  0.00  0.00    +0.000 A 
ATOM      2  C   UNL     1       5.816   0.316  -0.160  0.00  0.00    +0.000 A 
ATOM      3  C   UNL     1       7.188   0.525  -0.042  0.00  0.00    +0.000 A 
ATOM      4  C   UNL     1       8.052  -0.557   0.162  0.00  0.00    +0.000 A 
ATOM      5  C   UNL     1       7.568  -1.874   0.254  0.00  0.00    +0.000 A 
ATOM      6  C   UNL     1       6.180  -2.058   0.107  0.00  0.00    +0.000 A 
ENDROOT
BRANCH   5   7
ATOM      7  C   UNL     1       8.469  -3.013   0.534  0.00  0.00    +0.000 A 
ATOM      8  C   UNL     1       8.243  -4.298   0.017  0.00  0.00    +0.000 A 
ATOM      9  C   UNL     1       9.099  -5.355   0.330  0.00  0.00    +0.000 A 
ATOM     10  C   UNL     1      10.181  -5.103   1.154  0.00  0.00    +0.000 A 
ATOM     11  N   UNL     1      10.451  -3.891   1.677  0.00  0.00    +0.000 NA
ATOM     12  C   UNL     1       9.591  -2.889   1.360  0.00  0.00    +0.000 A 
ENDBRANCH   5   7
BRANCH   1  13
ATOM     13  C   UNL     1       3.804  -1.229  -0.132  0.00  0.00    +0.000 C 
BRANCH  13  19
ATOM     14  C   UNL     1      -2.185  -2.254  -1.819  0.00  0.00    +0.000 C 
ATOM     15  C   UNL     1      -0.710  -2.063  -1.758  0.00  0.00    +0.000 A 
ATOM     16  C   UNL     1       0.030  -1.461  -2.750  0.00  0.00    +0.000 A 
ATOM     17  N   UNL     1       1.364  -1.253  -2.677  0.00  0.00    +0.000 NA
ATOM     18  C   UNL     1       1.986  -1.683  -1.572  0.00  0.00    +0.000 A 
ATOM     19  N   UNL     1       3.358  -1.449  -1.492  0.00  0.00    +0.000 N 
ATOM     20  N   UNL     1       1.358  -2.296  -0.559  0.00  0.00    +0.000 NA
ATOM     21  C   UNL     1       0.027  -2.471  -0.671  0.00  0.00    +0.000 A 
ATOM     22  H   UNL     1       3.566  -0.706  -2.147  0.00  0.00    +0.000 HD
ENDBRANCH  13  19
ENDBRANCH   1  13
TORSDOF 3
