REMARK  Name = 
REMARK  8 active torsions:
REMARK  status: ('A' for Active; 'I' for Inactive)
REMARK    1  A    between atoms: C_1  and  C_2
REMARK    2  A    between atoms: C_2  and  C_3
REMARK    3  A    between atoms: C_2  and  N_4
REMARK    4  A    between atoms: C_2  and  C_5
REMARK    5  A    between atoms: C_5  and  C_6
REMARK    6  A    between atoms: C_9  and  C_10
REMARK    7  A    between atoms: C_10  and  N_11
REMARK    8  A    between atoms: C_17  and  C_18
REMARK                            x       y       z     vdW  Elec       q    Type
REMARK                         _______ _______ _______ _____ _____    ______ ____
ROOT
ATOM      1  C   UNL     1       8.821  -1.640   0.021  0.00  0.00    +0.000 C 
ENDROOT
BRANCH   1   2
ATOM      2  N   UNL     1       9.346  -3.002   0.068  0.00  0.00    +0.000 N 
ATOM      3  C   UNL     1       9.654  -3.757  -1.039  0.00  0.00    +0.000 A 
ATOM      4  C   UNL     1      10.289  -4.908  -0.615  0.00  0.00    +0.000 A 
ATOM      5  C   UNL     1      10.380  -4.838   0.794  0.00  0.00    +0.000 A 
ATOM      6  N   UNL     1      10.961  -5.714   1.646  0.00  0.00    +0.000 NA
ATOM      7  C   UNL     1      10.923  -5.347   2.951  0.00  0.00    +0.000 A 
ATOM      8  C   UNL     1      10.332  -4.192   3.458  0.00  0.00    +0.000 A 
ATOM      9  C   UNL     1       9.713  -3.314   2.566  0.00  0.00    +0.000 A 
ATOM     10  C   UNL     1       9.771  -3.654   1.208  0.00  0.00    +0.000 A 
BRANCH   8  11
ATOM     11  C   UNL     1      10.420  -3.939   4.918  0.00  0.00    +0.000 C 
ATOM     12  N   UNL     1       9.862  -2.795   5.419  0.00  0.00    +0.000 N 
ATOM     13  O   UNL     1      10.993  -4.720   5.667  0.00  0.00    +0.000 OA
ATOM     14  H   UNL     1       9.430  -2.066   4.876  0.00  0.00    +0.000 HD
ATOM     15  H   UNL     1       9.974  -2.635   6.412  0.00  0.00    +0.000 HD
ENDBRANCH   8  11
ENDBRANCH   1   2
BRANCH   1  19
ATOM     16  C   UNL     1       4.499  -1.490  -0.117  0.00  0.00    +0.000 A 
ATOM     17  C   UNL     1       5.167  -1.499   1.113  0.00  0.00    +0.000 A 
ATOM     18  C   UNL     1       6.561  -1.543   1.164  0.00  0.00    +0.000 A 
ATOM     19  C   UNL     1       7.317  -1.600  -0.016  0.00  0.00    +0.000 A 
ATOM     20  C   UNL     1       6.644  -1.608  -1.246  0.00  0.00    +0.000 A 
ATOM     21  C   UNL     1       5.251  -1.556  -1.296  0.00  0.00    +0.000 A 
BRANCH  16  22
ATOM     22  C   UNL     1       2.992  -1.350  -0.158  0.00  0.00    +0.000 C 
BRANCH  22  24
ATOM     23  C   UNL     1       0.931   0.094  -0.241  0.00  0.00    +0.000 C 
ATOM     24  C   UNL     1       2.468   0.116  -0.223  0.00  0.00    +0.000 C 
ATOM     25  C   UNL     1       2.975   0.842  -1.481  0.00  0.00    +0.000 C 
BRANCH  24  26
ATOM     26  N   UNL     1       2.876   0.886   0.966  0.00  0.00    +0.000 NA
ATOM     27  H   UNL     1       2.525   1.840   0.894  0.00  0.00    +0.000 HD
ATOM     28  H   UNL     1       3.894   0.965   0.975  0.00  0.00    +0.000 HD
ENDBRANCH  24  26
ENDBRANCH  22  24
ENDBRANCH  16  22
ENDBRANCH   1  19
TORSDOF 6
