REMARK  Name = 
REMARK  8 active torsions:
REMARK  status: ('A' for Active; 'I' for Inactive)
REMARK    1  A    between atoms: C_1  and  C_2
REMARK    2  A    between atoms: C_2  and  C_4
REMARK    3  A    between atoms: C_9  and  N_10
REMARK    4  A    between atoms: N_10  and  C_11
REMARK    5  A    between atoms: C_11  and  C_12
REMARK    6  A    between atoms: N_16  and  C_17
REMARK    7  A    between atoms: C_17  and  C_18
REMARK    8  A    between atoms: C_17  and  C_19
REMARK                            x       y       z     vdW  Elec       q    Type
REMARK                         _______ _______ _______ _____ _____    ______ ____
ROOT
ATOM      1  N   UNL     1       4.496  -1.913   0.694  0.00  0.00    +0.000 N 
ATOM      2  H   UNL     1       4.691  -2.845   1.067  0.00  0.00    +0.000 HD
ENDROOT
BRANCH   1   8
ATOM      3  C   UNL     1       5.921  -2.538  -1.231  0.00  0.00    +0.000 A 
ATOM      4  N   UNL     1       6.680  -2.189  -2.320  0.00  0.00    +0.000 NA
ATOM      5  C   UNL     1       6.678  -0.882  -2.641  0.00  0.00    +0.000 A 
ATOM      6  C   UNL     1       5.930   0.032  -1.943  0.00  0.00    +0.000 A 
ATOM      7  N   UNL     1       5.211  -0.302  -0.858  0.00  0.00    +0.000 NA
ATOM      8  C   UNL     1       5.222  -1.600  -0.455  0.00  0.00    +0.000 A 
BRANCH   3  10
ATOM      9  C   UNL     1       6.770  -4.876  -1.845  0.00  0.00    +0.000 C 
ATOM     10  C   UNL     1       5.930  -4.005  -0.936  0.00  0.00    +0.000 C 
ATOM     11  O   UNL     1       5.279  -4.486  -0.009  0.00  0.00    +0.000 OA
ENDBRANCH   3  10
ENDBRANCH   1   8
BRANCH   1  12
ATOM     12  C   UNL     1       4.254  -0.832   1.646  0.00  0.00    +0.000 C 
BRANCH  12  13
ATOM     13  C   UNL     1       4.835  -1.126   3.045  0.00  0.00    +0.000 C 
ATOM     14  C   UNL     1       4.184  -2.314   3.756  0.00  0.00    +0.000 C 
ATOM     15  C   UNL     1       2.750  -2.000   4.159  0.00  0.00    +0.000 C 
ATOM     16  C   UNL     1       2.637  -0.669   4.912  0.00  0.00    +0.000 C 
ATOM     17  N   UNL     1       3.259   0.452   4.176  0.00  0.00    +0.000 NA
ATOM     18  C   UNL     1       4.681   0.135   3.926  0.00  0.00    +0.000 C 
BRANCH  17  19
ATOM     19  C   UNL     1       3.067   1.757   4.859  0.00  0.00    +0.000 C 
ATOM     20  C   UNL     1       3.698   2.931   4.085  0.00  0.00    +0.000 C 
ATOM     21  C   UNL     1       1.576   2.108   5.032  0.00  0.00    +0.000 C 
ENDBRANCH  17  19
ENDBRANCH  12  13
ENDBRANCH   1  12
TORSDOF 5
