REMARK  Name = 
REMARK  4 active torsions:
REMARK  status: ('A' for Active; 'I' for Inactive)
REMARK    1  A    between atoms: C_2  and  C_4
REMARK    2  A    between atoms: N_8  and  C_9
REMARK    3  A    between atoms: C_9  and  C_10
REMARK    4  A    between atoms: C_15  and  C_16
REMARK                            x       y       z     vdW  Elec       q    Type
REMARK                         _______ _______ _______ _____ _____    ______ ____
ROOT
ATOM      1  C   UNL     1       5.773  -5.279   2.215  0.00  0.00    +0.000 C 
ATOM      2  C   UNL     1       5.797  -6.314   1.105  0.00  0.00    +0.000 C 
ATOM      3  C   UNL     1       4.665  -6.325   2.075  0.00  0.00    +0.000 C 
ENDROOT
BRANCH   1   8
ATOM      4  C   UNL     1       7.599  -1.111  -0.356  0.00  0.00    +0.000 A 
ATOM      5  C   UNL     1       8.265  -2.262   0.060  0.00  0.00    +0.000 A 
ATOM      6  C   UNL     1       7.565  -3.232   0.790  0.00  0.00    +0.000 A 
ATOM      7  C   UNL     1       6.218  -3.036   1.088  0.00  0.00    +0.000 A 
ATOM      8  N   UNL     1       5.458  -3.895   1.877  0.00  0.00    +0.000 N 
ATOM      9  N   UNL     1       5.559  -1.941   0.657  0.00  0.00    +0.000 NA
ATOM     10  C   UNL     1       6.252  -1.005  -0.040  0.00  0.00    +0.000 A 
ATOM     11  H   UNL     1       4.497  -3.568   1.883  0.00  0.00    +0.000 HD
BRANCH   4  13
ATOM     12  N   UNL     1       9.382  -0.232  -1.772  0.00  0.00    +0.000 N 
ATOM     13  C   UNL     1       8.236   0.022  -1.067  0.00  0.00    +0.000 C 
ATOM     14  O   UNL     1       7.755   1.146  -1.039  0.00  0.00    +0.000 OA
ATOM     15  H   UNL     1       9.742   0.541  -2.319  0.00  0.00    +0.000 HD
ATOM     16  H   UNL     1       9.685  -1.167  -2.022  0.00  0.00    +0.000 HD
ENDBRANCH   4  13
ENDBRANCH   1   8
BRANCH   1  17
ATOM     17  C   UNL     1       6.571  -5.475   3.502  0.00  0.00    +0.000 A 
ATOM     18  C   UNL     1       5.979  -5.230   4.753  0.00  0.00    +0.000 A 
ATOM     19  C   UNL     1       6.594  -5.641   5.933  0.00  0.00    +0.000 A 
ATOM     20  C   UNL     1       7.835  -6.270   5.881  0.00  0.00    +0.000 A 
ATOM     21  F   UNL     1       8.361  -6.704   7.038  0.00  0.00    +0.000 F 
ATOM     22  C   UNL     1       8.517  -6.457   4.671  0.00  0.00    +0.000 A 
ATOM     23  C   UNL     1       7.859  -6.043   3.495  0.00  0.00    +0.000 A 
BRANCH  22  24
ATOM     24  C   UNL     1       9.850  -7.091   4.592  0.00  0.00    +0.000 A 
ATOM     25  C   UNL     1      10.190  -8.199   5.377  0.00  0.00    +0.000 A 
ATOM     26  C   UNL     1      11.456  -8.761   5.249  0.00  0.00    +0.000 A 
ATOM     27  N   UNL     1      12.394  -8.307   4.392  0.00  0.00    +0.000 NA
ATOM     28  C   UNL     1      12.059  -7.241   3.642  0.00  0.00    +0.000 A 
ATOM     29  C   UNL     1      10.826  -6.611   3.706  0.00  0.00    +0.000 A 
ENDBRANCH  22  24
ENDBRANCH   1  17
TORSDOF 4
