REMARK  Name = 
REMARK  4 active torsions:
REMARK  status: ('A' for Active; 'I' for Inactive)
REMARK    1  A    between atoms: C_2  and  C_3
REMARK    2  A    between atoms: C_8  and  C_9
REMARK    3  A    between atoms: C_9  and  N_10
REMARK    4  A    between atoms: C_14  and  C_15
REMARK                            x       y       z     vdW  Elec       q    Type
REMARK                         _______ _______ _______ _____ _____    ______ ____
ROOT
ATOM      1  N   UNL     1      -0.558   3.463   0.993  0.00  0.00    +0.000 N 
ATOM      2  C   UNL     1      -1.711   4.051   0.422  0.00  0.00    +0.000 A 
ATOM      3  C   UNL     1      -2.325   5.085   1.121  0.00  0.00    +0.000 A 
ATOM      4  C   UNL     1      -3.519   5.629   0.651  0.00  0.00    +0.000 A 
ATOM      5  C   UNL     1      -4.060   5.100  -0.504  0.00  0.00    +0.000 A 
ATOM      6  N   UNL     1      -3.427   4.140  -1.215  0.00  0.00    +0.000 NA
ATOM      7  N   UNL     1      -2.232   3.641  -0.752  0.00  0.00    +0.000 NA
ATOM      8  H   UNL     1      -0.771   3.155   1.939  0.00  0.00    +0.000 HD
ENDROOT
BRANCH   5   9
ATOM      9  C   UNL     1      -5.413   5.505  -0.974  0.00  0.00    +0.000 C 
ATOM     10  N   UNL     1      -5.876   4.871  -2.095  0.00  0.00    +0.000 N 
ATOM     11  O   UNL     1      -6.094   6.329  -0.374  0.00  0.00    +0.000 OA
ATOM     12  H   UNL     1      -5.336   4.133  -2.531  0.00  0.00    +0.000 HD
ATOM     13  H   UNL     1      -6.829   5.033  -2.390  0.00  0.00    +0.000 HD
ENDBRANCH   5   9
BRANCH   1  14
ATOM     14  C   UNL     1       0.331   2.563   0.218  0.00  0.00    +0.000 C 
ATOM     15  C   UNL     1       1.355   3.203  -0.703  0.00  0.00    +0.000 C 
ATOM     16  C   UNL     1       1.803   2.633   0.603  0.00  0.00    +0.000 C 
BRANCH  14  22
ATOM     17  C   UNL     1      -0.306   0.088   0.680  0.00  0.00    +0.000 A 
ATOM     18  N   UNL     1      -0.973  -1.074   0.418  0.00  0.00    +0.000 NA
ATOM     19  C   UNL     1      -1.651  -1.144  -0.742  0.00  0.00    +0.000 A 
ATOM     20  C   UNL     1      -1.649  -0.132  -1.680  0.00  0.00    +0.000 A 
ATOM     21  C   UNL     1      -0.940   1.032  -1.392  0.00  0.00    +0.000 A 
ATOM     22  C   UNL     1      -0.275   1.207  -0.164  0.00  0.00    +0.000 A 
BRANCH  17  24
ATOM     23  N   UNL     1       0.985   0.107   2.936  0.00  0.00    +0.000 NA
ATOM     24  C   UNL     1       0.392   0.085   1.931  0.00  0.00    +0.000 C 
ENDBRANCH  17  24
ENDBRANCH  14  22
ENDBRANCH   1  14
TORSDOF 4
