REMARK  Name = 
REMARK  6 active torsions:
REMARK  status: ('A' for Active; 'I' for Inactive)
REMARK    1  A    between atoms: C_2  and  C_25
REMARK    2  A    between atoms: N_3  and  C_4
REMARK    3  A    between atoms: C_4  and  C_5
REMARK    4  A    between atoms: C_8  and  C_9
REMARK    5  A    between atoms: C_9  and  N_10
REMARK    6  A    between atoms: C_11  and  C_13
REMARK                            x       y       z     vdW  Elec       q    Type
REMARK                         _______ _______ _______ _____ _____    ______ ____
ROOT
ATOM      1  C   UNL     1       3.310  -1.926  -3.125  0.00  0.00    +0.000 A 
ATOM      2  C   UNL     1       4.123  -1.076  -3.871  0.00  0.00    +0.000 A 
ATOM      3  C   UNL     1       4.971  -1.623  -4.831  0.00  0.00    +0.000 A 
ATOM      4  C   UNL     1       5.000  -3.005  -5.026  0.00  0.00    +0.000 A 
ATOM      5  C   UNL     1       4.130  -3.772  -4.260  0.00  0.00    +0.000 A 
ATOM      6  N   UNL     1       3.291  -3.269  -3.322  0.00  0.00    +0.000 NA
ENDROOT
BRANCH   1   7
ATOM      7  C   UNL     1       2.381  -1.365  -2.074  0.00  0.00    +0.000 C 
BRANCH   7  10
ATOM      8  O   UNL     1       1.683   1.145  -3.073  0.00  0.00    +0.000 OA
ATOM      9  C   UNL     1       0.833   0.256  -3.113  0.00  0.00    +0.000 C 
ATOM     10  N   UNL     1       1.090  -1.003  -2.618  0.00  0.00    +0.000 N 
ATOM     11  H   UNL     1       0.431  -1.745  -2.812  0.00  0.00    +0.000 HD
BRANCH   9  12
ATOM     12  C   UNL     1      -0.491   0.467  -3.687  0.00  0.00    +0.000 A 
ATOM     13  C   UNL     1      -0.932   1.615  -4.322  0.00  0.00    +0.000 A 
ATOM     14  C   UNL     1      -2.291   1.528  -4.739  0.00  0.00    +0.000 A 
ATOM     15  C   UNL     1      -2.850   0.315  -4.409  0.00  0.00    +0.000 A 
ATOM     16  S   UNL     1      -1.733  -0.713  -3.620  0.00  0.00    +0.000 S 
ENDBRANCH   9  12
ENDBRANCH   7  10
ENDBRANCH   1   7
BRANCH   4  17
ATOM     17  C   UNL     1       5.879  -3.632  -6.068  0.00  0.00    +0.000 C 
BRANCH  17  18
ATOM     18  N   UNL     1       5.190  -3.707  -7.330  0.00  0.00    +0.000 N 
ATOM     19  C   UNL     1       5.717  -4.371  -8.407  0.00  0.00    +0.000 C 
ATOM     20  O   UNL     1       6.781  -4.980  -8.341  0.00  0.00    +0.000 OA
ATOM     21  H   UNL     1       4.458  -3.022  -7.486  0.00  0.00    +0.000 HD
BRANCH  19  22
ATOM     22  C   UNL     1       4.900  -4.372  -9.628  0.00  0.00    +0.000 A 
ATOM     23  C   UNL     1       5.084  -5.363 -10.583  0.00  0.00    +0.000 A 
ATOM     24  S   UNL     1       3.990  -5.263 -11.889  0.00  0.00    +0.000 S 
ATOM     25  C   UNL     1       3.270  -3.859 -11.253  0.00  0.00    +0.000 A 
ATOM     26  N   UNL     1       2.246  -3.241 -11.900  0.00  0.00    +0.000 NA
ATOM     27  C   UNL     1       1.815  -2.170 -11.319  0.00  0.00    +0.000 A 
ATOM     28  N   UNL     1       2.318  -1.661 -10.150  0.00  0.00    +0.000 N 
ATOM     29  C   UNL     1       3.338  -2.260  -9.454  0.00  0.00    +0.000 A 
ATOM     30  O   UNL     1       3.751  -1.790  -8.399  0.00  0.00    +0.000 OA
ATOM     31  C   UNL     1       3.854  -3.473 -10.060  0.00  0.00    +0.000 A 
ATOM     32  H   UNL     1       1.938  -0.817  -9.746  0.00  0.00    +0.000 HD
ENDBRANCH  19  22
ENDBRANCH  17  18
ENDBRANCH   4  17
TORSDOF 6
