REMARK  Name = 
REMARK  6 active torsions:
REMARK  status: ('A' for Active; 'I' for Inactive)
REMARK    1  A    between atoms: C_2  and  C_20
REMARK    2  A    between atoms: N_3  and  C_4
REMARK    3  A    between atoms: C_4  and  C_5
REMARK    4  A    between atoms: C_8  and  C_9
REMARK    5  A    between atoms: C_9  and  N_10
REMARK    6  A    between atoms: C_11  and  C_13
REMARK                            x       y       z     vdW  Elec       q    Type
REMARK                         _______ _______ _______ _____ _____    ______ ____
ROOT
ATOM      1  C   UNL     1       3.251   2.457   2.834  0.00  0.00    +0.000 C 
ATOM      2  C   UNL     1       3.279   1.706   4.180  0.00  0.00    +0.000 C 
ATOM      3  C   UNL     1       4.019   2.475   5.277  0.00  0.00    +0.000 C 
ATOM      4  C   UNL     1       3.500   3.912   5.451  0.00  0.00    +0.000 C 
ATOM      5  C   UNL     1       3.501   4.647   4.099  0.00  0.00    +0.000 C 
ATOM      6  C   UNL     1       2.718   3.882   3.031  0.00  0.00    +0.000 C 
ENDROOT
BRANCH   1   7
ATOM      7  C   UNL     1       4.627   2.476   2.152  0.00  0.00    +0.000 C 
BRANCH   7  10
ATOM      8  O   UNL     1       4.114   0.986  -0.207  0.00  0.00    +0.000 OA
ATOM      9  C   UNL     1       4.818   0.503   0.668  0.00  0.00    +0.000 C 
ATOM     10  N   UNL     1       5.082   1.141   1.853  0.00  0.00    +0.000 N 
ATOM     11  H   UNL     1       5.742   0.737   2.505  0.00  0.00    +0.000 HD
BRANCH   9  12
ATOM     12  C   UNL     1       5.426  -0.820   0.535  0.00  0.00    +0.000 A 
ATOM     13  C   UNL     1       4.826  -1.799  -0.239  0.00  0.00    +0.000 A 
ATOM     14  S   UNL     1       5.712  -3.258  -0.285  0.00  0.00    +0.000 S 
ATOM     15  C   UNL     1       6.939  -2.611   0.704  0.00  0.00    +0.000 A 
ATOM     16  N   UNL     1       8.039  -3.339   1.031  0.00  0.00    +0.000 NA
ATOM     17  C   UNL     1       8.900  -2.704   1.763  0.00  0.00    +0.000 A 
ATOM     18  N   UNL     1       8.753  -1.414   2.206  0.00  0.00    +0.000 N 
ATOM     19  C   UNL     1       7.631  -0.670   1.959  0.00  0.00    +0.000 A 
ATOM     20  O   UNL     1       7.476   0.422   2.495  0.00  0.00    +0.000 OA
ATOM     21  C   UNL     1       6.660  -1.314   1.094  0.00  0.00    +0.000 A 
ATOM     22  H   UNL     1       9.442  -0.990   2.811  0.00  0.00    +0.000 HD
ENDBRANCH   9  12
ENDBRANCH   7  10
ENDBRANCH   1   7
BRANCH   4  23
ATOM     23  C   UNL     1       2.090   3.956   6.080  0.00  0.00    +0.000 C 
BRANCH  23  24
ATOM     24  N   UNL     1       2.047   3.390   7.407  0.00  0.00    +0.000 N 
ATOM     25  C   UNL     1       2.275   4.139   8.530  0.00  0.00    +0.000 C 
ATOM     26  O   UNL     1       2.562   5.337   8.501  0.00  0.00    +0.000 OA
ATOM     27  H   UNL     1       1.770   2.421   7.557  0.00  0.00    +0.000 HD
BRANCH  25  28
ATOM     28  C   UNL     1       2.231   3.358   9.842  0.00  0.00    +0.000 C 
ATOM     29  C   UNL     1       3.604   2.843  10.225  0.00  0.00    +0.000 C 
ATOM     30  C   UNL     1       3.275   1.783  11.256  0.00  0.00    +0.000 C 
ATOM     31  C   UNL     1       1.913   1.245  10.832  0.00  0.00    +0.000 C 
ATOM     32  N   UNL     1       1.445   2.101   9.733  0.00  0.00    +0.000 NA
ATOM     33  H   UNL     1       0.454   2.313   9.851  0.00  0.00    +0.000 HD
ENDBRANCH  25  28
ENDBRANCH  23  24
ENDBRANCH   4  23
TORSDOF 6
