REMARK  Name = 
REMARK  6 active torsions:
REMARK  status: ('A' for Active; 'I' for Inactive)
REMARK    1  A    between atoms: C_2  and  C_19
REMARK    2  A    between atoms: N_3  and  C_4
REMARK    3  A    between atoms: C_4  and  C_5
REMARK    4  A    between atoms: C_8  and  C_9
REMARK    5  A    between atoms: C_9  and  O_10
REMARK    6  A    between atoms: O_10  and  C_11
REMARK                            x       y       z     vdW  Elec       q    Type
REMARK                         _______ _______ _______ _____ _____    ______ ____
ROOT
ATOM      1  O   UNL     1       1.120   0.563   0.164  0.00  0.00    +0.000 OA
ATOM      2  C   UNL     1       2.153  -0.081   0.226  0.00  0.00    +0.000 C 
ATOM      3  N   UNL     1       2.766  -0.468   1.397  0.00  0.00    +0.000 N 
ATOM      4  H   UNL     1       3.475  -1.187   1.352  0.00  0.00    +0.000 HD
ENDROOT
BRANCH   2   5
ATOM      5  C   UNL     1       2.786  -0.723  -0.921  0.00  0.00    +0.000 A 
ATOM      6  C   UNL     1       2.061  -1.357  -1.914  0.00  0.00    +0.000 A 
ATOM      7  S   UNL     1       3.029  -2.475  -2.786  0.00  0.00    +0.000 S 
ATOM      8  C   UNL     1       4.434  -2.013  -1.935  0.00  0.00    +0.000 A 
ATOM      9  N   UNL     1       5.619  -2.668  -2.062  0.00  0.00    +0.000 NA
ATOM     10  C   UNL     1       6.587  -2.146  -1.381  0.00  0.00    +0.000 A 
ATOM     11  N   UNL     1       6.494  -1.001  -0.626  0.00  0.00    +0.000 N 
ATOM     12  C   UNL     1       5.324  -0.294  -0.486  0.00  0.00    +0.000 A 
ATOM     13  O   UNL     1       5.280   0.780   0.100  0.00  0.00    +0.000 OA
ATOM     14  C   UNL     1       4.189  -0.927  -1.123  0.00  0.00    +0.000 A 
ATOM     15  H   UNL     1       7.311  -0.591  -0.199  0.00  0.00    +0.000 HD
ENDBRANCH   2   5
BRANCH   3  16
ATOM     16  C   UNL     1       2.134  -0.330   2.691  0.00  0.00    +0.000 C 
BRANCH  16  17
ATOM     17  C   UNL     1       3.085  -0.738   3.800  0.00  0.00    +0.000 A 
ATOM     18  N   UNL     1       3.788   0.230   4.416  0.00  0.00    +0.000 NA
ATOM     19  C   UNL     1       4.682  -0.167   5.341  0.00  0.00    +0.000 A 
ATOM     20  C   UNL     1       4.923  -1.486   5.664  0.00  0.00    +0.000 A 
ATOM     21  C   UNL     1       4.164  -2.400   4.966  0.00  0.00    +0.000 A 
ATOM     22  N   UNL     1       3.266  -2.061   4.017  0.00  0.00    +0.000 NA
BRANCH  20  23
ATOM     23  C   UNL     1       5.895  -1.879   6.728  0.00  0.00    +0.000 C 
BRANCH  23  24
ATOM     24  O   UNL     1       5.205  -1.882   7.974  0.00  0.00    +0.000 OA
BRANCH  24  25
ATOM     25  C   UNL     1       5.946  -2.144   9.091  0.00  0.00    +0.000 A 
ATOM     26  C   UNL     1       7.299  -2.472   9.130  0.00  0.00    +0.000 A 
ATOM     27  C   UNL     1       7.911  -2.709  10.362  0.00  0.00    +0.000 A 
ATOM     28  C   UNL     1       7.151  -2.610  11.514  0.00  0.00    +0.000 A 
ATOM     29  N   UNL     1       5.838  -2.298  11.513  0.00  0.00    +0.000 NA
ATOM     30  C   UNL     1       5.272  -2.073  10.303  0.00  0.00    +0.000 A 
ENDBRANCH  24  25
ENDBRANCH  23  24
ENDBRANCH  20  23
ENDBRANCH  16  17
ENDBRANCH   3  16
TORSDOF 6
