REMARK  Name = 
REMARK  6 active torsions:
REMARK  status: ('A' for Active; 'I' for Inactive)
REMARK    1  A    between atoms: C_1  and  N_2
REMARK    2  A    between atoms: N_2  and  C_3
REMARK    3  A    between atoms: C_3  and  C_4
REMARK    4  A    between atoms: C_7  and  C_8
REMARK    5  A    between atoms: C_8  and  C_9
REMARK    6  A    between atoms: C_17  and  C_19
REMARK                            x       y       z     vdW  Elec       q    Type
REMARK                         _______ _______ _______ _____ _____    ______ ____
ROOT
ATOM      1  C   UNL     1       1.109   0.633  -0.055  0.00  0.00    +0.000 C 
ATOM      2  N   UNL     1       2.471   0.101  -0.046  0.00  0.00    +0.000 N 
ATOM      3  C   UNL     1       3.006  -0.168   1.229  0.00  0.00    +0.000 C 
ATOM      4  O   UNL     1       2.353   0.044   2.247  0.00  0.00    +0.000 OA
ENDROOT
BRANCH   3   5
ATOM      5  C   UNL     1       4.379  -0.670   1.343  0.00  0.00    +0.000 A 
ATOM      6  C   UNL     1       5.464  -0.155   0.653  0.00  0.00    +0.000 A 
ATOM      7  S   UNL     1       6.948  -0.891   1.064  0.00  0.00    +0.000 S 
ATOM      8  C   UNL     1       6.208  -1.822   2.280  0.00  0.00    +0.000 A 
ATOM      9  N   UNL     1       6.942  -2.607   3.110  0.00  0.00    +0.000 NA
ATOM     10  C   UNL     1       6.256  -3.196   4.029  0.00  0.00    +0.000 A 
ATOM     11  N   UNL     1       4.894  -3.099   4.175  0.00  0.00    +0.000 N 
ATOM     12  C   UNL     1       4.091  -2.431   3.273  0.00  0.00    +0.000 A 
ATOM     13  O   UNL     1       2.876  -2.573   3.281  0.00  0.00    +0.000 OA
ATOM     14  C   UNL     1       4.834  -1.649   2.300  0.00  0.00    +0.000 A 
ATOM     15  H   UNL     1       4.410  -3.641   4.873  0.00  0.00    +0.000 HD
ENDBRANCH   3   5
BRANCH   2  16
ATOM     16  C   UNL     1       3.114  -0.310  -1.302  0.00  0.00    +0.000 C 
BRANCH  16  17
ATOM     17  C   UNL     1       2.235  -0.373  -2.517  0.00  0.00    +0.000 A 
ATOM     18  C   UNL     1       1.466  -1.501  -2.795  0.00  0.00    +0.000 A 
ATOM     19  C   UNL     1       0.581  -1.478  -3.869  0.00  0.00    +0.000 A 
ATOM     20  C   UNL     1       0.489  -0.324  -4.641  0.00  0.00    +0.000 A 
ATOM     21  N   UNL     1       1.261   0.770  -4.414  0.00  0.00    +0.000 NA
ATOM     22  C   UNL     1       2.110   0.722  -3.367  0.00  0.00    +0.000 A 
BRANCH  20  23
ATOM     23  C   UNL     1      -0.531  -0.221  -5.747  0.00  0.00    +0.000 C 
BRANCH  23  24
ATOM     24  C   UNL     1      -1.856   0.350  -5.310  0.00  0.00    +0.000 A 
ATOM     25  C   UNL     1      -3.034  -0.399  -5.371  0.00  0.00    +0.000 A 
ATOM     26  C   UNL     1      -4.250   0.198  -5.048  0.00  0.00    +0.000 A 
ATOM     27  C   UNL     1      -4.248   1.527  -4.661  0.00  0.00    +0.000 A 
ATOM     28  N   UNL     1      -3.130   2.275  -4.557  0.00  0.00    +0.000 NA
ATOM     29  C   UNL     1      -1.962   1.672  -4.879  0.00  0.00    +0.000 A 
ENDBRANCH  23  24
ENDBRANCH  20  23
ENDBRANCH  16  17
ENDBRANCH   2  16
TORSDOF 5
