REMARK  Name = 
REMARK  7 active torsions:
REMARK  status: ('A' for Active; 'I' for Inactive)
REMARK    1  A    between atoms: C_2  and  C_19
REMARK    2  A    between atoms: N_3  and  C_4
REMARK    3  A    between atoms: C_4  and  C_5
REMARK    4  A    between atoms: C_8  and  C_9
REMARK    5  A    between atoms: C_9  and  O_10
REMARK    6  A    between atoms: C_9  and  C_11
REMARK    7  A    between atoms: C_11  and  C_12
REMARK                            x       y       z     vdW  Elec       q    Type
REMARK                         _______ _______ _______ _____ _____    ______ ____
ROOT
ATOM      1  C   UNL     1       2.328  -7.455  -8.839  0.00  0.00    +0.000 C 
ENDROOT
BRANCH   1   2
ATOM      2  C   UNL     1       3.053  -6.585  -7.827  0.00  0.00    +0.000 A 
ATOM      3  N   UNL     1       3.419  -5.351  -8.214  0.00  0.00    +0.000 NA
ATOM      4  C   UNL     1       4.248  -4.673  -7.394  0.00  0.00    +0.000 A 
ATOM      5  C   UNL     1       4.735  -5.161  -6.198  0.00  0.00    +0.000 A 
ATOM      6  C   UNL     1       4.279  -6.430  -5.887  0.00  0.00    +0.000 A 
ATOM      7  N   UNL     1       3.467  -7.165  -6.680  0.00  0.00    +0.000 NA
BRANCH   5   8
ATOM      8  C   UNL     1       5.710  -4.441  -5.303  0.00  0.00    +0.000 C 
BRANCH   8   9
ATOM      9  O   UNL     1       5.118  -4.228  -4.022  0.00  0.00    +0.000 OA
ATOM     10  H   UNL     1       4.171  -4.042  -4.145  0.00  0.00    +0.000 HD
ENDBRANCH   8   9
BRANCH   8  11
ATOM     11  C   UNL     1       6.228  -3.089  -5.842  0.00  0.00    +0.000 C 
BRANCH  11  12
ATOM     12  C   UNL     1       7.215  -2.350  -4.916  0.00  0.00    +0.000 C 
ATOM     13  C   UNL     1       7.652  -1.020  -5.526  0.00  0.00    +0.000 C 
ATOM     14  C   UNL     1       8.990  -1.299  -6.179  0.00  0.00    +0.000 C 
ATOM     15  N   UNL     1       9.576  -2.437  -5.476  0.00  0.00    +0.000 NA
ATOM     16  C   UNL     1       8.533  -3.082  -4.675  0.00  0.00    +0.000 C 
ATOM     17  H   UNL     1      10.318  -2.109  -4.855  0.00  0.00    +0.000 HD
ENDBRANCH  11  12
ENDBRANCH   8  11
ENDBRANCH   5   8
ENDBRANCH   1   2
BRANCH   1  20
ATOM     18  O   UNL     1       1.849  -9.061 -11.180  0.00  0.00    +0.000 OA
ATOM     19  C   UNL     1       2.951  -9.053 -10.641  0.00  0.00    +0.000 C 
ATOM     20  N   UNL     1       3.278  -8.274  -9.563  0.00  0.00    +0.000 N 
ATOM     21  H   UNL     1       4.126  -8.486  -9.053  0.00  0.00    +0.000 HD
BRANCH  19  22
ATOM     22  C   UNL     1       3.996 -10.027 -10.927  0.00  0.00    +0.000 A 
ATOM     23  C   UNL     1       3.737 -11.369 -11.130  0.00  0.00    +0.000 A 
ATOM     24  S   UNL     1       5.146 -12.326 -10.920  0.00  0.00    +0.000 S 
ATOM     25  C   UNL     1       6.121 -10.944 -10.691  0.00  0.00    +0.000 A 
ATOM     26  N   UNL     1       7.428 -11.023 -10.325  0.00  0.00    +0.000 NA
ATOM     27  C   UNL     1       8.027  -9.878 -10.248  0.00  0.00    +0.000 A 
ATOM     28  N   UNL     1       7.452  -8.667 -10.550  0.00  0.00    +0.000 N 
ATOM     29  C   UNL     1       6.142  -8.541 -10.946  0.00  0.00    +0.000 A 
ATOM     30  O   UNL     1       5.673  -7.469 -11.307  0.00  0.00    +0.000 OA
ATOM     31  C   UNL     1       5.407  -9.787 -10.914  0.00  0.00    +0.000 A 
ATOM     32  H   UNL     1       8.000  -7.819 -10.559  0.00  0.00    +0.000 HD
ENDBRANCH  19  22
ENDBRANCH   1  20
TORSDOF 7
