REMARK  Name = 
REMARK  8 active torsions:
REMARK  status: ('A' for Active; 'I' for Inactive)
REMARK    1  A    between atoms: C_2  and  C_3
REMARK    2  A    between atoms: C_3  and  C_4
REMARK    3  A    between atoms: C_4  and  C_5
REMARK    4  A    between atoms: C_4  and  C_16
REMARK    5  A    between atoms: C_5  and  N_6
REMARK    6  A    between atoms: N_6  and  C_7
REMARK    7  A    between atoms: C_10  and  C_11
REMARK    8  A    between atoms: C_20  and  C_21
REMARK                            x       y       z     vdW  Elec       q    Type
REMARK                         _______ _______ _______ _____ _____    ______ ____
ROOT
ATOM      1  C   UNL     1       4.231  -1.165  -0.850  0.00  0.00    +0.000 C 
ENDROOT
BRANCH   1   2
ATOM      2  C   UNL     1       5.753  -1.218  -0.870  0.00  0.00    +0.000 A 
ATOM      3  C   UNL     1       6.404  -2.460  -0.889  0.00  0.00    +0.000 A 
ATOM      4  C   UNL     1       7.792  -2.531  -1.036  0.00  0.00    +0.000 A 
ATOM      5  C   UNL     1       8.547  -1.368  -1.195  0.00  0.00    +0.000 A 
ATOM      6  C   UNL     1       7.915  -0.121  -1.176  0.00  0.00    +0.000 A 
ATOM      7  C   UNL     1       6.530  -0.056  -0.983  0.00  0.00    +0.000 A 
BRANCH   6   8
ATOM      8  C   UNL     1       8.622   1.154  -1.462  0.00  0.00    +0.000 C 
ATOM      9  N   UNL     1       9.975   1.185  -1.306  0.00  0.00    +0.000 N 
ATOM     10  O   UNL     1       8.004   2.148  -1.823  0.00  0.00    +0.000 OA
ATOM     11  H   UNL     1      10.506   0.461  -0.849  0.00  0.00    +0.000 HD
ATOM     12  H   UNL     1      10.429   2.076  -1.476  0.00  0.00    +0.000 HD
ENDBRANCH   6   8
ENDBRANCH   1   2
BRANCH   1  13
ATOM     13  C   UNL     1       3.688   0.013  -0.034  0.00  0.00    +0.000 C 
BRANCH  13  15
ATOM     14  N   UNL     1       0.908  -0.032   0.035  0.00  0.00    +0.000 NA
ATOM     15  C   UNL     1       2.169  -0.012   0.003  0.00  0.00    +0.000 C 
ENDBRANCH  13  15
ENDBRANCH   1  13
BRANCH   1  16
ATOM     16  C   UNL     1       3.672  -1.186  -2.295  0.00  0.00    +0.000 C 
BRANCH  16  17
ATOM     17  N   UNL     1       3.914   0.081  -2.988  0.00  0.00    +0.000 N 
ATOM     18  H   UNL     1       4.833   0.490  -2.820  0.00  0.00    +0.000 HD
BRANCH  17  19
ATOM     19  C   UNL     1       3.571   0.199  -4.335  0.00  0.00    +0.000 A 
ATOM     20  C   UNL     1       2.728  -0.656  -5.030  0.00  0.00    +0.000 A 
ATOM     21  N   UNL     1       2.331  -0.486  -6.307  0.00  0.00    +0.000 NA
ATOM     22  C   UNL     1       2.789   0.638  -6.910  0.00  0.00    +0.000 A 
ATOM     23  N   UNL     1       3.592   1.560  -6.350  0.00  0.00    +0.000 NA
ATOM     24  C   UNL     1       3.947   1.315  -5.071  0.00  0.00    +0.000 A 
BRANCH  22  25
ATOM     25  C   UNL     1       2.322   0.864  -8.326  0.00  0.00    +0.000 C 
ATOM     26  N   UNL     1       1.496  -0.108  -8.839  0.00  0.00    +0.000 N 
ATOM     27  O   UNL     1       2.629   1.840  -9.008  0.00  0.00    +0.000 OA
ATOM     28  H   UNL     1       1.223  -0.896  -8.259  0.00  0.00    +0.000 HD
ATOM     29  H   UNL     1       1.127   0.004  -9.772  0.00  0.00    +0.000 HD
ENDBRANCH  22  25
ENDBRANCH  17  19
ENDBRANCH  16  17
ENDBRANCH   1  16
TORSDOF 8
