REMARK  Name = 
REMARK  8 active torsions:
REMARK  status: ('A' for Active; 'I' for Inactive)
REMARK    1  A    between atoms: C_1  and  C_2
REMARK    2  A    between atoms: C_2  and  C_3
REMARK    3  A    between atoms: C_2  and  C_4
REMARK    4  A    between atoms: C_2  and  C_5
REMARK    5  A    between atoms: N_7  and  C_8
REMARK    6  A    between atoms: C_8  and  C_9
REMARK    7  A    between atoms: C_12  and  C_13
REMARK    8  A    between atoms: C_13  and  N_14
REMARK                            x       y       z     vdW  Elec       q    Type
REMARK                         _______ _______ _______ _____ _____    ______ ____
ROOT
ATOM      1  C   UNL     1       2.999  -0.325  -1.269  0.00  0.00    +0.000 A 
ATOM      2  C   UNL     1       3.384   0.607  -2.220  0.00  0.00    +0.000 A 
ATOM      3  N   UNL     1       3.772  -0.043  -3.364  0.00  0.00    +0.000 N 
ATOM      4  C   UNL     1       3.579  -1.399  -3.218  0.00  0.00    +0.000 A 
ATOM      5  C   UNL     1       3.788  -2.452  -4.126  0.00  0.00    +0.000 A 
ATOM      6  C   UNL     1       3.481  -3.749  -3.724  0.00  0.00    +0.000 A 
ATOM      7  C   UNL     1       2.965  -3.995  -2.458  0.00  0.00    +0.000 A 
ATOM      8  C   UNL     1       2.754  -2.940  -1.562  0.00  0.00    +0.000 A 
ATOM      9  C   UNL     1       3.073  -1.610  -1.929  0.00  0.00    +0.000 A 
ENDROOT
BRANCH   1  11
ATOM     10  C   UNL     1       0.989   0.096   0.174  0.00  0.00    +0.000 C 
ATOM     11  C   UNL     1       2.526   0.002   0.155  0.00  0.00    +0.000 C 
ATOM     12  C   UNL     1       3.103   1.356   0.638  0.00  0.00    +0.000 C 
ATOM     13  C   UNL     1       2.983  -1.042   1.195  0.00  0.00    +0.000 C 
ENDBRANCH   1  11
BRANCH   3  14
ATOM     14  C   UNL     1       4.335   0.620  -4.539  0.00  0.00    +0.000 C 
BRANCH  14  15
ATOM     15  C   UNL     1       3.255   0.966  -5.532  0.00  0.00    +0.000 A 
ATOM     16  C   UNL     1       2.613   2.200  -5.467  0.00  0.00    +0.000 A 
ATOM     17  C   UNL     1       1.496   2.419  -6.269  0.00  0.00    +0.000 A 
ATOM     18  C   UNL     1       1.037   1.409  -7.115  0.00  0.00    +0.000 A 
ATOM     19  C   UNL     1       1.789   0.242  -7.173  0.00  0.00    +0.000 A 
ATOM     20  N   UNL     1       2.886   0.005  -6.417  0.00  0.00    +0.000 NA
BRANCH  18  21
ATOM     21  C   UNL     1      -0.232   1.567  -7.902  0.00  0.00    +0.000 C 
BRANCH  21  22
ATOM     22  N   UNL     1      -1.380   1.754  -7.021  0.00  0.00    +0.000 NA
ATOM     23  H   UNL     1      -1.495   0.923  -6.441  0.00  0.00    +0.000 HD
ATOM     24  H   UNL     1      -2.229   1.834  -7.578  0.00  0.00    +0.000 HD
ENDBRANCH  21  22
ENDBRANCH  18  21
ENDBRANCH  14  15
ENDBRANCH   3  14
TORSDOF 5
