REMARK  Name = 
REMARK  5 active torsions:
REMARK  status: ('A' for Active; 'I' for Inactive)
REMARK    1  A    between atoms: C_1  and  N_2
REMARK    2  A    between atoms: C_3  and  C_5
REMARK    3  A    between atoms: C_8  and  N_9
REMARK    4  A    between atoms: N_9  and  C_10
REMARK    5  A    between atoms: C_10  and  C_11
REMARK                            x       y       z     vdW  Elec       q    Type
REMARK                         _______ _______ _______ _____ _____    ______ ____
ROOT
ATOM      1  C   UNL     1       4.746   0.565  -1.134  0.00  0.00    +0.000 A 
ATOM      2  C   UNL     1       5.458  -0.540  -0.706  0.00  0.00    +0.000 A 
ATOM      3  N   UNL     1       6.816  -0.587  -0.748  0.00  0.00    +0.000 NA
ATOM      4  C   UNL     1       7.454   0.515  -1.193  0.00  0.00    +0.000 A 
ATOM      5  C   UNL     1       6.709   1.613  -1.644  0.00  0.00    +0.000 A 
ATOM      6  N   UNL     1       5.353   1.678  -1.625  0.00  0.00    +0.000 NA
ENDROOT
BRANCH   1   9
ATOM      7  C   UNL     1       1.233   1.834  -1.660  0.00  0.00    +0.000 C 
ATOM      8  N   UNL     1       2.662   1.695  -1.592  0.00  0.00    +0.000 N 
ATOM      9  C   UNL     1       3.257   0.558  -1.087  0.00  0.00    +0.000 C 
ATOM     10  O   UNL     1       2.640  -0.400  -0.640  0.00  0.00    +0.000 OA
ATOM     11  H   UNL     1       3.276   2.419  -1.954  0.00  0.00    +0.000 HD
ENDBRANCH   1   9
BRANCH   4  12
ATOM     12  N   UNL     1       8.837   0.423  -1.243  0.00  0.00    +0.000 N 
ATOM     13  H   UNL     1       9.094  -0.101  -2.077  0.00  0.00    +0.000 HD
BRANCH  12  14
ATOM     14  C   UNL     1       9.609   1.657  -1.141  0.00  0.00    +0.000 C 
BRANCH  14  15
ATOM     15  C   UNL     1      11.016   1.367  -0.681  0.00  0.00    +0.000 A 
ATOM     16  C   UNL     1      11.237   0.719   0.532  0.00  0.00    +0.000 A 
ATOM     17  N   UNL     1      12.477   0.475   1.021  0.00  0.00    +0.000 NA
ATOM     18  C   UNL     1      13.495   0.898   0.242  0.00  0.00    +0.000 A 
ATOM     19  C   UNL     1      13.288   1.539  -0.967  0.00  0.00    +0.000 A 
ATOM     20  N   UNL     1      12.050   1.793  -1.455  0.00  0.00    +0.000 NA
ENDBRANCH  14  15
ENDBRANCH  12  14
ENDBRANCH   4  12
TORSDOF 4
