REMARK  Name = 
REMARK  5 active torsions:
REMARK  status: ('A' for Active; 'I' for Inactive)
REMARK    1  A    between atoms: C_2  and  C_5
REMARK    2  A    between atoms: C_7  and  N_8
REMARK    3  A    between atoms: N_8  and  C_9
REMARK    4  A    between atoms: C_9  and  C_10
REMARK    5  A    between atoms: C_14  and  C_15
REMARK                            x       y       z     vdW  Elec       q    Type
REMARK                         _______ _______ _______ _____ _____    ______ ____
ROOT
ATOM      1  C   UNL     1       1.994   5.018  -0.529  0.00  0.00    +0.000 C 
ENDROOT
BRANCH   1   2
ATOM      2  C   UNL     1       1.700   6.498  -0.586  0.00  0.00    +0.000 A 
ATOM      3  C   UNL     1       0.393   6.971  -0.437  0.00  0.00    +0.000 A 
ATOM      4  C   UNL     1       0.145   8.341  -0.411  0.00  0.00    +0.000 A 
ATOM      5  C   UNL     1       1.203   9.248  -0.524  0.00  0.00    +0.000 A 
ATOM      6  C   UNL     1       2.533   8.813  -0.669  0.00  0.00    +0.000 A 
ATOM      7  C   UNL     1       2.752   7.424  -0.730  0.00  0.00    +0.000 A 
BRANCH   6   8
ATOM      8  C   UNL     1       3.653   9.771  -0.685  0.00  0.00    +0.000 A 
ATOM      9  C   UNL     1       3.664  10.934   0.076  0.00  0.00    +0.000 A 
ATOM     10  N   UNL     1       4.676  11.826   0.125  0.00  0.00    +0.000 NA
ATOM     11  C   UNL     1       5.743  11.530  -0.628  0.00  0.00    +0.000 A 
ATOM     12  N   UNL     1       5.872  10.448  -1.409  0.00  0.00    +0.000 NA
ATOM     13  C   UNL     1       4.818   9.599  -1.417  0.00  0.00    +0.000 A 
ENDBRANCH   6   8
ENDBRANCH   1   2
BRANCH   1  14
ATOM     14  N   UNL     1       1.834   4.402  -1.842  0.00  0.00    +0.000 N 
ATOM     15  H   UNL     1       0.986   4.716  -2.310  0.00  0.00    +0.000 HD
BRANCH  14  18
ATOM     16  C   UNL     1       3.086   0.929  -1.300  0.00  0.00    +0.000 A 
ATOM     17  C   UNL     1       2.891   2.302  -1.114  0.00  0.00    +0.000 A 
ATOM     18  C   UNL     1       2.016   3.013  -1.938  0.00  0.00    +0.000 A 
ATOM     19  C   UNL     1       1.419   2.314  -2.987  0.00  0.00    +0.000 A 
ATOM     20  C   UNL     1       1.654   0.954  -3.117  0.00  0.00    +0.000 A 
ATOM     21  N   UNL     1       2.458   0.248  -2.297  0.00  0.00    +0.000 NA
BRANCH  16  23
ATOM     22  F   UNL     1       4.567   0.973   0.608  0.00  0.00    +0.000 F 
ATOM     23  C   UNL     1       4.033   0.179  -0.371  0.00  0.00    +0.000 C 
ATOM     24  F   UNL     1       5.104  -0.364  -1.016  0.00  0.00    +0.000 F 
ATOM     25  F   UNL     1       3.430  -0.848   0.294  0.00  0.00    +0.000 F 
ENDBRANCH  16  23
ENDBRANCH  14  18
ENDBRANCH   1  14
TORSDOF 5
