REMARK  Name = 
REMARK  5 active torsions:
REMARK  status: ('A' for Active; 'I' for Inactive)
REMARK    1  A    between atoms: C_1  and  C_2
REMARK    2  A    between atoms: C_9  and  C_10
REMARK    3  A    between atoms: C_10  and  O_12
REMARK    4  A    between atoms: N_14  and  C_15
REMARK    5  A    between atoms: C_15  and  C_16
REMARK                            x       y       z     vdW  Elec       q    Type
REMARK                         _______ _______ _______ _____ _____    ______ ____
ROOT
ATOM      1  C   UNL     1       6.780   3.996  -0.145  0.00  0.00    +0.000 C 
ATOM      2  C   UNL     1       6.384   2.590  -0.438  0.00  0.00    +0.000 C 
ATOM      3  C   UNL     1       5.147   2.016   0.160  0.00  0.00    +0.000 C 
ATOM      4  N   UNL     1       4.829   0.766   0.285  0.00  0.00    +0.000 NA
ATOM      5  C   UNL     1       5.708  -0.194  -0.161  0.00  0.00    +0.000 C 
ATOM      6  C   UNL     1       6.847   0.315  -0.990  0.00  0.00    +0.000 C 
ATOM      7  C   UNL     1       7.113   1.732  -1.168  0.00  0.00    +0.000 C 
ATOM      8  C   UNL     1       7.859  -0.518  -1.306  0.00  0.00    +0.000 C 
ATOM      9  C   UNL     1       7.956  -1.759  -0.569  0.00  0.00    +0.000 C 
ATOM     10  C   UNL     1       6.802  -2.371  -0.239  0.00  0.00    +0.000 C 
ATOM     11  N   UNL     1       5.708  -1.581   0.234  0.00  0.00    +0.000 N 
ENDROOT
BRANCH   9  12
ATOM     12  C   UNL     1       8.867  -1.791   0.649  0.00  0.00    +0.000 C 
ATOM     13  O   UNL     1       8.831  -2.653   1.516  0.00  0.00    +0.000 OA
BRANCH  12  14
ATOM     14  O   UNL     1       9.666  -0.706   0.786  0.00  0.00    +0.000 OA
ATOM     15  H   UNL     1       9.521   0.016   0.146  0.00  0.00    +0.000 HD
ENDBRANCH  12  14
ENDBRANCH   9  12
BRANCH  11  16
ATOM     16  C   UNL     1       5.382  -1.834   1.687  0.00  0.00    +0.000 C 
BRANCH  16  17
ATOM     17  C   UNL     1       4.343  -2.901   2.092  0.00  0.00    +0.000 C 
ATOM     18  C   UNL     1       4.090  -4.121   1.185  0.00  0.00    +0.000 C 
ATOM     19  N   UNL     1       3.181  -5.109   1.824  0.00  0.00    +0.000 NA
ATOM     20  C   UNL     1       1.945  -4.409   2.267  0.00  0.00    +0.000 C 
ATOM     21  C   UNL     1       2.255  -3.191   3.146  0.00  0.00    +0.000 C 
ATOM     22  O   UNL     1       3.096  -2.264   2.445  0.00  0.00    +0.000 OA
ATOM     23  H   UNL     1       3.638  -5.488   2.656  0.00  0.00    +0.000 HD
ENDBRANCH  16  17
ENDBRANCH  11  16
TORSDOF 4
