REMARK  Name = 
REMARK  11 active torsions:
REMARK  status: ('A' for Active; 'I' for Inactive)
REMARK    1  A    between atoms: C_1  and  N_2
REMARK    2  A    between atoms: N_2  and  C_3
REMARK    3  A    between atoms: N_2  and  C_4
REMARK    4  A    between atoms: C_4  and  C_5
REMARK    5  A    between atoms: C_4  and  C_6
REMARK    6  A    between atoms: C_4  and  C_7
REMARK    7  A    between atoms: C_8  and  C_9
REMARK    8  A    between atoms: C_13  and  C_14
REMARK    9  A    between atoms: C_14  and  O_15
REMARK   10  A    between atoms: C_14  and  C_16
REMARK   11  A    between atoms: C_17  and  C_18
REMARK                            x       y       z     vdW  Elec       q    Type
REMARK                         _______ _______ _______ _____ _____    ______ ____
ROOT
ATOM      1  C   UNL     1       7.213   0.285   1.448  0.00  0.00    +0.000 A 
ATOM      2  C   UNL     1       7.899  -0.895   1.696  0.00  0.00    +0.000 A 
ATOM      3  N   UNL     1       9.253  -0.960   1.728  0.00  0.00    +0.000 NA
ATOM      4  C   UNL     1       9.890   0.211   1.493  0.00  0.00    +0.000 A 
ATOM      5  C   UNL     1       9.216   1.405   1.239  0.00  0.00    +0.000 A 
ATOM      6  N   UNL     1       7.848   1.462   1.217  0.00  0.00    +0.000 NA
ENDROOT
BRANCH   1   8
ATOM      7  C   UNL     1       4.480   0.314   1.428  0.00  0.00    +0.000 C 
ATOM      8  C   UNL     1       5.784   0.314   1.428  0.00  0.00    +0.000 C 
BRANCH   7   9
ATOM      9  C   UNL     1       2.960   0.314   1.428  0.00  0.00    +0.000 C 
ATOM     10  C   UNL     1       2.506   1.650   2.060  0.00  0.00    +0.000 C 
ATOM     11  C   UNL     1       2.522  -0.838   2.360  0.00  0.00    +0.000 C 
BRANCH   9  13
ATOM     12  C   UNL     1       0.996   0.071  -0.066  0.00  0.00    +0.000 C 
ATOM     13  N   UNL     1       2.458   0.101   0.044  0.00  0.00    +0.000 NA
ATOM     14  C   UNL     1       2.979   1.067  -0.934  0.00  0.00    +0.000 C 
ENDBRANCH   9  13
ENDBRANCH   7   9
ENDBRANCH   1   8
BRANCH   5  15
ATOM     15  C   UNL     1      10.009   2.668   0.943  0.00  0.00    +0.000 C 
BRANCH  15  16
ATOM     16  O   UNL     1       9.234   3.565   0.145  0.00  0.00    +0.000 OA
ATOM     17  H   UNL     1       8.304   3.333   0.339  0.00  0.00    +0.000 HD
ENDBRANCH  15  16
BRANCH  15  18
ATOM     18  C   UNL     1      10.485   3.476   2.117  0.00  0.00    +0.000 C 
ATOM     19  C   UNL     1      10.277   3.263   3.427  0.00  0.00    +0.000 C 
BRANCH  19  20
ATOM     20  C   UNL     1      10.832   4.184   4.421  0.00  0.00    +0.000 A 
ATOM     21  C   UNL     1      10.090   5.291   4.854  0.00  0.00    +0.000 A 
ATOM     22  C   UNL     1      10.642   6.192   5.766  0.00  0.00    +0.000 A 
ATOM     23  C   UNL     1      11.934   5.998   6.247  0.00  0.00    +0.000 A 
ATOM     24  C   UNL     1      12.676   4.895   5.821  0.00  0.00    +0.000 A 
ATOM     25  C   UNL     1      12.127   3.992   4.913  0.00  0.00    +0.000 A 
ENDBRANCH  19  20
ENDBRANCH  15  18
ENDBRANCH   5  15
TORSDOF 7
