REMARK  Name = 
REMARK  7 active torsions:
REMARK  status: ('A' for Active; 'I' for Inactive)
REMARK    1  A    between atoms: C_1  and  C_2
REMARK    2  A    between atoms: C_2  and  N_3
REMARK    3  A    between atoms: C_2  and  C_16
REMARK    4  A    between atoms: C_4  and  C_6
REMARK    5  A    between atoms: C_19  and  C_20
REMARK    6  A    between atoms: C_20  and  N_21
REMARK    7  A    between atoms: C_22  and  C_24
REMARK                            x       y       z     vdW  Elec       q    Type
REMARK                         _______ _______ _______ _____ _____    ______ ____
ROOT
ATOM      1  C   UNL     1       1.087  -0.650  -0.412  0.00  0.00    +0.000 C 
ATOM      2  C   UNL     1       2.497  -0.149  -0.075  0.00  0.00    +0.000 C 
ENDROOT
BRANCH   2   3
ATOM      3  C   UNL     1       3.077   0.587  -1.284  0.00  0.00    +0.000 A 
ATOM      4  C   UNL     1       2.844   1.967  -1.411  0.00  0.00    +0.000 A 
ATOM      5  C   UNL     1       3.269   2.679  -2.540  0.00  0.00    +0.000 A 
ATOM      6  C   UNL     1       3.939   2.033  -3.587  0.00  0.00    +0.000 A 
ATOM      7  C   UNL     1       4.200   0.662  -3.457  0.00  0.00    +0.000 A 
ATOM      8  C   UNL     1       3.764  -0.055  -2.327  0.00  0.00    +0.000 A 
BRANCH   6   9
ATOM      9  C   UNL     1       4.345   2.797  -4.825  0.00  0.00    +0.000 C 
BRANCH   9  10
ATOM     10  N   UNL     1       5.665   3.389  -4.703  0.00  0.00    +0.000 N 
ATOM     11  C   UNL     1       6.227   4.064  -5.770  0.00  0.00    +0.000 C 
ATOM     12  O   UNL     1       5.677   4.129  -6.867  0.00  0.00    +0.000 OA
ATOM     13  H   UNL     1       5.998   3.587  -3.771  0.00  0.00    +0.000 HD
BRANCH  11  14
ATOM     14  C   UNL     1       7.540   4.778  -5.449  0.00  0.00    +0.000 C 
ATOM     15  C   UNL     1       8.134   5.531  -6.641  0.00  0.00    +0.000 C 
ATOM     16  C   UNL     1       9.306   4.675  -7.081  0.00  0.00    +0.000 C 
ATOM     17  N   UNL     1       9.842   4.154  -5.819  0.00  0.00    +0.000 NA
ATOM     18  C   UNL     1       8.650   3.813  -5.024  0.00  0.00    +0.000 C 
ATOM     19  H   UNL     1      10.352   4.905  -5.353  0.00  0.00    +0.000 HD
ENDBRANCH  11  14
ENDBRANCH   9  10
ENDBRANCH   6   9
ENDBRANCH   2   3
BRANCH   2  20
ATOM     20  N   UNL     1       3.354  -1.225   0.397  0.00  0.00    +0.000 N 
ATOM     21  C   UNL     1       3.066  -1.938   1.544  0.00  0.00    +0.000 C 
ATOM     22  O   UNL     1       2.062  -1.737   2.215  0.00  0.00    +0.000 OA
ATOM     23  H   UNL     1       4.330  -1.175   0.118  0.00  0.00    +0.000 HD
BRANCH  21  24
ATOM     24  C   UNL     1       4.001  -3.009   1.896  0.00  0.00    +0.000 A 
ATOM     25  C   UNL     1       3.550  -4.115   2.607  0.00  0.00    +0.000 A 
ATOM     26  S   UNL     1       4.768  -5.266   2.926  0.00  0.00    +0.000 S 
ATOM     27  C   UNL     1       5.950  -4.304   2.169  0.00  0.00    +0.000 A 
ATOM     28  N   UNL     1       7.252  -4.693   2.131  0.00  0.00    +0.000 NA
ATOM     29  C   UNL     1       8.043  -3.845   1.561  0.00  0.00    +0.000 A 
ATOM     30  N   UNL     1       7.651  -2.654   1.012  0.00  0.00    +0.000 N 
ATOM     31  C   UNL     1       6.339  -2.243   0.981  0.00  0.00    +0.000 A 
ATOM     32  O   UNL     1       6.004  -1.209   0.414  0.00  0.00    +0.000 OA
ATOM     33  C   UNL     1       5.414  -3.140   1.646  0.00  0.00    +0.000 A 
ATOM     34  H   UNL     1       8.317  -2.044   0.562  0.00  0.00    +0.000 HD
ENDBRANCH  21  24
ENDBRANCH   2  20
TORSDOF 6
