REMARK  Name = 
REMARK  11 active torsions:
REMARK  status: ('A' for Active; 'I' for Inactive)
REMARK    1  A    between atoms: N_1  and  C_2
REMARK    2  A    between atoms: C_2  and  C_3
REMARK    3  A    between atoms: C_3  and  N_4
REMARK    4  A    between atoms: C_3  and  C_20
REMARK    5  A    between atoms: C_5  and  C_7
REMARK    6  A    between atoms: N_13  and  C_14
REMARK    7  A    between atoms: C_14  and  C_15
REMARK    8  A    between atoms: C_15  and  O_16
REMARK    9  A    between atoms: C_23  and  O_24
REMARK   10  A    between atoms: O_24  and  C_25
REMARK   11  A    between atoms: C_25  and  C_26
REMARK                            x       y       z     vdW  Elec       q    Type
REMARK                         _______ _______ _______ _____ _____    ______ ____
ROOT
ATOM      1  C   UNL     1       2.956   1.283  -0.463  0.00  0.00    +0.000 C 
ENDROOT
BRANCH   1   2
ATOM      2  C   UNL     1       4.479   1.299  -0.425  0.00  0.00    +0.000 A 
ATOM      3  C   UNL     1       5.220   1.487  -1.599  0.00  0.00    +0.000 A 
ATOM      4  C   UNL     1       6.619   1.469  -1.567  0.00  0.00    +0.000 A 
ATOM      5  C   UNL     1       7.292   1.280  -0.358  0.00  0.00    +0.000 A 
ATOM      6  C   UNL     1       6.563   1.077   0.811  0.00  0.00    +0.000 A 
ATOM      7  C   UNL     1       5.170   1.104   0.782  0.00  0.00    +0.000 A 
BRANCH   5   8
ATOM      8  O   UNL     1       8.660   1.302  -0.425  0.00  0.00    +0.000 OA
BRANCH   8   9
ATOM      9  C   UNL     1       9.310   1.637   0.808  0.00  0.00    +0.000 C 
BRANCH   9  10
ATOM     10  C   UNL     1      10.708   2.162   0.585  0.00  0.00    +0.000 A 
ATOM     11  C   UNL     1      11.046   2.834  -0.590  0.00  0.00    +0.000 A 
ATOM     12  C   UNL     1      12.314   3.396  -0.704  0.00  0.00    +0.000 A 
ATOM     13  C   UNL     1      13.206   3.282   0.355  0.00  0.00    +0.000 A 
ATOM     14  C   UNL     1      12.795   2.602   1.486  0.00  0.00    +0.000 A 
ATOM     15  N   UNL     1      11.574   2.046   1.628  0.00  0.00    +0.000 NA
ENDBRANCH   9  10
ENDBRANCH   8   9
ENDBRANCH   5   8
ENDBRANCH   1   2
BRANCH   1  16
ATOM     16  N   UNL     1       2.463   2.410   0.313  0.00  0.00    +0.000 N 
ATOM     17  C   UNL     1       1.313   3.086   0.015  0.00  0.00    +0.000 C 
ATOM     18  O   UNL     1       0.623   2.819  -0.963  0.00  0.00    +0.000 OA
ATOM     19  H   UNL     1       2.882   2.547   1.224  0.00  0.00    +0.000 HD
BRANCH  17  20
ATOM     20  C   UNL     1       0.987   4.211   0.903  0.00  0.00    +0.000 A 
ATOM     21  C   UNL     1       0.233   5.270   0.416  0.00  0.00    +0.000 A 
ATOM     22  S   UNL     1      -0.023   6.506   1.562  0.00  0.00    +0.000 S 
ATOM     23  C   UNL     1       0.832   5.651   2.758  0.00  0.00    +0.000 A 
ATOM     24  N   UNL     1       0.970   6.158   4.009  0.00  0.00    +0.000 NA
ATOM     25  C   UNL     1       1.602   5.391   4.835  0.00  0.00    +0.000 A 
ATOM     26  N   UNL     1       2.134   4.152   4.531  0.00  0.00    +0.000 N 
ATOM     27  C   UNL     1       2.064   3.631   3.241  0.00  0.00    +0.000 A 
ATOM     28  O   UNL     1       2.612   2.578   2.921  0.00  0.00    +0.000 OA
ATOM     29  C   UNL     1       1.325   4.448   2.291  0.00  0.00    +0.000 A 
BRANCH  26  30
ATOM     30  C   UNL     1       2.821   3.385   5.567  0.00  0.00    +0.000 C 
BRANCH  30  31
ATOM     31  C   UNL     1       4.329   3.645   5.593  0.00  0.00    +0.000 C 
BRANCH  31  32
ATOM     32  O   UNL     1       4.596   5.001   5.940  0.00  0.00    +0.000 OA
ATOM     33  H   UNL     1       4.512   5.537   5.131  0.00  0.00    +0.000 HD
ENDBRANCH  31  32
ENDBRANCH  30  31
ENDBRANCH  26  30
ENDBRANCH  17  20
ENDBRANCH   1  16
BRANCH   1  34
ATOM     34  C   UNL     1       2.379  -0.060   0.079  0.00  0.00    +0.000 C 
BRANCH  34  35
ATOM     35  N   UNL     1       2.839  -1.256  -0.640  0.00  0.00    +0.000 NA
ATOM     36  H   UNL     1       2.631  -2.082  -0.081  0.00  0.00    +0.000 HD
ATOM     37  H   UNL     1       3.855  -1.230  -0.735  0.00  0.00    +0.000 HD
ENDBRANCH  34  35
ENDBRANCH   1  34
TORSDOF 11
