REMARK  Name = 
REMARK  6 active torsions:
REMARK  status: ('A' for Active; 'I' for Inactive)
REMARK    1  A    between atoms: C_2  and  C_3
REMARK    2  A    between atoms: C_6  and  C_7
REMARK    3  A    between atoms: C_7  and  N_8
REMARK    4  A    between atoms: C_11  and  C_12
REMARK    5  A    between atoms: C_12  and  N_13
REMARK    6  A    between atoms: C_14  and  C_16
REMARK                            x       y       z     vdW  Elec       q    Type
REMARK                         _______ _______ _______ _____ _____    ______ ____
ROOT
ATOM      1  C   UNL     1       6.891   3.659  -1.389  0.00  0.00    +0.000 C 
ENDROOT
BRANCH   1   5
ATOM      2  N   UNL     1       4.632   1.285   0.011  0.00  0.00    +0.000 N 
ATOM      3  C   UNL     1       4.574   2.173   1.047  0.00  0.00    +0.000 A 
ATOM      4  C   UNL     1       5.381   3.225   0.689  0.00  0.00    +0.000 A 
ATOM      5  C   UNL     1       5.921   2.868  -0.571  0.00  0.00    +0.000 A 
ATOM      6  N   UNL     1       5.467   1.672  -0.979  0.00  0.00    +0.000 NA
BRANCH   2   7
ATOM      7  C   UNL     1       3.938   0.006  -0.070  0.00  0.00    +0.000 C 
BRANCH   7  11
ATOM      8  C   UNL     1      -0.028   0.386  -1.774  0.00  0.00    +0.000 A 
ATOM      9  C   UNL     1       1.095   0.721  -2.533  0.00  0.00    +0.000 A 
ATOM     10  C   UNL     1       2.379   0.598  -1.983  0.00  0.00    +0.000 A 
ATOM     11  C   UNL     1       2.554   0.145  -0.664  0.00  0.00    +0.000 A 
ATOM     12  C   UNL     1       1.420  -0.197   0.086  0.00  0.00    +0.000 A 
ATOM     13  C   UNL     1       0.147  -0.076  -0.470  0.00  0.00    +0.000 A 
ATOM     14  F   UNL     1      -0.912  -0.417   0.279  0.00  0.00    +0.000 F 
BRANCH   8  16
ATOM     15  N   UNL     1      -2.394   0.620  -2.801  0.00  0.00    +0.000 NA
ATOM     16  C   UNL     1      -1.339   0.510  -2.325  0.00  0.00    +0.000 C 
ENDBRANCH   8  16
ENDBRANCH   7  11
ENDBRANCH   2   7
ENDBRANCH   1   5
BRANCH   1  17
ATOM     17  N   UNL     1       6.181   4.525  -2.301  0.00  0.00    +0.000 N 
ATOM     18  C   UNL     1       5.740   5.765  -1.931  0.00  0.00    +0.000 C 
ATOM     19  O   UNL     1       5.894   6.204  -0.794  0.00  0.00    +0.000 OA
ATOM     20  H   UNL     1       6.060   4.192  -3.251  0.00  0.00    +0.000 HD
BRANCH  18  21
ATOM     21  C   UNL     1       5.059   6.556  -2.961  0.00  0.00    +0.000 A 
ATOM     22  C   UNL     1       4.145   7.532  -2.589  0.00  0.00    +0.000 A 
ATOM     23  S   UNL     1       3.537   8.432  -3.903  0.00  0.00    +0.000 S 
ATOM     24  C   UNL     1       4.518   7.584  -5.005  0.00  0.00    +0.000 A 
ATOM     25  N   UNL     1       4.570   7.944  -6.316  0.00  0.00    +0.000 NA
ATOM     26  C   UNL     1       5.348   7.210  -7.039  0.00  0.00    +0.000 A 
ATOM     27  N   UNL     1       6.051   6.127  -6.577  0.00  0.00    +0.000 N 
ATOM     28  C   UNL     1       6.016   5.715  -5.265  0.00  0.00    +0.000 A 
ATOM     29  O   UNL     1       6.600   4.700  -4.899  0.00  0.00    +0.000 OA
ATOM     30  C   UNL     1       5.212   6.554  -4.396  0.00  0.00    +0.000 A 
ATOM     31  H   UNL     1       6.599   5.561  -7.208  0.00  0.00    +0.000 HD
ENDBRANCH  18  21
ENDBRANCH   1  17
TORSDOF 6
