REMARK  Name = 
REMARK  10 active torsions:
REMARK  status: ('A' for Active; 'I' for Inactive)
REMARK    1  A    between atoms: C_1  and  O_2
REMARK    2  A    between atoms: O_2  and  C_3
REMARK    3  A    between atoms: C_10  and  C_11
REMARK    4  A    between atoms: N_13  and  C_14
REMARK    5  A    between atoms: C_14  and  C_15
REMARK    6  A    between atoms: C_18  and  N_19
REMARK    7  A    between atoms: N_19  and  C_20
REMARK    8  A    between atoms: C_20  and  C_21
REMARK    9  A    between atoms: C_21  and  C_22
REMARK   10  A    between atoms: C_26  and  C_27
REMARK                            x       y       z     vdW  Elec       q    Type
REMARK                         _______ _______ _______ _____ _____    ______ ____
ROOT
ATOM      1  C   UNL     1       1.674  -0.810  -3.138  0.00  0.00    +0.000 A 
ATOM      2  C   UNL     1       1.796  -2.203  -3.152  0.00  0.00    +0.000 A 
ATOM      3  C   UNL     1       0.687  -3.020  -2.899  0.00  0.00    +0.000 A 
ATOM      4  C   UNL     1      -0.568  -2.471  -2.608  0.00  0.00    +0.000 A 
ATOM      5  C   UNL     1      -0.703  -1.082  -2.683  0.00  0.00    +0.000 A 
ATOM      6  C   UNL     1       0.403  -0.258  -2.934  0.00  0.00    +0.000 A 
ENDROOT
BRANCH   4   7
ATOM      7  N   UNL     1      -1.685  -3.234  -2.241  0.00  0.00    +0.000 N 
ATOM      8  H   UNL     1      -2.321  -3.370  -3.030  0.00  0.00    +0.000 HD
BRANCH   7   9
ATOM      9  C   UNL     1      -1.444  -4.465  -1.476  0.00  0.00    +0.000 C 
BRANCH   9  10
ATOM     10  C   UNL     1      -0.771  -4.149  -0.129  0.00  0.00    +0.000 C 
BRANCH  10  11
ATOM     11  C   UNL     1      -0.514  -5.384   0.693  0.00  0.00    +0.000 A 
ATOM     12  C   UNL     1      -1.465  -5.844   1.603  0.00  0.00    +0.000 A 
ATOM     13  C   UNL     1      -1.191  -6.994   2.324  0.00  0.00    +0.000 A 
ATOM     14  N   UNL     1      -0.047  -7.703   2.204  0.00  0.00    +0.000 NA
ATOM     15  C   UNL     1       0.875  -7.246   1.327  0.00  0.00    +0.000 A 
ATOM     16  C   UNL     1       2.151  -8.026   1.208  0.00  0.00    +0.000 C 
ATOM     17  C   UNL     1       0.678  -6.104   0.555  0.00  0.00    +0.000 A 
ENDBRANCH  10  11
ENDBRANCH   9  10
ENDBRANCH   7   9
ENDBRANCH   4   7
BRANCH   1  18
ATOM     18  C   UNL     1       2.886   0.069  -3.326  0.00  0.00    +0.000 C 
BRANCH  18  21
ATOM     19  C   UNL     1       4.207   1.069  -5.159  0.00  0.00    +0.000 C 
ATOM     20  O   UNL     1       5.005   1.575  -4.361  0.00  0.00    +0.000 OA
ATOM     21  N   UNL     1       3.148   0.320  -4.722  0.00  0.00    +0.000 N 
ATOM     22  H   UNL     1       2.433   0.041  -5.381  0.00  0.00    +0.000 HD
BRANCH  19  30
ATOM     23  C   UNL     1       2.423  -0.066  -7.872  0.00  0.00    +0.000 A 
ATOM     24  N   UNL     1       1.974  -0.444  -9.086  0.00  0.00    +0.000 NA
ATOM     25  C   UNL     1       2.637  -0.033 -10.164  0.00  0.00    +0.000 A 
ATOM     26  N   UNL     1       3.726   0.727 -10.185  0.00  0.00    +0.000 NA
ATOM     27  C   UNL     1       4.157   1.064  -8.956  0.00  0.00    +0.000 A 
ATOM     28  S   UNL     1       5.530   2.049  -8.789  0.00  0.00    +0.000 S 
ATOM     29  C   UNL     1       5.425   1.996  -7.092  0.00  0.00    +0.000 A 
ATOM     30  C   UNL     1       4.364   1.236  -6.613  0.00  0.00    +0.000 A 
ATOM     31  C   UNL     1       3.589   0.705  -7.736  0.00  0.00    +0.000 A 
BRANCH  23  33
ATOM     32  C   UNL     1       0.478  -1.119  -7.116  0.00  0.00    +0.000 C 
ATOM     33  O   UNL     1       1.674  -0.423  -6.770  0.00  0.00    +0.000 OA
ENDBRANCH  23  33
ENDBRANCH  19  30
ENDBRANCH  18  21
ENDBRANCH   1  18
TORSDOF 8
