REMARK  Name = 
REMARK  5 active torsions:
REMARK  status: ('A' for Active; 'I' for Inactive)
REMARK    1  A    between atoms: C_2  and  C_4
REMARK    2  A    between atoms: C_7  and  N_8
REMARK    3  A    between atoms: N_8  and  C_9
REMARK    4  A    between atoms: C_9  and  C_10
REMARK    5  A    between atoms: C_15  and  C_16
REMARK                            x       y       z     vdW  Elec       q    Type
REMARK                         _______ _______ _______ _____ _____    ______ ____
ROOT
ATOM      1  C   UNL     1       5.863   2.232   6.877  0.00  0.00    +0.000 A 
ATOM      2  C   UNL     1       5.970   3.623   6.907  0.00  0.00    +0.000 A 
ATOM      3  C   UNL     1       6.754   4.243   7.876  0.00  0.00    +0.000 A 
ATOM      4  C   UNL     1       7.436   3.484   8.839  0.00  0.00    +0.000 A 
ATOM      5 CL   UNL     1       8.452   4.390   9.913  0.00  0.00    +0.000 Cl
ATOM      6  C   UNL     1       7.316   2.077   8.881  0.00  0.00    +0.000 A 
ATOM      7  C   UNL     1       6.533   1.480   7.860  0.00  0.00    +0.000 A 
ENDROOT
BRANCH   6   8
ATOM      8  C   UNL     1       7.900   1.205   9.938  0.00  0.00    +0.000 A 
ATOM      9  C   UNL     1       7.883   1.560  11.294  0.00  0.00    +0.000 A 
ATOM     10  C   UNL     1       8.393   0.683  12.239  0.00  0.00    +0.000 A 
ATOM     11  N   UNL     1       8.875  -0.541  11.947  0.00  0.00    +0.000 NA
ATOM     12  C   UNL     1       8.869  -0.900  10.658  0.00  0.00    +0.000 A 
ATOM     13  N   UNL     1       9.265  -2.206  10.379  0.00  0.00    +0.000 N 
ATOM     14  C   UNL     1       8.418  -0.066   9.640  0.00  0.00    +0.000 A 
ATOM     15  H   UNL     1       9.588  -2.610  11.255  0.00  0.00    +0.000 HD
ATOM     16  H   UNL     1       9.965  -2.250   9.651  0.00  0.00    +0.000 HD
ENDBRANCH   6   8
BRANCH   1  17
ATOM     17  C   UNL     1       4.959   1.561   5.869  0.00  0.00    +0.000 C 
BRANCH  17  18
ATOM     18  N   UNL     1       5.695   0.671   4.987  0.00  0.00    +0.000 N 
ATOM     19  H   UNL     1       6.596   1.031   4.681  0.00  0.00    +0.000 HD
BRANCH  18  23
ATOM     20  C   UNL     1       3.674  -1.609   2.047  0.00  0.00    +0.000 A 
ATOM     21  C   UNL     1       2.948  -0.754   2.875  0.00  0.00    +0.000 A 
ATOM     22  C   UNL     1       3.610   0.024   3.833  0.00  0.00    +0.000 A 
ATOM     23  C   UNL     1       5.005  -0.007   3.971  0.00  0.00    +0.000 A 
ATOM     24  C   UNL     1       5.718  -0.874   3.133  0.00  0.00    +0.000 A 
ATOM     25  C   UNL     1       5.063  -1.673   2.184  0.00  0.00    +0.000 A 
BRANCH  20  27
ATOM     26  N   UNL     1       1.790  -2.096   0.578  0.00  0.00    +0.000 N 
ATOM     27  C   UNL     1       3.002  -2.500   1.064  0.00  0.00    +0.000 C 
ATOM     28  O   UNL     1       3.518  -3.541   0.680  0.00  0.00    +0.000 OA
ATOM     29  H   UNL     1       1.386  -2.669  -0.153  0.00  0.00    +0.000 HD
ATOM     30  H   UNL     1       1.452  -1.148   0.674  0.00  0.00    +0.000 HD
ENDBRANCH  20  27
ENDBRANCH  18  23
ENDBRANCH  17  18
ENDBRANCH   1  17
TORSDOF 5
