REMARK  Name = 
REMARK  7 active torsions:
REMARK  status: ('A' for Active; 'I' for Inactive)
REMARK    1  A    between atoms: C_1  and  C_2
REMARK    2  A    between atoms: C_2  and  C_3
REMARK    3  A    between atoms: C_2  and  C_18
REMARK    4  A    between atoms: C_3  and  N_4
REMARK    5  A    between atoms: C_10  and  N_11
REMARK    6  A    between atoms: N_11  and  O_12
REMARK    7  A    between atoms: N_11  and  C_13
REMARK                            x       y       z     vdW  Elec       q    Type
REMARK                         _______ _______ _______ _____ _____    ______ ____
ROOT
ATOM      1  N   UNL     1       2.562  -1.422  -1.980  0.00  0.00    +0.000 N 
ATOM      2  C   UNL     1       3.053  -1.588  -3.267  0.00  0.00    +0.000 A 
ATOM      3  N   UNL     1       4.213  -1.031  -3.636  0.00  0.00    +0.000 NA
ATOM      4  C   UNL     1       4.609  -1.232  -4.908  0.00  0.00    +0.000 A 
ATOM      5  C   UNL     1       3.876  -1.941  -5.823  0.00  0.00    +0.000 A 
ATOM      6  F   UNL     1       4.336  -2.119  -7.069  0.00  0.00    +0.000 F 
ATOM      7  C   UNL     1       2.673  -2.456  -5.379  0.00  0.00    +0.000 A 
ATOM      8  N   UNL     1       2.283  -2.313  -4.087  0.00  0.00    +0.000 NA
ATOM      9  H   UNL     1       1.562  -1.593  -2.041  0.00  0.00    +0.000 HD
ENDROOT
BRANCH   1  10
ATOM     10  C   UNL     1       2.941  -0.174  -1.329  0.00  0.00    +0.000 C 
BRANCH  10  12
ATOM     11  C   UNL     1       3.101  -1.209   0.991  0.00  0.00    +0.000 C 
ATOM     12  C   UNL     1       2.441  -0.119   0.134  0.00  0.00    +0.000 C 
BRANCH  12  13
ATOM     13  C   UNL     1       0.926  -0.097   0.232  0.00  0.00    +0.000 A 
ATOM     14  C   UNL     1       0.160  -1.251   0.396  0.00  0.00    +0.000 A 
ATOM     15  N   UNL     1      -1.190  -1.266   0.489  0.00  0.00    +0.000 NA
ATOM     16  C   UNL     1      -1.819  -0.069   0.418  0.00  0.00    +0.000 A 
ATOM     17  C   UNL     1      -1.158   1.134   0.245  0.00  0.00    +0.000 A 
ATOM     18 CL   UNL     1      -2.024   2.613   0.157  0.00  0.00    +0.000 Cl
ATOM     19  C   UNL     1       0.231   1.119   0.145  0.00  0.00    +0.000 A 
ENDBRANCH  12  13
ENDBRANCH  10  12
ENDBRANCH   1  10
BRANCH   7  20
ATOM     20  N   UNL     1       1.771  -3.147  -6.220  0.00  0.00    +0.000 N 
BRANCH  20  21
ATOM     21  C   UNL     1       1.741  -3.209  -7.657  0.00  0.00    +0.000 C 
ATOM     22  C   UNL     1       1.923  -1.870  -8.391  0.00  0.00    +0.000 C 
ATOM     23  O   UNL     1       0.650  -2.002  -9.063  0.00  0.00    +0.000 OA
ATOM     24  C   UNL     1       0.307  -3.126  -8.216  0.00  0.00    +0.000 C 
ENDBRANCH  20  21
BRANCH  20  25
ATOM     25  O   UNL     1       0.954  -4.128  -5.630  0.00  0.00    +0.000 OA
ATOM     26  H   UNL     1       1.011  -3.912  -4.675  0.00  0.00    +0.000 HD
ENDBRANCH  20  25
ENDBRANCH   7  20
TORSDOF 6
