REMARK  Name = 
REMARK  9 active torsions:
REMARK  status: ('A' for Active; 'I' for Inactive)
REMARK    1  A    between atoms: C_1  and  C_2
REMARK    2  A    between atoms: C_3  and  O_4
REMARK    3  A    between atoms: O_4  and  C_5
REMARK    4  A    between atoms: C_12  and  C_13
REMARK    5  A    between atoms: C_13  and  C_14
REMARK    6  A    between atoms: C_13  and  C_15
REMARK    7  A    between atoms: C_15  and  N_16
REMARK    8  A    between atoms: N_16  and  C_17
REMARK    9  A    between atoms: C_20  and  C_21
REMARK                            x       y       z     vdW  Elec       q    Type
REMARK                         _______ _______ _______ _____ _____    ______ ____
ROOT
ATOM      1  C   UNL     1       0.924  -2.669   0.307  0.00  0.00    +0.000 C 
ATOM      2  C   UNL     1       0.161  -1.413   0.755  0.00  0.00    +0.000 C 
ENDROOT
BRANCH   1   9
ATOM      3  C   UNL     1       0.477  -5.646  -0.000  0.00  0.00    +0.000 C 
ATOM      4  C   UNL     1       0.204  -4.685  -1.126  0.00  0.00    +0.000 A 
ATOM      5  C   UNL     1      -0.196  -5.167  -2.390  0.00  0.00    +0.000 A 
ATOM      6  C   UNL     1      -0.536  -4.268  -3.392  0.00  0.00    +0.000 A 
ATOM      7  C   UNL     1      -0.410  -2.920  -3.124  0.00  0.00    +0.000 A 
ATOM      8  N   UNL     1       0.029  -2.418  -1.953  0.00  0.00    +0.000 NA
ATOM      9  C   UNL     1       0.352  -3.291  -0.964  0.00  0.00    +0.000 A 
BRANCH   5  10
ATOM     10  O   UNL     1      -0.216  -6.537  -2.565  0.00  0.00    +0.000 OA
BRANCH  10  11
ATOM     11  C   UNL     1      -0.423  -7.099  -3.885  0.00  0.00    +0.000 C 
ATOM     12  C   UNL     1      -0.150  -8.618  -3.988  0.00  0.00    +0.000 C 
ATOM     13  C   UNL     1       0.897  -8.371  -5.077  0.00  0.00    +0.000 C 
ATOM     14  C   UNL     1       0.673  -6.864  -4.949  0.00  0.00    +0.000 C 
ENDBRANCH  10  11
ENDBRANCH   5  10
ENDBRANCH   1   9
BRANCH   1  15
ATOM     15  C   UNL     1       2.453  -2.439   0.210  0.00  0.00    +0.000 C 
BRANCH  15  16
ATOM     16  N   UNL     1       2.830  -1.361  -0.706  0.00  0.00    +0.000 N 
ATOM     17  H   UNL     1       2.211  -0.557  -0.677  0.00  0.00    +0.000 HD
BRANCH  16  18
ATOM     18  C   UNL     1       4.163  -1.019  -0.914  0.00  0.00    +0.000 A 
ATOM     19  C   UNL     1       5.219  -1.925  -0.777  0.00  0.00    +0.000 A 
ATOM     20  C   UNL     1       6.531  -1.564  -1.104  0.00  0.00    +0.000 A 
ATOM     21  C   UNL     1       6.809  -0.289  -1.601  0.00  0.00    +0.000 A 
ATOM     22  C   UNL     1       5.769   0.633  -1.742  0.00  0.00    +0.000 A 
ATOM     23  C   UNL     1       4.460   0.259  -1.414  0.00  0.00    +0.000 A 
BRANCH  21  24
ATOM     24  C   UNL     1       8.211   0.034  -1.972  0.00  0.00    +0.000 C 
ATOM     25  N   UNL     1       8.401   1.008  -2.912  0.00  0.00    +0.000 N 
ATOM     26  O   UNL     1       9.162  -0.574  -1.496  0.00  0.00    +0.000 OA
ATOM     27  H   UNL     1       7.654   1.333  -3.507  0.00  0.00    +0.000 HD
ATOM     28  H   UNL     1       9.349   1.121  -3.247  0.00  0.00    +0.000 HD
ENDBRANCH  21  24
ENDBRANCH  16  18
ENDBRANCH  15  16
ENDBRANCH   1  15
TORSDOF 7
