REMARK  Name = 
REMARK  8 active torsions:
REMARK  status: ('A' for Active; 'I' for Inactive)
REMARK    1  A    between atoms: C_1  and  C_2
REMARK    2  A    between atoms: C_2  and  O_3
REMARK    3  A    between atoms: C_2  and  C_16
REMARK    4  A    between atoms: O_3  and  C_4
REMARK    5  A    between atoms: C_7  and  S_8
REMARK    6  A    between atoms: S_8  and  C_11
REMARK    7  A    between atoms: C_11  and  C_12
REMARK    8  A    between atoms: C_12  and  O_13
REMARK                            x       y       z     vdW  Elec       q    Type
REMARK                         _______ _______ _______ _____ _____    ______ ____
ROOT
ATOM      1  C   UNL     1       0.353   1.171   0.589  0.00  0.00    +0.000 A 
ATOM      2  C   UNL     1       0.993   2.224   1.256  0.00  0.00    +0.000 A 
ATOM      3  C   UNL     1       0.331   3.447   1.432  0.00  0.00    +0.000 A 
ATOM      4  C   UNL     1      -0.978   3.597   0.977  0.00  0.00    +0.000 A 
ATOM      5  C   UNL     1      -1.661   2.498   0.444  0.00  0.00    +0.000 A 
ATOM      6  C   UNL     1      -0.987   1.296   0.253  0.00  0.00    +0.000 A 
ENDROOT
BRANCH   4   7
ATOM      7  S   UNL     1      -1.848   5.154   1.004  0.00  0.00    +0.000 S 
ATOM      8  O   UNL     1      -3.108   4.975   0.353  0.00  0.00    +0.000 OA
ATOM      9  O   UNL     1      -1.796   5.620   2.375  0.00  0.00    +0.000 OA
BRANCH   7  10
ATOM     10  C   UNL     1      -0.874   6.264   0.002  0.00  0.00    +0.000 C 
BRANCH  10  11
ATOM     11  C   UNL     1      -1.526   7.629  -0.051  0.00  0.00    +0.000 C 
BRANCH  11  12
ATOM     12  O   UNL     1      -0.740   8.500  -0.865  0.00  0.00    +0.000 OA
ATOM     13  H   UNL     1       0.051   8.752  -0.360  0.00  0.00    +0.000 HD
ENDBRANCH  11  12
ENDBRANCH  10  11
ENDBRANCH   7  10
ENDBRANCH   4   7
BRANCH   1  14
ATOM     14  O   UNL     1       1.113   0.100   0.181  0.00  0.00    +0.000 OA
BRANCH  14  16
ATOM     15  C   UNL     1       1.411  -1.966  -0.992  0.00  0.00    +0.000 C 
ATOM     16  C   UNL     1       0.433  -1.135  -0.142  0.00  0.00    +0.000 C 
BRANCH  16  17
ATOM     17  C   UNL     1       0.031  -1.933   1.101  0.00  0.00    +0.000 A 
ATOM     18  C   UNL     1      -1.049  -2.830   1.063  0.00  0.00    +0.000 A 
ATOM     19  C   UNL     1      -1.155  -3.857   2.002  0.00  0.00    +0.000 A 
ATOM     20  C   UNL     1      -0.272  -3.913   3.079  0.00  0.00    +0.000 A 
ATOM     21  C   UNL     1       0.667  -2.899   3.241  0.00  0.00    +0.000 A 
ATOM     22  C   UNL     1       0.833  -1.926   2.252  0.00  0.00    +0.000 A 
ENDBRANCH  16  17
ENDBRANCH  14  16
ENDBRANCH   1  14
TORSDOF 7
