REMARK  Name = 
REMARK  5 active torsions:
REMARK  status: ('A' for Active; 'I' for Inactive)
REMARK    1  A    between atoms: C_2  and  C_4
REMARK    2  A    between atoms: C_7  and  N_8
REMARK    3  A    between atoms: N_8  and  C_9
REMARK    4  A    between atoms: C_9  and  C_10
REMARK    5  A    between atoms: C_14  and  C_15
REMARK                            x       y       z     vdW  Elec       q    Type
REMARK                         _______ _______ _______ _____ _____    ______ ____
ROOT
ATOM      1  N   UNL     1       5.653   4.057   2.629  0.00  0.00    +0.000 N 
ATOM      2  H   UNL     1       6.222   4.460   1.887  0.00  0.00    +0.000 HD
ENDROOT
BRANCH   1   6
ATOM      3  C   UNL     1       3.715   0.459   1.552  0.00  0.00    +0.000 A 
ATOM      4  C   UNL     1       3.018   1.424   2.278  0.00  0.00    +0.000 A 
ATOM      5  C   UNL     1       3.643   2.627   2.618  0.00  0.00    +0.000 A 
ATOM      6  C   UNL     1       4.958   2.911   2.224  0.00  0.00    +0.000 A 
ATOM      7  C   UNL     1       5.645   1.928   1.497  0.00  0.00    +0.000 A 
ATOM      8  C   UNL     1       5.035   0.709   1.169  0.00  0.00    +0.000 A 
BRANCH   3  10
ATOM      9  N   UNL     1       1.740  -0.894   1.114  0.00  0.00    +0.000 N 
ATOM     10  C   UNL     1       3.097  -0.854   1.231  0.00  0.00    +0.000 C 
ATOM     11  O   UNL     1       3.778  -1.858   1.057  0.00  0.00    +0.000 OA
ATOM     12  H   UNL     1       1.336  -1.776   0.822  0.00  0.00    +0.000 HD
ATOM     13  H   UNL     1       1.175  -0.063   1.011  0.00  0.00    +0.000 HD
ENDBRANCH   3  10
ENDBRANCH   1   6
BRANCH   1  14
ATOM     14  C   UNL     1       4.960   5.041   3.448  0.00  0.00    +0.000 C 
BRANCH  14  15
ATOM     15  C   UNL     1       5.840   6.216   3.787  0.00  0.00    +0.000 A 
ATOM     16  C   UNL     1       5.443   7.508   3.414  0.00  0.00    +0.000 A 
ATOM     17  C   UNL     1       6.176   8.617   3.823  0.00  0.00    +0.000 A 
ATOM     18  C   UNL     1       7.305   8.448   4.623  0.00  0.00    +0.000 A 
ATOM     19  C   UNL     1       7.719   7.168   5.025  0.00  0.00    +0.000 A 
ATOM     20  C   UNL     1       6.991   6.055   4.576  0.00  0.00    +0.000 A 
BRANCH  19  21
ATOM     21  C   UNL     1       8.865   6.988   6.006  0.00  0.00    +0.000 C 
ATOM     22  C   UNL     1       8.523   7.640   7.357  0.00  0.00    +0.000 C 
ATOM     23  C   UNL     1       9.703   7.579   8.313  0.00  0.00    +0.000 C 
ATOM     24  O   UNL     1      10.864   8.155   7.718  0.00  0.00    +0.000 OA
ATOM     25  C   UNL     1      11.275   7.447   6.549  0.00  0.00    +0.000 C 
ATOM     26  C   UNL     1      10.202   7.521   5.470  0.00  0.00    +0.000 C 
ENDBRANCH  19  21
ENDBRANCH  14  15
ENDBRANCH   1  14
TORSDOF 5
