REMARK  Name = 
REMARK  7 active torsions:
REMARK  status: ('A' for Active; 'I' for Inactive)
REMARK    1  A    between atoms: C_1  and  O_2
REMARK    2  A    between atoms: O_2  and  C_3
REMARK    3  A    between atoms: C_5  and  C_6
REMARK    4  A    between atoms: C_6  and  C_7
REMARK    5  A    between atoms: N_9  and  C_10
REMARK    6  A    between atoms: C_14  and  C_15
REMARK    7  A    between atoms: C_22  and  O_23
REMARK                            x       y       z     vdW  Elec       q    Type
REMARK                         _______ _______ _______ _____ _____    ______ ____
ROOT
ATOM      1  C   UNL     1       1.196   4.748   0.040  0.00  0.00    +0.000 A 
ATOM      2  C   UNL     1       0.419   4.175   1.036  0.00  0.00    +0.000 A 
ATOM      3  N   UNL     1      -0.894   4.215   0.640  0.00  0.00    +0.000 N 
ATOM      4  C   UNL     1      -2.009   3.651   1.364  0.00  0.00    +0.000 C 
ATOM      5  C   UNL     1      -0.999   4.859  -0.565  0.00  0.00    +0.000 A 
ATOM      6  N   UNL     1      -2.149   5.099  -1.228  0.00  0.00    +0.000 NA
ATOM      7  C   UNL     1      -1.956   5.756  -2.402  0.00  0.00    +0.000 A 
ATOM      8  C   UNL     1      -0.730   6.170  -2.921  0.00  0.00    +0.000 A 
ATOM      9  C   UNL     1       0.425   5.891  -2.187  0.00  0.00    +0.000 A 
ATOM     10  C   UNL     1       0.287   5.209  -0.965  0.00  0.00    +0.000 A 
ENDROOT
BRANCH   8  11
ATOM     11  C   UNL     1      -0.716   6.880  -4.222  0.00  0.00    +0.000 C 
ATOM     12  N   UNL     1       0.485   7.296  -4.731  0.00  0.00    +0.000 N 
ATOM     13  O   UNL     1      -1.751   7.100  -4.838  0.00  0.00    +0.000 OA
ATOM     14  H   UNL     1       1.381   7.193  -4.284  0.00  0.00    +0.000 HD
ATOM     15  H   UNL     1       0.455   7.794  -5.612  0.00  0.00    +0.000 HD
ENDBRANCH   8  11
BRANCH   1  16
ATOM     16  C   UNL     1       2.684   4.891   0.025  0.00  0.00    +0.000 C 
BRANCH  16  19
ATOM     17  C   UNL     1       3.914   2.307  -2.526  0.00  0.00    +0.000 A 
ATOM     18  C   UNL     1       3.424   3.494  -1.970  0.00  0.00    +0.000 A 
ATOM     19  C   UNL     1       3.228   3.616  -0.578  0.00  0.00    +0.000 A 
ATOM     20  C   UNL     1       3.540   2.527   0.248  0.00  0.00    +0.000 A 
ATOM     21  C   UNL     1       4.035   1.342  -0.294  0.00  0.00    +0.000 A 
ATOM     22  C   UNL     1       4.216   1.238  -1.672  0.00  0.00    +0.000 A 
BRANCH  17  24
ATOM     23  C   UNL     1       3.811   3.134  -4.765  0.00  0.00    +0.000 C 
ATOM     24  O   UNL     1       4.131   2.088  -3.861  0.00  0.00    +0.000 OA
ENDBRANCH  17  24
BRANCH  22  25
ATOM     25  O   UNL     1       4.698   0.071  -2.205  0.00  0.00    +0.000 OA
ATOM     26  H   UNL     1       4.807  -0.579  -1.494  0.00  0.00    +0.000 HD
ENDBRANCH  22  25
ENDBRANCH  16  19
ENDBRANCH   1  16
TORSDOF 5
