REMARK  Name = 
REMARK  8 active torsions:
REMARK  status: ('A' for Active; 'I' for Inactive)
REMARK    1  A    between atoms: C_1  and  O_2
REMARK    2  A    between atoms: O_2  and  C_3
REMARK    3  A    between atoms: C_5  and  C_6
REMARK    4  A    between atoms: C_6  and  N_7
REMARK    5  A    between atoms: C_8  and  C_10
REMARK    6  A    between atoms: C_17  and  C_18
REMARK    7  A    between atoms: C_18  and  N_19
REMARK    8  A    between atoms: C_20  and  C_22
REMARK                            x       y       z     vdW  Elec       q    Type
REMARK                         _______ _______ _______ _____ _____    ______ ____
ROOT
ATOM      1  C   UNL     1       2.980   0.666  -0.986  0.00  0.00    +0.000 A 
ATOM      2  C   UNL     1       2.631   1.983  -1.323  0.00  0.00    +0.000 A 
ATOM      3  C   UNL     1       3.325   2.684  -2.321  0.00  0.00    +0.000 A 
ATOM      4  C   UNL     1       4.370   2.047  -2.995  0.00  0.00    +0.000 A 
ATOM      5  C   UNL     1       4.730   0.742  -2.660  0.00  0.00    +0.000 A 
ATOM      6  C   UNL     1       4.051   0.039  -1.650  0.00  0.00    +0.000 A 
ENDROOT
BRANCH   1   8
ATOM      7  C   UNL     1       1.022   0.343   0.320  0.00  0.00    +0.000 C 
ATOM      8  O   UNL     1       2.351  -0.056  -0.005  0.00  0.00    +0.000 OA
ENDBRANCH   1   8
BRANCH   3   9
ATOM      9  C   UNL     1       2.909   4.079  -2.701  0.00  0.00    +0.000 C 
BRANCH   9  10
ATOM     10  N   UNL     1       1.926   4.047  -3.758  0.00  0.00    +0.000 N 
ATOM     11  C   UNL     1       1.356   5.198  -4.244  0.00  0.00    +0.000 C 
ATOM     12  O   UNL     1       1.615   6.305  -3.785  0.00  0.00    +0.000 OA
ATOM     13  H   UNL     1       1.750   3.161  -4.210  0.00  0.00    +0.000 HD
BRANCH  11  14
ATOM     14  C   UNL     1       0.437   5.015  -5.336  0.00  0.00    +0.000 A 
ATOM     15  C   UNL     1      -0.044   3.901  -5.993  0.00  0.00    +0.000 A 
ATOM     16  N   UNL     1      -0.924   4.245  -6.989  0.00  0.00    +0.000 NA
ATOM     17  C   UNL     1      -0.987   5.555  -6.952  0.00  0.00    +0.000 A 
ATOM     18  N   UNL     1      -0.190   6.064  -5.970  0.00  0.00    +0.000 N 
ATOM     19  H   UNL     1      -0.065   7.041  -5.737  0.00  0.00    +0.000 HD
ENDBRANCH  11  14
ENDBRANCH   9  10
ENDBRANCH   3   9
BRANCH   6  20
ATOM     20  C   UNL     1       4.472  -1.375  -1.339  0.00  0.00    +0.000 C 
BRANCH  20  21
ATOM     21  N   UNL     1       3.732  -2.345  -2.112  0.00  0.00    +0.000 N 
ATOM     22  C   UNL     1       4.177  -2.855  -3.302  0.00  0.00    +0.000 C 
ATOM     23  O   UNL     1       5.263  -2.553  -3.790  0.00  0.00    +0.000 OA
ATOM     24  H   UNL     1       2.758  -2.458  -1.848  0.00  0.00    +0.000 HD
BRANCH  22  25
ATOM     25  C   UNL     1       3.323  -3.883  -3.921  0.00  0.00    +0.000 A 
ATOM     26  C   UNL     1       3.876  -4.810  -4.796  0.00  0.00    +0.000 A 
ATOM     27  S   UNL     1       2.761  -5.976  -5.353  0.00  0.00    +0.000 S 
ATOM     28  C   UNL     1       1.488  -5.256  -4.484  0.00  0.00    +0.000 A 
ATOM     29  N   UNL     1       0.232  -5.778  -4.520  0.00  0.00    +0.000 NA
ATOM     30  C   UNL     1      -0.641  -5.113  -3.841  0.00  0.00    +0.000 A 
ATOM     31  N   UNL     1      -0.373  -3.973  -3.129  0.00  0.00    +0.000 N 
ATOM     32  C   UNL     1       0.883  -3.423  -3.044  0.00  0.00    +0.000 A 
ATOM     33  O   UNL     1       1.090  -2.422  -2.366  0.00  0.00    +0.000 OA
ATOM     34  C   UNL     1       1.904  -4.136  -3.784  0.00  0.00    +0.000 A 
ATOM     35  H   UNL     1      -1.103  -3.498  -2.616  0.00  0.00    +0.000 HD
ENDBRANCH  22  25
ENDBRANCH  20  21
ENDBRANCH   6  20
TORSDOF 7
