REMARK  Name = 
REMARK  6 active torsions:
REMARK  status: ('A' for Active; 'I' for Inactive)
REMARK    1  A    between atoms: C_2  and  O_3
REMARK    2  A    between atoms: C_2  and  C_4
REMARK    3  A    between atoms: C_4  and  C_5
REMARK    4  A    between atoms: C_5  and  C_6
REMARK    5  A    between atoms: C_9  and  C_10
REMARK    6  A    between atoms: C_10  and  N_11
REMARK                            x       y       z     vdW  Elec       q    Type
REMARK                         _______ _______ _______ _____ _____    ______ ____
ROOT
ATOM      1  C   UNL     1       5.230   2.381  -0.153  0.00  0.00    +0.000 A 
ATOM      2  C   UNL     1       4.595   3.627  -0.230  0.00  0.00    +0.000 A 
ATOM      3  C   UNL     1       5.341   4.814  -0.203  0.00  0.00    +0.000 A 
ATOM      4  C   UNL     1       6.738   4.781  -0.093  0.00  0.00    +0.000 A 
ATOM      5  C   UNL     1       7.372   3.533  -0.031  0.00  0.00    +0.000 A 
ATOM      6  C   UNL     1       6.628   2.349  -0.065  0.00  0.00    +0.000 A 
ENDROOT
BRANCH   1   7
ATOM      7  C   UNL     1       4.439   1.096  -0.068  0.00  0.00    +0.000 C 
BRANCH   7   8
ATOM      8  C   UNL     1       3.583   0.793  -1.297  0.00  0.00    +0.000 C 
BRANCH   8  10
ATOM      9  O   UNL     1       2.991  -1.284  -0.182  0.00  0.00    +0.000 OA
ATOM     10  C   UNL     1       2.898  -0.544  -1.148  0.00  0.00    +0.000 C 
BRANCH  10  11
ATOM     11  O   UNL     1       2.130  -0.864  -2.223  0.00  0.00    +0.000 OA
ATOM     12  H   UNL     1       2.141  -0.185  -2.926  0.00  0.00    +0.000 HD
ENDBRANCH  10  11
ENDBRANCH   8  10
ENDBRANCH   7   8
ENDBRANCH   1   7
BRANCH   4  13
ATOM     13  C   UNL     1       7.548   6.055   0.063  0.00  0.00    +0.000 C 
BRANCH  13  14
ATOM     14  N   UNL     1       7.793   6.332   1.475  0.00  0.00    +0.000 N 
ATOM     15  N   UNL     1       8.896   5.821   2.073  0.00  0.00    +0.000 NA
ATOM     16  C   UNL     1       8.557   5.799   3.365  0.00  0.00    +0.000 A 
ATOM     17  C   UNL     1       7.287   6.369   3.605  0.00  0.00    +0.000 A 
ATOM     18  C   UNL     1       6.440   6.528   4.715  0.00  0.00    +0.000 A 
ATOM     19  C   UNL     1       5.250   7.251   4.557  0.00  0.00    +0.000 A 
ATOM     20  C   UNL     1       4.934   7.836   3.331  0.00  0.00    +0.000 A 
ATOM     21 CL   UNL     1       3.512   8.799   3.195  0.00  0.00    +0.000 Cl
ATOM     22  C   UNL     1       5.737   7.648   2.203  0.00  0.00    +0.000 A 
ATOM     23  C   UNL     1       6.889   6.867   2.367  0.00  0.00    +0.000 A 
ENDBRANCH  13  14
ENDBRANCH   4  13
TORSDOF 6
