REMARK  Name = 
REMARK  9 active torsions:
REMARK  status: ('A' for Active; 'I' for Inactive)
REMARK    1  A    between atoms: N_1  and  C_2
REMARK    2  A    between atoms: C_2  and  C_3
REMARK    3  A    between atoms: C_3  and  N_4
REMARK    4  A    between atoms: C_3  and  C_26
REMARK    5  A    between atoms: N_4  and  C_5
REMARK    6  A    between atoms: C_5  and  C_6
REMARK    7  A    between atoms: C_9  and  C_10
REMARK    8  A    between atoms: C_10  and  N_11
REMARK    9  A    between atoms: C_12  and  C_14
REMARK                            x       y       z     vdW  Elec       q    Type
REMARK                         _______ _______ _______ _____ _____    ______ ____
ROOT
ATOM      1  C   UNL     1       0.609   2.279   3.215  0.00  0.00    +0.000 A 
ATOM      2  C   UNL     1       0.307   1.270   4.140  0.00  0.00    +0.000 A 
ATOM      3  C   UNL     1      -0.069   1.595   5.444  0.00  0.00    +0.000 A 
ATOM      4  C   UNL     1      -0.139   2.934   5.849  0.00  0.00    +0.000 A 
ATOM      5  C   UNL     1       0.212   3.941   4.942  0.00  0.00    +0.000 A 
ATOM      6  C   UNL     1       0.572   3.617   3.636  0.00  0.00    +0.000 A 
ENDROOT
BRANCH   1   7
ATOM      7  C   UNL     1       0.977   1.955   1.783  0.00  0.00    +0.000 C 
BRANCH   7   8
ATOM      8  N   UNL     1      -0.104   1.237   1.118  0.00  0.00    +0.000 NA
ATOM      9  H   UNL     1      -0.301   0.392   1.650  0.00  0.00    +0.000 HD
BRANCH   8  10
ATOM     10  C   UNL     1       0.213   0.814  -0.266  0.00  0.00    +0.000 C 
BRANCH  10  11
ATOM     11  C   UNL     1      -0.930  -0.045  -0.830  0.00  0.00    +0.000 A 
ATOM     12  C   UNL     1      -2.264   0.245  -0.525  0.00  0.00    +0.000 A 
ATOM     13  C   UNL     1      -3.273  -0.563  -1.039  0.00  0.00    +0.000 A 
ATOM     14  C   UNL     1      -2.934  -1.629  -1.860  0.00  0.00    +0.000 A 
ATOM     15  C   UNL     1      -1.593  -1.844  -2.130  0.00  0.00    +0.000 A 
ATOM     16  N   UNL     1      -0.589  -1.084  -1.636  0.00  0.00    +0.000 NA
ENDBRANCH  10  11
BRANCH  10  17
ATOM     17  C   UNL     1       0.491   1.964  -1.287  0.00  0.00    +0.000 C 
BRANCH  17  18
ATOM     18  N   UNL     1       1.688   2.782  -1.027  0.00  0.00    +0.000 NA
ATOM     19  H   UNL     1       1.785   3.477  -1.764  0.00  0.00    +0.000 HD
ATOM     20  H   UNL     1       2.518   2.193  -1.061  0.00  0.00    +0.000 HD
ENDBRANCH  17  18
ENDBRANCH  10  17
ENDBRANCH   8  10
ENDBRANCH   7   8
ENDBRANCH   1   7
BRANCH   4  21
ATOM     21  C   UNL     1      -0.533   3.292   7.253  0.00  0.00    +0.000 C 
BRANCH  21  22
ATOM     22  N   UNL     1       0.622   3.338   8.110  0.00  0.00    +0.000 N 
ATOM     23  C   UNL     1       0.489   3.569   9.453  0.00  0.00    +0.000 C 
ATOM     24  O   UNL     1      -0.611   3.676   9.987  0.00  0.00    +0.000 OA
ATOM     25  H   UNL     1       1.526   3.457   7.662  0.00  0.00    +0.000 HD
BRANCH  23  26
ATOM     26  C   UNL     1       1.728   3.629  10.235  0.00  0.00    +0.000 A 
ATOM     27  C   UNL     1       1.686   3.370  11.598  0.00  0.00    +0.000 A 
ATOM     28  S   UNL     1       3.207   3.462  12.359  0.00  0.00    +0.000 S 
ATOM     29  C   UNL     1       3.972   3.893  10.902  0.00  0.00    +0.000 A 
ATOM     30  N   UNL     1       5.306   4.157  10.864  0.00  0.00    +0.000 NA
ATOM     31  C   UNL     1       5.750   4.496   9.701  0.00  0.00    +0.000 A 
ATOM     32  N   UNL     1       4.982   4.590   8.569  0.00  0.00    +0.000 N 
ATOM     33  C   UNL     1       3.637   4.305   8.552  0.00  0.00    +0.000 A 
ATOM     34  O   UNL     1       2.990   4.350   7.512  0.00  0.00    +0.000 OA
ATOM     35  C   UNL     1       3.083   3.936   9.845  0.00  0.00    +0.000 A 
ATOM     36  H   UNL     1       5.394   4.846   7.684  0.00  0.00    +0.000 HD
ENDBRANCH  23  26
ENDBRANCH  21  22
ENDBRANCH   4  21
TORSDOF 9
