REMARK  Name = 
REMARK  5 active torsions:
REMARK  status: ('A' for Active; 'I' for Inactive)
REMARK    1  A    between atoms: C_2  and  C_4
REMARK    2  A    between atoms: C_7  and  O_8
REMARK    3  A    between atoms: O_8  and  C_9
REMARK    4  A    between atoms: C_9  and  C_10
REMARK    5  A    between atoms: C_14  and  C_15
REMARK                            x       y       z     vdW  Elec       q    Type
REMARK                         _______ _______ _______ _____ _____    ______ ____
ROOT
ATOM      1  C   UNL     1       5.063   5.488   2.400  0.00  0.00    +0.000 C 
ENDROOT
BRANCH   1   2
ATOM      2  C   UNL     1       5.994   6.677   2.485  0.00  0.00    +0.000 A 
ATOM      3  N   UNL     1       7.038   6.597   3.333  0.00  0.00    +0.000 NA
ATOM      4  C   UNL     1       7.854   7.661   3.378  0.00  0.00    +0.000 A 
ATOM      5  C   UNL     1       7.669   8.792   2.617  0.00  0.00    +0.000 A 
ATOM      6  C   UNL     1       6.573   8.801   1.774  0.00  0.00    +0.000 A 
ATOM      7  N   UNL     1       5.722   7.751   1.713  0.00  0.00    +0.000 NA
BRANCH   6   8
ATOM      8  C   UNL     1       6.248   9.945   0.905  0.00  0.00    +0.000 A 
ATOM      9  C   UNL     1       7.225  10.795   0.365  0.00  0.00    +0.000 A 
ATOM     10  C   UNL     1       6.864  11.880  -0.434  0.00  0.00    +0.000 A 
ATOM     11  C   UNL     1       5.521  12.094  -0.683  0.00  0.00    +0.000 A 
ATOM     12  N   UNL     1       4.542  11.304  -0.201  0.00  0.00    +0.000 NA
ATOM     13  C   UNL     1       4.928  10.252   0.567  0.00  0.00    +0.000 A 
ENDBRANCH   6   8
ENDBRANCH   1   2
BRANCH   1  14
ATOM     14  O   UNL     1       5.506   4.601   1.368  0.00  0.00    +0.000 OA
BRANCH  14  18
ATOM     15  C   UNL     1       3.453   1.058   0.572  0.00  0.00    +0.000 A 
ATOM     16  C   UNL     1       2.977   1.889   1.592  0.00  0.00    +0.000 A 
ATOM     17  C   UNL     1       3.636   3.087   1.891  0.00  0.00    +0.000 A 
ATOM     18  C   UNL     1       4.774   3.462   1.176  0.00  0.00    +0.000 A 
ATOM     19  C   UNL     1       5.253   2.624   0.165  0.00  0.00    +0.000 A 
ATOM     20  C   UNL     1       4.602   1.424  -0.134  0.00  0.00    +0.000 A 
BRANCH  15  22
ATOM     21  N   UNL     1       1.441  -0.310   0.475  0.00  0.00    +0.000 N 
ATOM     22  C   UNL     1       2.784  -0.224   0.231  0.00  0.00    +0.000 C 
ATOM     23  O   UNL     1       3.394  -1.154  -0.279  0.00  0.00    +0.000 OA
ATOM     24  H   UNL     1       0.981  -1.145   0.135  0.00  0.00    +0.000 HD
ATOM     25  H   UNL     1       0.869   0.506   0.636  0.00  0.00    +0.000 HD
ENDBRANCH  15  22
ENDBRANCH  14  18
ENDBRANCH   1  14
TORSDOF 5
