REMARK  Name = 
REMARK  5 active torsions:
REMARK  status: ('A' for Active; 'I' for Inactive)
REMARK    1  A    between atoms: N_1  and  C_2
REMARK    2  A    between atoms: C_2  and  C_3
REMARK    3  A    between atoms: C_3  and  C_4
REMARK    4  A    between atoms: C_7  and  C_8
REMARK    5  A    between atoms: C_8  and  N_9
REMARK                            x       y       z     vdW  Elec       q    Type
REMARK                         _______ _______ _______ _____ _____    ______ ____
ROOT
ATOM      1  C   UNL     1      11.460   5.745   1.841  0.00  0.00    +0.000 A 
ATOM      2  C   UNL     1      10.451   4.791   1.987  0.00  0.00    +0.000 A 
ATOM      3  C   UNL     1      10.077   4.000   0.898  0.00  0.00    +0.000 A 
ATOM      4  C   UNL     1      10.708   4.194  -0.329  0.00  0.00    +0.000 A 
ATOM      5  N   UNL     1      11.730   5.077  -0.476  0.00  0.00    +0.000 NA
ATOM      6  C   UNL     1      12.088   5.809   0.603  0.00  0.00    +0.000 A 
ENDROOT
BRANCH   1   7
ATOM      7  C   UNL     1      11.851   6.673   2.964  0.00  0.00    +0.000 C 
BRANCH   7   8
ATOM      8  C   UNL     1      11.644   8.155   2.599  0.00  0.00    +0.000 C 
BRANCH   8   9
ATOM      9  N   UNL     1      12.038   9.046   3.687  0.00  0.00    +0.000 NA
ATOM     10  H   UNL     1      11.885  10.013   3.398  0.00  0.00    +0.000 HD
ATOM     11  H   UNL     1      13.041   8.964   3.856  0.00  0.00    +0.000 HD
ENDBRANCH   8   9
ENDBRANCH   7   8
ENDBRANCH   1   7
BRANCH   4  12
ATOM     12  C   UNL     1      10.223   3.470  -1.577  0.00  0.00    +0.000 C 
BRANCH  12  13
ATOM     13  N   UNL     1      10.851   2.173  -1.805  0.00  0.00    +0.000 N 
ATOM     14  C   UNL     1      12.238   1.943  -1.763  0.00  0.00    +0.000 C 
ATOM     15  C   UNL     1      12.545   0.803  -2.414  0.00  0.00    +0.000 C 
ATOM     16  N   UNL     1      11.394   0.291  -2.987  0.00  0.00    +0.000 N 
ATOM     17  C   UNL     1      11.250  -0.670  -3.955  0.00  0.00    +0.000 C 
ATOM     18  C   UNL     1       9.941  -0.859  -4.539  0.00  0.00    +0.000 C 
ATOM     19  C   UNL     1       8.907  -0.090  -4.134  0.00  0.00    +0.000 C 
ATOM     20  C   UNL     1       9.107   0.974  -3.157  0.00  0.00    +0.000 C 
ATOM     21  C   UNL     1      10.341   1.164  -2.637  0.00  0.00    +0.000 C 
ENDBRANCH  12  13
ENDBRANCH   4  12
TORSDOF 5
