REMARK  Name = 
REMARK  6 active torsions:
REMARK  status: ('A' for Active; 'I' for Inactive)
REMARK    1  A    between atoms: C_1  and  C_2
REMARK    2  A    between atoms: C_2  and  C_3
REMARK    3  A    between atoms: C_7  and  C_8
REMARK    4  A    between atoms: C_8  and  C_9
REMARK    5  A    between atoms: C_9  and  N_10
REMARK    6  A    between atoms: C_14  and  C_15
REMARK                            x       y       z     vdW  Elec       q    Type
REMARK                         _______ _______ _______ _____ _____    ______ ____
ROOT
ATOM      1  C   UNL     1       3.258   3.681  -4.067  0.00  0.00    +0.000 C 
ENDROOT
BRANCH   1   2
ATOM      2  N   UNL     1       3.676   4.989  -4.556  0.00  0.00    +0.000 N 
ATOM      3  C   UNL     1       2.688   5.944  -4.773  0.00  0.00    +0.000 A 
ATOM      4  C   UNL     1       1.505   6.029  -4.021  0.00  0.00    +0.000 A 
ATOM      5  N   UNL     1       0.542   6.975  -4.186  0.00  0.00    +0.000 NA
ATOM      6  C   UNL     1       0.827   7.888  -5.147  0.00  0.00    +0.000 A 
ATOM      7  C   UNL     1       1.992   7.834  -5.898  0.00  0.00    +0.000 A 
ATOM      8  N   UNL     1       2.934   6.860  -5.730  0.00  0.00    +0.000 NA
ATOM      9  H   UNL     1       4.314   5.007  -5.350  0.00  0.00    +0.000 HD
BRANCH   6  10
ATOM     10  C   UNL     1      -0.162   8.980  -5.361  0.00  0.00    +0.000 C 
ATOM     11  N   UNL     1      -1.283   8.948  -4.571  0.00  0.00    +0.000 N 
ATOM     12  O   UNL     1       0.014   9.861  -6.189  0.00  0.00    +0.000 OA
ATOM     13  H   UNL     1      -1.398   8.220  -3.876  0.00  0.00    +0.000 HD
ATOM     14  H   UNL     1      -1.969   9.680  -4.658  0.00  0.00    +0.000 HD
ENDBRANCH   6  10
ENDBRANCH   1   2
BRANCH   1  15
ATOM     15  C   UNL     1       4.439   2.729  -3.837  0.00  0.00    +0.000 C 
BRANCH  15  20
ATOM     16  C   UNL     1       3.042   0.133  -1.394  0.00  0.00    +0.000 A 
ATOM     17  C   UNL     1       2.701  -0.894  -2.296  0.00  0.00    +0.000 A 
ATOM     18  C   UNL     1       2.975  -0.785  -3.660  0.00  0.00    +0.000 A 
ATOM     19  C   UNL     1       3.574   0.366  -4.162  0.00  0.00    +0.000 A 
ATOM     20  C   UNL     1       3.929   1.407  -3.297  0.00  0.00    +0.000 A 
ATOM     21  C   UNL     1       3.693   1.262  -1.917  0.00  0.00    +0.000 A 
BRANCH  16  23
ATOM     22  C   UNL     1       1.059  -0.002   0.111  0.00  0.00    +0.000 C 
ATOM     23  C   UNL     1       2.600   0.027   0.076  0.00  0.00    +0.000 C 
ATOM     24  C   UNL     1       3.217  -1.200   0.758  0.00  0.00    +0.000 C 
ATOM     25  C   UNL     1       4.442  -0.670   1.490  0.00  0.00    +0.000 C 
ATOM     26  O   UNL     1       4.417   0.760   1.415  0.00  0.00    +0.000 OA
ATOM     27  C   UNL     1       3.095   1.135   1.019  0.00  0.00    +0.000 C 
ENDBRANCH  16  23
ENDBRANCH  15  20
ENDBRANCH   1  15
TORSDOF 5
