REMARK  Name = 
REMARK  4 active torsions:
REMARK  status: ('A' for Active; 'I' for Inactive)
REMARK    1  A    between atoms: C_2  and  C_4
REMARK    2  A    between atoms: C_7  and  N_8
REMARK    3  A    between atoms: N_8  and  C_9
REMARK    4  A    between atoms: C_9  and  C_10
REMARK                            x       y       z     vdW  Elec       q    Type
REMARK                         _______ _______ _______ _____ _____    ______ ____
ROOT
ATOM      1  C   UNL     1       3.166   1.005   0.711  0.00  0.00    +0.000 A 
ATOM      2  C   UNL     1       2.715   1.445   1.959  0.00  0.00    +0.000 A 
ATOM      3  C   UNL     1       3.476   2.359   2.697  0.00  0.00    +0.000 A 
ATOM      4  C   UNL     1       4.699   2.831   2.210  0.00  0.00    +0.000 A 
ATOM      5  C   UNL     1       5.106   2.433   0.931  0.00  0.00    +0.000 A 
ATOM      6  C   UNL     1       4.362   1.508   0.195  0.00  0.00    +0.000 A 
ENDROOT
BRANCH   1   8
ATOM      7  N   UNL     1       1.086  -0.122   0.125  0.00  0.00    +0.000 N 
ATOM      8  C   UNL     1       2.433  -0.024  -0.071  0.00  0.00    +0.000 C 
ATOM      9  O   UNL     1       3.006  -0.743  -0.880  0.00  0.00    +0.000 OA
ATOM     10  H   UNL     1       0.593  -0.763  -0.482  0.00  0.00    +0.000 HD
ATOM     11  H   UNL     1       0.551   0.603   0.581  0.00  0.00    +0.000 HD
ENDBRANCH   1   8
BRANCH   4  12
ATOM     12  N   UNL     1       5.529   3.702   2.912  0.00  0.00    +0.000 N 
ATOM     13  H   UNL     1       5.509   4.642   2.521  0.00  0.00    +0.000 HD
BRANCH  12  14
ATOM     14  C   UNL     1       5.507   3.690   4.368  0.00  0.00    +0.000 C 
BRANCH  14  15
ATOM     15  C   UNL     1       6.844   4.146   4.881  0.00  0.00    +0.000 A 
ATOM     16  C   UNL     1       8.024   3.482   4.518  0.00  0.00    +0.000 A 
ATOM     17  C   UNL     1       9.244   3.915   5.024  0.00  0.00    +0.000 A 
ATOM     18  C   UNL     1       9.246   4.999   5.884  0.00  0.00    +0.000 A 
ATOM     19  N   UNL     1       8.131   5.658   6.267  0.00  0.00    +0.000 NA
ATOM     20  C   UNL     1       6.959   5.217   5.759  0.00  0.00    +0.000 A 
ENDBRANCH  14  15
ENDBRANCH  12  14
ENDBRANCH   4  12
TORSDOF 4
