REMARK  Name = 
REMARK  9 active torsions:
REMARK  status: ('A' for Active; 'I' for Inactive)
REMARK    1  A    between atoms: C_2  and  O_3
REMARK    2  A    between atoms: C_2  and  C_4
REMARK    3  A    between atoms: C_4  and  N_5
REMARK    4  A    between atoms: N_5  and  C_6
REMARK    5  A    between atoms: C_6  and  C_7
REMARK    6  A    between atoms: C_10  and  C_11
REMARK    7  A    between atoms: C_11  and  C_12
REMARK    8  A    between atoms: C_12  and  C_13
REMARK    9  A    between atoms: C_22  and  C_24
REMARK                            x       y       z     vdW  Elec       q    Type
REMARK                         _______ _______ _______ _____ _____    ______ ____
ROOT
ATOM      1  N   UNL     1       6.107   0.246  -0.935  0.00  0.00    +0.000 N 
ATOM      2  C   UNL     1       7.087   1.034  -0.268  0.00  0.00    +0.000 C 
ATOM      3  O   UNL     1       8.102   1.369  -0.871  0.00  0.00    +0.000 OA
ENDROOT
BRANCH   2   4
ATOM      4  C   UNL     1       6.865   1.489   1.124  0.00  0.00    +0.000 A 
ATOM      5  C   UNL     1       5.671   2.008   1.599  0.00  0.00    +0.000 A 
ATOM      6  S   UNL     1       5.663   2.324   3.274  0.00  0.00    +0.000 S 
ATOM      7  C   UNL     1       7.322   1.993   3.392  0.00  0.00    +0.000 A 
ATOM      8  N   UNL     1       7.966   2.132   4.580  0.00  0.00    +0.000 NA
ATOM      9  C   UNL     1       9.238   1.915   4.523  0.00  0.00    +0.000 A 
ATOM     10  N   UNL     1       9.916   1.571   3.382  0.00  0.00    +0.000 N 
ATOM     11  C   UNL     1       9.306   1.403   2.157  0.00  0.00    +0.000 A 
ATOM     12  O   UNL     1       9.973   1.115   1.171  0.00  0.00    +0.000 OA
ATOM     13  C   UNL     1       7.867   1.618   2.172  0.00  0.00    +0.000 A 
ATOM     14  H   UNL     1      10.917   1.441   3.400  0.00  0.00    +0.000 HD
ENDBRANCH   2   4
BRANCH   1  15
ATOM     15  C   UNL     1       6.497  -0.331  -2.246  0.00  0.00    +0.000 C 
BRANCH  15  17
ATOM     16  O   UNL     1       6.242   0.162  -4.617  0.00  0.00    +0.000 OA
ATOM     17  C   UNL     1       6.067   0.507  -3.457  0.00  0.00    +0.000 C 
BRANCH  17  18
ATOM     18  O   UNL     1       5.467   1.671  -3.126  0.00  0.00    +0.000 OA
ATOM     19  H   UNL     1       5.503   1.798  -2.159  0.00  0.00    +0.000 HD
ENDBRANCH  17  18
ENDBRANCH  15  17
ENDBRANCH   1  15
BRANCH   1  20
ATOM     20  C   UNL     1       4.920  -0.268  -0.250  0.00  0.00    +0.000 C 
BRANCH  20  21
ATOM     21  C   UNL     1       3.923  -1.153  -0.956  0.00  0.00    +0.000 A 
ATOM     22  C   UNL     1       4.003  -2.545  -0.824  0.00  0.00    +0.000 A 
ATOM     23  C   UNL     1       2.922  -3.351  -1.186  0.00  0.00    +0.000 A 
ATOM     24  C   UNL     1       1.741  -2.782  -1.679  0.00  0.00    +0.000 A 
ATOM     25  C   UNL     1       1.705  -1.403  -1.915  0.00  0.00    +0.000 A 
ATOM     26  C   UNL     1       2.790  -0.594  -1.564  0.00  0.00    +0.000 A 
BRANCH  24  27
ATOM     27  C   UNL     1       0.507  -3.630  -1.878  0.00  0.00    +0.000 C 
BRANCH  27  28
ATOM     28  C   UNL     1      -0.046  -4.227  -0.568  0.00  0.00    +0.000 C 
BRANCH  28  29
ATOM     29  C   UNL     1      -0.389  -3.201   0.536  0.00  0.00    +0.000 C 
ATOM     30  C   UNL     1      -1.491  -2.211   0.131  0.00  0.00    +0.000 C 
ATOM     31  C   UNL     1      -2.884  -2.787   0.338  0.00  0.00    +0.000 C 
ATOM     32  C   UNL     1      -3.043  -3.131   1.806  0.00  0.00    +0.000 C 
ATOM     33  N   UNL     1      -2.001  -4.032   2.246  0.00  0.00    +0.000 N 
ATOM     34  C   UNL     1      -0.702  -3.955   1.831  0.00  0.00    +0.000 C 
ATOM     35  O   UNL     1       0.164  -4.563   2.458  0.00  0.00    +0.000 OA
ATOM     36  H   UNL     1      -2.115  -4.505   3.131  0.00  0.00    +0.000 HD
ENDBRANCH  28  29
ENDBRANCH  27  28
ENDBRANCH  24  27
ENDBRANCH  20  21
ENDBRANCH   1  20
TORSDOF 9
