REMARK  Name = 
REMARK  7 active torsions:
REMARK  status: ('A' for Active; 'I' for Inactive)
REMARK    1  A    between atoms: C_1  and  C_2
REMARK    2  A    between atoms: C_2  and  N_3
REMARK    3  A    between atoms: C_2  and  C_19
REMARK    4  A    between atoms: C_4  and  C_6
REMARK    5  A    between atoms: C_11  and  C_12
REMARK    6  A    between atoms: C_22  and  O_23
REMARK    7  A    between atoms: O_23  and  C_24
REMARK                            x       y       z     vdW  Elec       q    Type
REMARK                         _______ _______ _______ _____ _____    ______ ____
ROOT
ATOM      1  N   UNL     1       0.950   0.029   0.204  0.00  0.00    +0.000 N 
ATOM      2  C   UNL     1       0.297  -0.474   1.297  0.00  0.00    +0.000 C 
ATOM      3  O   UNL     1       0.892  -0.916   2.275  0.00  0.00    +0.000 OA
ATOM      4  H   UNL     1       0.419   0.234  -0.636  0.00  0.00    +0.000 HD
ENDROOT
BRANCH   2   5
ATOM      5  C   UNL     1      -1.166  -0.393   1.263  0.00  0.00    +0.000 A 
ATOM      6  C   UNL     1      -1.881  -0.280   2.447  0.00  0.00    +0.000 A 
ATOM      7  S   UNL     1      -3.569  -0.195   2.218  0.00  0.00    +0.000 S 
ATOM      8  C   UNL     1      -3.406  -0.358   0.531  0.00  0.00    +0.000 A 
ATOM      9  N   UNL     1      -4.501  -0.408  -0.275  0.00  0.00    +0.000 NA
ATOM     10  C   UNL     1      -4.217  -0.576  -1.532  0.00  0.00    +0.000 A 
ATOM     11  N   UNL     1      -2.946  -0.681  -2.047  0.00  0.00    +0.000 N 
ATOM     12  C   UNL     1      -1.817  -0.577  -1.278  0.00  0.00    +0.000 A 
ATOM     13  O   UNL     1      -0.695  -0.574  -1.769  0.00  0.00    +0.000 OA
ATOM     14  C   UNL     1      -2.079  -0.435   0.145  0.00  0.00    +0.000 A 
ATOM     15  H   UNL     1      -2.835  -0.784  -3.049  0.00  0.00    +0.000 HD
BRANCH  10  16
ATOM     16  C   UNL     1      -5.321  -0.669  -2.579  0.00  0.00    +0.000 C 
ATOM     17  N   UNL     1      -6.591  -0.573  -2.102  0.00  0.00    +0.000 N 
ATOM     18  O   UNL     1      -5.024  -0.826  -3.755  0.00  0.00    +0.000 OA
ATOM     19  H   UNL     1      -6.757  -0.449  -1.107  0.00  0.00    +0.000 HD
ATOM     20  H   UNL     1      -7.373  -0.632  -2.738  0.00  0.00    +0.000 HD
ENDBRANCH  10  16
ENDBRANCH   2   5
BRANCH   1  22
ATOM     21  C   UNL     1       2.858  -1.379  -0.432  0.00  0.00    +0.000 C 
ATOM     22  C   UNL     1       2.393  -0.007   0.071  0.00  0.00    +0.000 C 
BRANCH  22  23
ATOM     23  C   UNL     1       2.826   1.157  -0.791  0.00  0.00    +0.000 A 
ATOM     24  C   UNL     1       3.076   2.412  -0.216  0.00  0.00    +0.000 A 
ATOM     25  C   UNL     1       3.441   3.491  -1.019  0.00  0.00    +0.000 A 
ATOM     26  C   UNL     1       3.549   3.280  -2.383  0.00  0.00    +0.000 A 
ATOM     27  N   UNL     1       3.260   2.103  -2.979  0.00  0.00    +0.000 NA
ATOM     28  C   UNL     1       2.916   1.075  -2.176  0.00  0.00    +0.000 A 
BRANCH  26  29
ATOM     29  O   UNL     1       3.969   4.347  -3.165  0.00  0.00    +0.000 OA
BRANCH  29  30
ATOM     30  C   UNL     1       4.671   4.049  -4.308  0.00  0.00    +0.000 A 
ATOM     31  C   UNL     1       5.616   3.027  -4.400  0.00  0.00    +0.000 A 
ATOM     32  C   UNL     1       6.281   2.811  -5.603  0.00  0.00    +0.000 A 
ATOM     33  C   UNL     1       6.005   3.654  -6.666  0.00  0.00    +0.000 A 
ATOM     34  N   UNL     1       5.127   4.680  -6.604  0.00  0.00    +0.000 NA
ATOM     35  C   UNL     1       4.478   4.852  -5.423  0.00  0.00    +0.000 A 
ENDBRANCH  29  30
ENDBRANCH  26  29
ENDBRANCH  22  23
ENDBRANCH   1  22
TORSDOF 6
