REMARK  Name = 
REMARK  13 active torsions:
REMARK  status: ('A' for Active; 'I' for Inactive)
REMARK    1  A    between atoms: C_1  and  C_2
REMARK    2  A    between atoms: C_2  and  N_3
REMARK    3  A    between atoms: C_2  and  C_21
REMARK    4  A    between atoms: N_3  and  C_4
REMARK    5  A    between atoms: C_4  and  C_5
REMARK    6  A    between atoms: C_5  and  O_6
REMARK    7  A    between atoms: C_5  and  C_7
REMARK    8  A    between atoms: C_10  and  C_11
REMARK    9  A    between atoms: C_11  and  N_12
REMARK   10  A    between atoms: N_12  and  C_13
REMARK   11  A    between atoms: C_13  and  C_14
REMARK   12  A    between atoms: C_21  and  C_23
REMARK   13  A    between atoms: N_29  and  C_30
REMARK                            x       y       z     vdW  Elec       q    Type
REMARK                         _______ _______ _______ _____ _____    ______ ____
ROOT
ATOM      1  C   UNL     1       2.553  -4.262  -6.611  0.00  0.00    +0.000 C 
ENDROOT
BRANCH   1   2
ATOM      2  C   UNL     1       2.332  -5.730  -6.318  0.00  0.00    +0.000 A 
ATOM      3  C   UNL     1       3.440  -6.577  -6.187  0.00  0.00    +0.000 A 
ATOM      4  C   UNL     1       3.266  -7.929  -5.904  0.00  0.00    +0.000 A 
ATOM      5  C   UNL     1       1.975  -8.461  -5.742  0.00  0.00    +0.000 A 
ATOM      6  C   UNL     1       0.872  -7.620  -5.884  0.00  0.00    +0.000 A 
ATOM      7  C   UNL     1       1.048  -6.271  -6.189  0.00  0.00    +0.000 A 
BRANCH   5   8
ATOM      8  C   UNL     1       1.741  -9.919  -5.443  0.00  0.00    +0.000 C 
BRANCH   8   9
ATOM      9  N   UNL     1       2.368 -10.303  -4.188  0.00  0.00    +0.000 NA
ATOM     10  H   UNL     1       1.984  -9.732  -3.434  0.00  0.00    +0.000 HD
BRANCH   9  11
ATOM     11  C   UNL     1       2.121 -11.714  -3.882  0.00  0.00    +0.000 C 
BRANCH  11  12
ATOM     12  C   UNL     1       2.822 -12.052  -2.545  0.00  0.00    +0.000 C 
ATOM     13  C   UNL     1       2.641 -13.498  -2.138  0.00  0.00    +0.000 C 
ATOM     14  C   UNL     1       3.695 -14.219  -2.955  0.00  0.00    +0.000 C 
ATOM     15  C   UNL     1       4.804 -13.191  -3.147  0.00  0.00    +0.000 C 
ATOM     16  N   UNL     1       4.287 -11.915  -2.644  0.00  0.00    +0.000 NA
ATOM     17  H   UNL     1       4.493 -11.158  -3.301  0.00  0.00    +0.000 HD
ENDBRANCH  11  12
ENDBRANCH   9  11
ENDBRANCH   8   9
ENDBRANCH   5   8
ENDBRANCH   1   2
BRANCH   1  18
ATOM     18  O   UNL     1       1.990  -3.453  -5.569  0.00  0.00    +0.000 OA
ATOM     19  H   UNL     1       1.197  -3.908  -5.243  0.00  0.00    +0.000 HD
ENDBRANCH   1  18
BRANCH   1  20
ATOM     20  C   UNL     1       1.907  -3.861  -7.945  0.00  0.00    +0.000 C 
BRANCH  20  21
ATOM     21  N   UNL     1       2.130  -2.429  -8.226  0.00  0.00    +0.000 NA
ATOM     22  H   UNL     1       1.723  -1.914  -7.439  0.00  0.00    +0.000 HD
BRANCH  21  24
ATOM     23  C   UNL     1      -0.009  -2.158  -9.477  0.00  0.00    +0.000 C 
ATOM     24  C   UNL     1       1.516  -1.997  -9.499  0.00  0.00    +0.000 C 
BRANCH  24  25
ATOM     25  C   UNL     1       2.143  -2.759 -10.691  0.00  0.00    +0.000 C 
ATOM     26  O   UNL     1       1.424  -3.403 -11.452  0.00  0.00    +0.000 OA
BRANCH  25  27
ATOM     27  C   UNL     1       3.604  -2.703 -10.891  0.00  0.00    +0.000 A 
ATOM     28  C   UNL     1       4.387  -1.607 -10.575  0.00  0.00    +0.000 A 
ATOM     29  S   UNL     1       6.041  -1.832 -10.950  0.00  0.00    +0.000 S 
ATOM     30  C   UNL     1       5.762  -3.442 -11.436  0.00  0.00    +0.000 A 
ATOM     31  N   UNL     1       6.807  -4.250 -11.782  0.00  0.00    +0.000 NA
ATOM     32  C   UNL     1       6.456  -5.446 -12.057  0.00  0.00    +0.000 A 
ATOM     33  N   UNL     1       5.167  -5.947 -12.056  0.00  0.00    +0.000 N 
ATOM     34  C   UNL     1       4.903  -7.332 -12.396  0.00  0.00    +0.000 C 
ATOM     35  C   UNL     1       4.066  -5.129 -11.797  0.00  0.00    +0.000 A 
ATOM     36  O   UNL     1       2.915  -5.530 -11.908  0.00  0.00    +0.000 OA
ATOM     37  C   UNL     1       4.425  -3.775 -11.398  0.00  0.00    +0.000 A 
ENDBRANCH  25  27
ENDBRANCH  24  25
ENDBRANCH  21  24
ENDBRANCH  20  21
ENDBRANCH   1  20
TORSDOF 11
