REMARK  Name = 
REMARK  9 active torsions:
REMARK  status: ('A' for Active; 'I' for Inactive)
REMARK    1  A    between atoms: C_1  and  O_2
REMARK    2  A    between atoms: O_2  and  C_3
REMARK    3  A    between atoms: C_10  and  C_11
REMARK    4  A    between atoms: N_13  and  C_14
REMARK    5  A    between atoms: C_14  and  C_15
REMARK    6  A    between atoms: C_18  and  C_19
REMARK    7  A    between atoms: C_19  and  C_20
REMARK    8  A    between atoms: C_20  and  C_21
REMARK    9  A    between atoms: C_21  and  C_22
REMARK                            x       y       z     vdW  Elec       q    Type
REMARK                         _______ _______ _______ _____ _____    ______ ____
ROOT
ATOM      1  C   UNL     1       2.657   3.145  -1.510  0.00  0.00    +0.000 C 
ENDROOT
BRANCH   1   2
ATOM      2  C   UNL     1       1.433   2.550  -2.171  0.00  0.00    +0.000 A 
ATOM      3  C   UNL     1       1.405   1.195  -2.528  0.00  0.00    +0.000 A 
ATOM      4  C   UNL     1       0.238   0.610  -3.042  0.00  0.00    +0.000 A 
ATOM      5  C   UNL     1      -0.919   1.373  -3.257  0.00  0.00    +0.000 A 
ATOM      6  C   UNL     1      -0.861   2.745  -2.976  0.00  0.00    +0.000 A 
ATOM      7  C   UNL     1       0.298   3.326  -2.439  0.00  0.00    +0.000 A 
BRANCH   5   8
ATOM      8  C   UNL     1      -2.187   0.748  -3.805  0.00  0.00    +0.000 C 
BRANCH   8   9
ATOM      9  C   UNL     1      -2.750  -0.373  -2.918  0.00  0.00    +0.000 C 
BRANCH   9  10
ATOM     10  C   UNL     1      -4.042  -0.987  -3.474  0.00  0.00    +0.000 C 
BRANCH  10  11
ATOM     11  C   UNL     1      -4.550  -2.080  -2.563  0.00  0.00    +0.000 A 
ATOM     12  C   UNL     1      -5.433  -1.791  -1.519  0.00  0.00    +0.000 A 
ATOM     13  C   UNL     1      -5.828  -2.820  -0.675  0.00  0.00    +0.000 A 
ATOM     14  N   UNL     1      -5.406  -4.097  -0.796  0.00  0.00    +0.000 NA
ATOM     15  C   UNL     1      -4.551  -4.355  -1.808  0.00  0.00    +0.000 A 
ATOM     16  C   UNL     1      -4.102  -3.397  -2.705  0.00  0.00    +0.000 A 
ENDBRANCH  10  11
ENDBRANCH   9  10
ENDBRANCH   8   9
ENDBRANCH   5   8
ENDBRANCH   1   2
BRANCH   1  19
ATOM     17  C   UNL     1       4.777   4.269  -2.145  0.00  0.00    +0.000 C 
ATOM     18  O   UNL     1       5.137   4.376  -0.978  0.00  0.00    +0.000 OA
ATOM     19  N   UNL     1       3.579   3.684  -2.475  0.00  0.00    +0.000 N 
ATOM     20  H   UNL     1       3.303   3.629  -3.445  0.00  0.00    +0.000 HD
BRANCH  17  28
ATOM     21  C   UNL     1       4.396   4.236  -5.572  0.00  0.00    +0.000 A 
ATOM     22  N   UNL     1       4.485   4.372  -6.909  0.00  0.00    +0.000 NA
ATOM     23  C   UNL     1       5.561   4.984  -7.407  0.00  0.00    +0.000 A 
ATOM     24  N   UNL     1       6.584   5.486  -6.721  0.00  0.00    +0.000 NA
ATOM     25  C   UNL     1       6.450   5.337  -5.389  0.00  0.00    +0.000 A 
ATOM     26  S   UNL     1       7.663   5.919  -4.355  0.00  0.00    +0.000 S 
ATOM     27  C   UNL     1       6.817   5.386  -2.978  0.00  0.00    +0.000 A 
ATOM     28  C   UNL     1       5.602   4.770  -3.263  0.00  0.00    +0.000 A 
ATOM     29  C   UNL     1       5.394   4.735  -4.715  0.00  0.00    +0.000 A 
BRANCH  21  31
ATOM     30  C   UNL     1       2.692   2.694  -5.980  0.00  0.00    +0.000 C 
ATOM     31  O   UNL     1       3.274   3.619  -5.064  0.00  0.00    +0.000 OA
ENDBRANCH  21  31
ENDBRANCH  17  28
ENDBRANCH   1  19
TORSDOF 8
