REMARK  Name = 
REMARK  8 active torsions:
REMARK  status: ('A' for Active; 'I' for Inactive)
REMARK    1  A    between atoms: C_1  and  C_2
REMARK    2  A    between atoms: C_2  and  N_3
REMARK    3  A    between atoms: C_2  and  C_25
REMARK    4  A    between atoms: N_3  and  C_4
REMARK    5  A    between atoms: C_4  and  C_5
REMARK    6  A    between atoms: C_8  and  C_9
REMARK    7  A    between atoms: C_9  and  N_10
REMARK    8  A    between atoms: C_11  and  C_13
REMARK                            x       y       z     vdW  Elec       q    Type
REMARK                         _______ _______ _______ _____ _____    ______ ____
ROOT
ATOM      1  C   UNL     1       3.116  -3.792   0.078  0.00  0.00    +0.000 A 
ATOM      2  C   UNL     1       4.381  -3.962  -0.502  0.00  0.00    +0.000 A 
ATOM      3  C   UNL     1       4.824  -5.233  -0.891  0.00  0.00    +0.000 A 
ATOM      4  C   UNL     1       4.011  -6.359  -0.706  0.00  0.00    +0.000 A 
ATOM      5  C   UNL     1       2.768  -6.197  -0.084  0.00  0.00    +0.000 A 
ATOM      6  C   UNL     1       2.322  -4.928   0.294  0.00  0.00    +0.000 A 
ENDROOT
BRANCH   1   7
ATOM      7  C   UNL     1       2.615  -2.426   0.499  0.00  0.00    +0.000 C 
BRANCH   7   8
ATOM      8  N   UNL     1       2.494  -1.507  -0.631  0.00  0.00    +0.000 NA
ATOM      9  H   UNL     1       3.405  -1.389  -1.070  0.00  0.00    +0.000 HD
BRANCH   8  11
ATOM     10  C   UNL     1       0.590  -0.201   0.356  0.00  0.00    +0.000 C 
ATOM     11  C   UNL     1       2.001  -0.162  -0.244  0.00  0.00    +0.000 C 
BRANCH  11  12
ATOM     12  C   UNL     1       1.981   0.826  -1.423  0.00  0.00    +0.000 A 
ATOM     13  N   UNL     1       2.765   1.922  -1.334  0.00  0.00    +0.000 NA
ATOM     14  C   UNL     1       2.662   2.817  -2.339  0.00  0.00    +0.000 A 
ATOM     15  C   UNL     1       1.822   2.662  -3.415  0.00  0.00    +0.000 A 
ATOM     16  C   UNL     1       1.080   1.506  -3.425  0.00  0.00    +0.000 A 
ATOM     17  N   UNL     1       1.139   0.580  -2.452  0.00  0.00    +0.000 NA
ENDBRANCH  11  12
ENDBRANCH   8  11
ENDBRANCH   7   8
ENDBRANCH   1   7
BRANCH   4  18
ATOM     18  C   UNL     1       4.468  -7.730  -1.132  0.00  0.00    +0.000 C 
BRANCH  18  19
ATOM     19  N   UNL     1       5.178  -8.396  -0.070  0.00  0.00    +0.000 N 
ATOM     20  C   UNL     1       5.732  -9.637  -0.250  0.00  0.00    +0.000 C 
ATOM     21  O   UNL     1       5.687 -10.222  -1.329  0.00  0.00    +0.000 OA
ATOM     22  H   UNL     1       5.018  -8.053   0.872  0.00  0.00    +0.000 HD
BRANCH  20  23
ATOM     23  C   UNL     1       6.444 -10.205   0.901  0.00  0.00    +0.000 A 
ATOM     24  C   UNL     1       7.442 -11.149   0.695  0.00  0.00    +0.000 A 
ATOM     25  S   UNL     1       8.202 -11.664   2.133  0.00  0.00    +0.000 S 
ATOM     26  C   UNL     1       7.187 -10.683   3.084  0.00  0.00    +0.000 A 
ATOM     27  N   UNL     1       7.296 -10.674   4.440  0.00  0.00    +0.000 NA
ATOM     28  C   UNL     1       6.449  -9.902   5.039  0.00  0.00    +0.000 A 
ATOM     29  N   UNL     1       5.504  -9.138   4.401  0.00  0.00    +0.000 N 
ATOM     30  C   UNL     1       5.374  -9.098   3.036  0.00  0.00    +0.000 A 
ATOM     31  O   UNL     1       4.550  -8.368   2.495  0.00  0.00    +0.000 OA
ATOM     32  C   UNL     1       6.300  -9.958   2.315  0.00  0.00    +0.000 A 
ATOM     33  H   UNL     1       4.878  -8.548   4.927  0.00  0.00    +0.000 HD
ENDBRANCH  20  23
ENDBRANCH  18  19
ENDBRANCH   4  18
TORSDOF 7
