REMARK  Name = 
REMARK  7 active torsions:
REMARK  status: ('A' for Active; 'I' for Inactive)
REMARK    1  A    between atoms: C_2  and  C_4
REMARK    2  A    between atoms: C_7  and  O_8
REMARK    3  A    between atoms: O_8  and  C_9
REMARK    4  A    between atoms: C_9  and  C_10
REMARK    5  A    between atoms: C_10  and  C_13
REMARK    6  A    between atoms: C_17  and  O_18
REMARK    7  A    between atoms: O_18  and  C_19
REMARK                            x       y       z     vdW  Elec       q    Type
REMARK                         _______ _______ _______ _____ _____    ______ ____
ROOT
ATOM      1  C   UNL     1       5.228   4.889  -5.527  0.00  0.00    +0.000 C 
ATOM      2  F   UNL     1       6.568   4.864  -5.276  0.00  0.00    +0.000 F 
ATOM      3  F   UNL     1       5.033   4.056  -6.590  0.00  0.00    +0.000 F 
ENDROOT
BRANCH   1   4
ATOM      4  C   UNL     1       4.713   6.290  -5.808  0.00  0.00    +0.000 A 
ATOM      5  C   UNL     1       3.624   6.477  -6.667  0.00  0.00    +0.000 A 
ATOM      6  C   UNL     1       3.058   7.743  -6.818  0.00  0.00    +0.000 A 
ATOM      7  C   UNL     1       3.586   8.850  -6.123  0.00  0.00    +0.000 A 
ATOM      8  C   UNL     1       4.695   8.685  -5.296  0.00  0.00    +0.000 A 
ATOM      9  C   UNL     1       5.251   7.407  -5.144  0.00  0.00    +0.000 A 
BRANCH   8  10
ATOM     10  O   UNL     1       5.325   9.648  -4.531  0.00  0.00    +0.000 OA
BRANCH  10  11
ATOM     11  C   UNL     1       5.272  11.047  -4.899  0.00  0.00    +0.000 C 
ATOM     12  C   UNL     1       5.953  11.563  -6.165  0.00  0.00    +0.000 C 
ATOM     13  O   UNL     1       6.613  12.631  -5.437  0.00  0.00    +0.000 OA
ATOM     14  C   UNL     1       6.246  12.015  -4.176  0.00  0.00    +0.000 C 
ENDBRANCH  10  11
ENDBRANCH   8  10
ENDBRANCH   1   4
BRANCH   1  15
ATOM     15  C   UNL     1       4.477   4.325  -4.306  0.00  0.00    +0.000 C 
BRANCH  15  16
ATOM     16  O   UNL     1       4.863   2.973  -4.021  0.00  0.00    +0.000 OA
BRANCH  16  20
ATOM     17  C   UNL     1       3.156   0.925  -0.892  0.00  0.00    +0.000 A 
ATOM     18  C   UNL     1       2.742   2.238  -1.072  0.00  0.00    +0.000 A 
ATOM     19  C   UNL     1       3.293   2.976  -2.120  0.00  0.00    +0.000 A 
ATOM     20  C   UNL     1       4.245   2.386  -2.953  0.00  0.00    +0.000 A 
ATOM     21  C   UNL     1       4.610   1.072  -2.675  0.00  0.00    +0.000 A 
ATOM     22  N   UNL     1       4.097   0.322  -1.667  0.00  0.00    +0.000 NA
BRANCH  17  24
ATOM     23  N   UNL     1       3.023  -1.190   0.322  0.00  0.00    +0.000 N 
ATOM     24  C   UNL     1       2.556   0.084   0.186  0.00  0.00    +0.000 C 
ATOM     25  O   UNL     1       1.683   0.518   0.948  0.00  0.00    +0.000 OA
ATOM     26  H   UNL     1       2.707  -1.704   1.126  0.00  0.00    +0.000 HD
ATOM     27  H   UNL     1       3.905  -1.451  -0.111  0.00  0.00    +0.000 HD
ENDBRANCH  17  24
ENDBRANCH  16  20
ENDBRANCH  15  16
ENDBRANCH   1  15
TORSDOF 7
