REMARK  Name = 
REMARK  5 active torsions:
REMARK  status: ('A' for Active; 'I' for Inactive)
REMARK    1  A    between atoms: N_1  and  C_2
REMARK    2  A    between atoms: C_2  and  C_3
REMARK    3  A    between atoms: C_3  and  C_4
REMARK    4  A    between atoms: C_7  and  C_8
REMARK    5  A    between atoms: C_8  and  N_9
REMARK                            x       y       z     vdW  Elec       q    Type
REMARK                         _______ _______ _______ _____ _____    ______ ____
ROOT
ATOM      1  C   UNL     1       4.514   0.720  -1.299  0.00  0.00    +0.000 A 
ATOM      2  C   UNL     1       5.165   1.822  -0.756  0.00  0.00    +0.000 A 
ATOM      3  C   UNL     1       6.558   1.841  -0.738  0.00  0.00    +0.000 A 
ATOM      4  C   UNL     1       7.274   0.762  -1.262  0.00  0.00    +0.000 A 
ATOM      5  C   UNL     1       6.536  -0.297  -1.778  0.00  0.00    +0.000 A 
ATOM      6  N   UNL     1       5.185  -0.341  -1.806  0.00  0.00    +0.000 NA
ENDROOT
BRANCH   1   7
ATOM      7  C   UNL     1       3.008   0.644  -1.306  0.00  0.00    +0.000 C 
BRANCH   7   8
ATOM      8  C   UNL     1       2.491  -0.030  -0.034  0.00  0.00    +0.000 C 
BRANCH   8   9
ATOM      9  N   UNL     1       1.028  -0.094  -0.023  0.00  0.00    +0.000 NA
ATOM     10  H   UNL     1       0.726  -0.591   0.815  0.00  0.00    +0.000 HD
ATOM     11  H   UNL     1       0.713  -0.662  -0.810  0.00  0.00    +0.000 HD
ENDBRANCH   8   9
ENDBRANCH   7   8
ENDBRANCH   1   7
BRANCH   4  12
ATOM     12  C   UNL     1       8.774   0.741  -1.283  0.00  0.00    +0.000 C 
BRANCH  12  13
ATOM     13  N   UNL     1       9.340   0.135  -0.091  0.00  0.00    +0.000 N 
ATOM     14  C   UNL     1       9.593  -1.200   0.064  0.00  0.00    +0.000 A 
ATOM     15  N   UNL     1      10.276  -1.446   1.160  0.00  0.00    +0.000 NA
ATOM     16  C   UNL     1      10.474  -0.217   1.740  0.00  0.00    +0.000 A 
ATOM     17  C   UNL     1      11.175   0.111   2.911  0.00  0.00    +0.000 A 
ATOM     18  C   UNL     1      11.248   1.454   3.299  0.00  0.00    +0.000 A 
ATOM     19  C   UNL     1      10.626   2.450   2.544  0.00  0.00    +0.000 A 
ATOM     20  C   UNL     1       9.925   2.141   1.372  0.00  0.00    +0.000 A 
ATOM     21  C   UNL     1       9.878   0.795   0.990  0.00  0.00    +0.000 A 
ENDBRANCH  12  13
ENDBRANCH   4  12
TORSDOF 5
