REMARK  Name = 
REMARK  5 active torsions:
REMARK  status: ('A' for Active; 'I' for Inactive)
REMARK    1  A    between atoms: N_1  and  C_2
REMARK    2  A    between atoms: C_2  and  C_3
REMARK    3  A    between atoms: C_6  and  C_7
REMARK    4  A    between atoms: C_7  and  N_8
REMARK    5  A    between atoms: C_13  and  C_14
REMARK                            x       y       z     vdW  Elec       q    Type
REMARK                         _______ _______ _______ _____ _____    ______ ____
ROOT
ATOM      1  N   UNL     1       5.966  -5.452  -2.361  0.00  0.00    +0.000 N 
ATOM      2  C   UNL     1       6.825  -4.919  -3.296  0.00  0.00    +0.000 A 
ATOM      3  C   UNL     1       8.102  -5.325  -2.979  0.00  0.00    +0.000 A 
ATOM      4  C   UNL     1       8.012  -6.162  -1.839  0.00  0.00    +0.000 A 
ATOM      5  C   UNL     1       8.944  -6.831  -1.028  0.00  0.00    +0.000 A 
ATOM      6  C   UNL     1       8.462  -7.568   0.057  0.00  0.00    +0.000 A 
ATOM      7  C   UNL     1       7.080  -7.629   0.252  0.00  0.00    +0.000 A 
ATOM      8  N   UNL     1       6.137  -6.990  -0.493  0.00  0.00    +0.000 NA
ATOM      9  C   UNL     1       6.660  -6.270  -1.503  0.00  0.00    +0.000 A 
ENDROOT
BRANCH   6  10
ATOM     10  C   UNL     1       9.342  -8.261   1.031  0.00  0.00    +0.000 C 
ATOM     11  N   UNL     1      10.698  -8.171   0.868  0.00  0.00    +0.000 N 
ATOM     12  O   UNL     1       8.880  -8.888   1.975  0.00  0.00    +0.000 OA
ATOM     13  H   UNL     1      11.170  -7.680   0.125  0.00  0.00    +0.000 HD
ATOM     14  H   UNL     1      11.273  -8.633   1.563  0.00  0.00    +0.000 HD
ENDBRANCH   6  10
BRANCH   1  15
ATOM     15  C   UNL     1       4.554  -5.122  -2.262  0.00  0.00    +0.000 C 
BRANCH  15  19
ATOM     16  C   UNL     1       3.166  -1.206  -0.747  0.00  0.00    +0.000 C 
ATOM     17  C   UNL     1       2.380  -2.480  -0.384  0.00  0.00    +0.000 C 
ATOM     18  C   UNL     1       2.749  -3.691  -1.238  0.00  0.00    +0.000 C 
ATOM     19  C   UNL     1       4.262  -3.965  -1.279  0.00  0.00    +0.000 C 
ATOM     20  C   UNL     1       5.039  -2.687  -1.644  0.00  0.00    +0.000 C 
ATOM     21  C   UNL     1       4.668  -1.505  -0.756  0.00  0.00    +0.000 C 
BRANCH  16  22
ATOM     22  C   UNL     1       2.706  -0.560  -2.068  0.00  0.00    +0.000 C 
BRANCH  22  23
ATOM     23  N   UNL     1       1.301  -0.165  -2.011  0.00  0.00    +0.000 NA
ATOM     24  H   UNL     1       1.148   0.645  -2.610  0.00  0.00    +0.000 HD
ATOM     25  H   UNL     1       1.057   0.130  -1.067  0.00  0.00    +0.000 HD
ENDBRANCH  22  23
ENDBRANCH  16  22
ENDBRANCH  15  19
ENDBRANCH   1  15
TORSDOF 5
