REMARK  Name = 
REMARK  5 active torsions:
REMARK  status: ('A' for Active; 'I' for Inactive)
REMARK    1  A    between atoms: C_2  and  C_3
REMARK    2  A    between atoms: C_6  and  C_7
REMARK    3  A    between atoms: C_7  and  N_8
REMARK    4  A    between atoms: N_8  and  C_9
REMARK    5  A    between atoms: C_12  and  C_13
REMARK                            x       y       z     vdW  Elec       q    Type
REMARK                         _______ _______ _______ _____ _____    ______ ____
ROOT
ATOM      1  N   UNL     1       3.895   0.518  -0.867  0.00  0.00    +0.000 N 
ATOM      2  H   UNL     1       3.635   0.512  -1.849  0.00  0.00    +0.000 HD
ENDROOT
BRANCH   1   3
ATOM      3  C   UNL     1       4.460  -0.702  -0.447  0.00  0.00    +0.000 A 
ATOM      4  N   UNL     1       4.393  -1.066   0.855  0.00  0.00    +0.000 NA
ATOM      5  C   UNL     1       4.974  -2.243   1.218  0.00  0.00    +0.000 A 
ATOM      6  C   UNL     1       5.630  -3.096   0.339  0.00  0.00    +0.000 A 
ATOM      7  C   UNL     1       5.721  -2.711  -0.994  0.00  0.00    +0.000 A 
ATOM      8  C   UNL     1       5.156  -1.496  -1.382  0.00  0.00    +0.000 A 
ATOM      9 CL   UNL     1       5.326  -1.012  -3.034  0.00  0.00    +0.000 Cl
BRANCH   6  10
ATOM     10  C   UNL     1       6.157  -4.381   0.844  0.00  0.00    +0.000 C 
ATOM     11  N   UNL     1       7.151  -4.992   0.129  0.00  0.00    +0.000 N 
ATOM     12  O   UNL     1       5.725  -4.881   1.875  0.00  0.00    +0.000 OA
ATOM     13  H   UNL     1       7.668  -4.549  -0.617  0.00  0.00    +0.000 HD
ATOM     14  H   UNL     1       7.537  -5.843   0.521  0.00  0.00    +0.000 HD
ENDBRANCH   6  10
ENDBRANCH   1   3
BRANCH   1  15
ATOM     15  C   UNL     1       3.134   1.423   0.019  0.00  0.00    +0.000 C 
ATOM     16  C   UNL     1       3.845   2.187   1.126  0.00  0.00    +0.000 C 
ATOM     17  C   UNL     1       3.461   2.912  -0.112  0.00  0.00    +0.000 C 
ATOM     18  F   UNL     1       4.475   3.271  -0.986  0.00  0.00    +0.000 F 
BRANCH  15  22
ATOM     19  C   UNL     1      -1.134   0.679   0.718  0.00  0.00    +0.000 A 
ATOM     20  C   UNL     1      -0.167   0.024   1.489  0.00  0.00    +0.000 A 
ATOM     21  C   UNL     1       1.203   0.222   1.238  0.00  0.00    +0.000 A 
ATOM     22  C   UNL     1       1.650   1.080   0.214  0.00  0.00    +0.000 A 
ATOM     23  C   UNL     1       0.650   1.671  -0.576  0.00  0.00    +0.000 A 
ATOM     24  F   UNL     1       1.005   2.482  -1.586  0.00  0.00    +0.000 F 
ATOM     25  C   UNL     1      -0.715   1.494  -0.331  0.00  0.00    +0.000 A 
BRANCH  19  27
ATOM     26  N   UNL     1      -3.662   0.443   1.250  0.00  0.00    +0.000 NA
ATOM     27  C   UNL     1      -2.533   0.539   1.013  0.00  0.00    +0.000 C 
ENDBRANCH  19  27
ENDBRANCH  15  22
ENDBRANCH   1  15
TORSDOF 5
