REMARK  Name = 
REMARK  7 active torsions:
REMARK  status: ('A' for Active; 'I' for Inactive)
REMARK    1  A    between atoms: C_1  and  C_2
REMARK    2  A    between atoms: C_2  and  N_3
REMARK    3  A    between atoms: C_2  and  C_11
REMARK    4  A    between atoms: C_4  and  C_6
REMARK    5  A    between atoms: C_14  and  C_15
REMARK    6  A    between atoms: C_15  and  N_16
REMARK    7  A    between atoms: C_17  and  C_19
REMARK                            x       y       z     vdW  Elec       q    Type
REMARK                         _______ _______ _______ _____ _____    ______ ____
ROOT
ATOM      1  C   UNL     1       3.069   0.339  -1.358  0.00  0.00    +0.000 A 
ATOM      2  C   UNL     1       2.938   1.701  -1.681  0.00  0.00    +0.000 A 
ATOM      3  C   UNL     1       3.348   2.192  -2.926  0.00  0.00    +0.000 A 
ATOM      4  C   UNL     1       3.896   1.332  -3.885  0.00  0.00    +0.000 A 
ATOM      5  C   UNL     1       4.066  -0.018  -3.554  0.00  0.00    +0.000 A 
ATOM      6  C   UNL     1       3.643  -0.513  -2.314  0.00  0.00    +0.000 A 
ENDROOT
BRANCH   1   8
ATOM      7  C   UNL     1       1.030  -0.617  -0.308  0.00  0.00    +0.000 C 
ATOM      8  C   UNL     1       2.477  -0.174  -0.051  0.00  0.00    +0.000 C 
BRANCH   8   9
ATOM      9  N   UNL     1       3.264  -1.230   0.560  0.00  0.00    +0.000 N 
ATOM     10  C   UNL     1       2.985  -1.737   1.810  0.00  0.00    +0.000 C 
ATOM     11  O   UNL     1       2.063  -1.334   2.514  0.00  0.00    +0.000 OA
ATOM     12  H   UNL     1       4.126  -1.555   0.133  0.00  0.00    +0.000 HD
BRANCH  10  13
ATOM     13  C   UNL     1       3.866  -2.810   2.229  0.00  0.00    +0.000 A 
ATOM     14  N   UNL     1       4.900  -3.269   1.543  0.00  0.00    +0.000 NA
ATOM     15  C   UNL     1       5.415  -4.290   2.305  0.00  0.00    +0.000 A 
ATOM     16  C   UNL     1       4.692  -4.455   3.462  0.00  0.00    +0.000 A 
ATOM     17  N   UNL     1       3.711  -3.506   3.402  0.00  0.00    +0.000 N 
ATOM     18  H   UNL     1       2.977  -3.332   4.077  0.00  0.00    +0.000 HD
ENDBRANCH  10  13
ENDBRANCH   8   9
ENDBRANCH   1   8
BRANCH   4  19
ATOM     19  C   UNL     1       4.301   1.846  -5.243  0.00  0.00    +0.000 C 
BRANCH  19  20
ATOM     20  N   UNL     1       5.669   2.298  -5.252  0.00  0.00    +0.000 N 
ATOM     21  C   UNL     1       6.215   2.876  -6.372  0.00  0.00    +0.000 C 
ATOM     22  O   UNL     1       5.554   3.073  -7.388  0.00  0.00    +0.000 OA
ATOM     23  H   UNL     1       6.278   1.940  -4.525  0.00  0.00    +0.000 HD
BRANCH  21  24
ATOM     24  C   UNL     1       7.615   3.306  -6.274  0.00  0.00    +0.000 A 
ATOM     25  C   UNL     1       8.092   4.293  -7.125  0.00  0.00    +0.000 A 
ATOM     26  S   UNL     1       9.720   4.712  -6.843  0.00  0.00    +0.000 S 
ATOM     27  C   UNL     1       9.864   3.548  -5.609  0.00  0.00    +0.000 A 
ATOM     28  N   UNL     1      11.042   3.366  -4.953  0.00  0.00    +0.000 NA
ATOM     29  C   UNL     1      11.020   2.429  -4.067  0.00  0.00    +0.000 A 
ATOM     30  N   UNL     1       9.922   1.661  -3.772  0.00  0.00    +0.000 N 
ATOM     31  C   UNL     1       8.703   1.829  -4.387  0.00  0.00    +0.000 A 
ATOM     32  O   UNL     1       7.730   1.152  -4.071  0.00  0.00    +0.000 OA
ATOM     33  C   UNL     1       8.680   2.862  -5.404  0.00  0.00    +0.000 A 
ATOM     34  H   UNL     1       9.965   0.947  -3.060  0.00  0.00    +0.000 HD
ENDBRANCH  21  24
ENDBRANCH  19  20
ENDBRANCH   4  19
TORSDOF 6
