REMARK  Name = 
REMARK  7 active torsions:
REMARK  status: ('A' for Active; 'I' for Inactive)
REMARK    1  A    between atoms: C_1  and  C_2
REMARK    2  A    between atoms: C_2  and  N_3
REMARK    3  A    between atoms: C_2  and  C_12
REMARK    4  A    between atoms: C_4  and  C_6
REMARK    5  A    between atoms: C_15  and  C_16
REMARK    6  A    between atoms: C_16  and  N_17
REMARK    7  A    between atoms: C_18  and  C_20
REMARK                            x       y       z     vdW  Elec       q    Type
REMARK                         _______ _______ _______ _____ _____    ______ ____
ROOT
ATOM      1  C   UNL     1       2.977  -1.137   0.898  0.00  0.00    +0.000 A 
ATOM      2  C   UNL     1       3.817  -1.009   2.005  0.00  0.00    +0.000 A 
ATOM      3  C   UNL     1       4.177  -2.149   2.724  0.00  0.00    +0.000 A 
ATOM      4  C   UNL     1       3.714  -3.402   2.319  0.00  0.00    +0.000 A 
ATOM      5  C   UNL     1       2.893  -3.439   1.200  0.00  0.00    +0.000 A 
ATOM      6  N   UNL     1       2.522  -2.350   0.491  0.00  0.00    +0.000 NA
ENDROOT
BRANCH   1   8
ATOM      7  C   UNL     1       1.658   1.003   1.036  0.00  0.00    +0.000 C 
ATOM      8  C   UNL     1       2.466   0.072   0.126  0.00  0.00    +0.000 C 
BRANCH   8   9
ATOM      9  N   UNL     1       3.530   0.790  -0.562  0.00  0.00    +0.000 N 
ATOM     10  C   UNL     1       3.301   1.518  -1.711  0.00  0.00    +0.000 C 
ATOM     11  O   UNL     1       2.216   1.560  -2.286  0.00  0.00    +0.000 OA
ATOM     12  H   UNL     1       4.440   0.919  -0.131  0.00  0.00    +0.000 HD
BRANCH  10  13
ATOM     13  C   UNL     1       4.540   2.263  -2.249  0.00  0.00    +0.000 C 
ATOM     14  C   UNL     1       5.349   1.353  -3.179  0.00  0.00    +0.000 C 
ATOM     15  C   UNL     1       6.624   2.042  -3.662  0.00  0.00    +0.000 C 
ATOM     16  C   UNL     1       7.418   2.600  -2.485  0.00  0.00    +0.000 C 
ATOM     17  C   UNL     1       6.539   3.467  -1.586  0.00  0.00    +0.000 C 
ATOM     18  N   UNL     1       5.371   2.726  -1.103  0.00  0.00    +0.000 NA
ATOM     19  H   UNL     1       4.797   3.361  -0.543  0.00  0.00    +0.000 HD
ENDBRANCH  10  13
ENDBRANCH   8   9
ENDBRANCH   1   8
BRANCH   4  20
ATOM     20  C   UNL     1       4.021  -4.657   3.083  0.00  0.00    +0.000 C 
BRANCH  20  21
ATOM     21  N   UNL     1       3.016  -4.914   4.085  0.00  0.00    +0.000 N 
ATOM     22  C   UNL     1       3.133  -5.961   4.963  0.00  0.00    +0.000 C 
ATOM     23  O   UNL     1       4.123  -6.688   4.975  0.00  0.00    +0.000 OA
ATOM     24  H   UNL     1       2.106  -4.481   3.953  0.00  0.00    +0.000 HD
BRANCH  22  25
ATOM     25  C   UNL     1       2.041  -6.135   5.930  0.00  0.00    +0.000 A 
ATOM     26  C   UNL     1       2.277  -6.818   7.116  0.00  0.00    +0.000 A 
ATOM     27  S   UNL     1       0.920  -6.890   8.147  0.00  0.00    +0.000 S 
ATOM     28  C   UNL     1      -0.047  -6.057   7.023  0.00  0.00    +0.000 A 
ATOM     29  N   UNL     1      -1.358  -5.805   7.280  0.00  0.00    +0.000 NA
ATOM     30  C   UNL     1      -1.983  -5.196   6.328  0.00  0.00    +0.000 A 
ATOM     31  N   UNL     1      -1.410  -4.808   5.144  0.00  0.00    +0.000 N 
ATOM     32  C   UNL     1      -0.081  -5.008   4.855  0.00  0.00    +0.000 A 
ATOM     33  O   UNL     1       0.416  -4.598   3.812  0.00  0.00    +0.000 OA
ATOM     34  C   UNL     1       0.661  -5.709   5.887  0.00  0.00    +0.000 A 
ATOM     35  H   UNL     1      -1.951  -4.320   4.444  0.00  0.00    +0.000 HD
ENDBRANCH  22  25
ENDBRANCH  20  21
ENDBRANCH   4  20
TORSDOF 6
