REMARK  Name = 
REMARK  6 active torsions:
REMARK  status: ('A' for Active; 'I' for Inactive)
REMARK    1  A    between atoms: C_2  and  C_3
REMARK    2  A    between atoms: C_6  and  C_7
REMARK    3  A    between atoms: C_7  and  C_8
REMARK    4  A    between atoms: C_11  and  C_12
REMARK    5  A    between atoms: C_12  and  N_13
REMARK    6  A    between atoms: C_14  and  C_16
REMARK                            x       y       z     vdW  Elec       q    Type
REMARK                         _______ _______ _______ _____ _____    ______ ____
ROOT
ATOM      1  C   UNL     1      -7.086   3.712   0.848  0.00  0.00    +0.000 C 
ENDROOT
BRANCH   1   5
ATOM      2  C   UNL     1      -4.124   0.819  -0.131  0.00  0.00    +0.000 A 
ATOM      3  C   UNL     1      -3.795   2.170  -0.228  0.00  0.00    +0.000 A 
ATOM      4  C   UNL     1      -4.747   3.127   0.102  0.00  0.00    +0.000 A 
ATOM      5  C   UNL     1      -6.025   2.720   0.484  0.00  0.00    +0.000 A 
ATOM      6  C   UNL     1      -6.286   1.356   0.486  0.00  0.00    +0.000 A 
ATOM      7  N   UNL     1      -5.363   0.402   0.214  0.00  0.00    +0.000 NA
BRANCH   2   8
ATOM      8  C   UNL     1      -3.086  -0.239  -0.411  0.00  0.00    +0.000 C 
BRANCH   8  12
ATOM      9  C   UNL     1       0.608  -0.078   0.177  0.00  0.00    +0.000 C 
ATOM     10  C   UNL     1      -0.373   1.007   0.643  0.00  0.00    +0.000 C 
ATOM     11  C   UNL     1      -1.478   0.431   1.526  0.00  0.00    +0.000 C 
ATOM     12  C   UNL     1      -2.265  -0.691   0.824  0.00  0.00    +0.000 C 
ATOM     13  C   UNL     1      -1.263  -1.795   0.435  0.00  0.00    +0.000 C 
ATOM     14  C   UNL     1      -0.125  -1.276  -0.449  0.00  0.00    +0.000 C 
BRANCH   9  16
ATOM     15  N   UNL     1       2.329   0.949  -1.537  0.00  0.00    +0.000 NA
ATOM     16  C   UNL     1       1.577   0.493  -0.783  0.00  0.00    +0.000 C 
ENDBRANCH   9  16
ENDBRANCH   8  12
ENDBRANCH   2   8
ENDBRANCH   1   5
BRANCH   1  17
ATOM     17  N   UNL     1      -7.824   4.147  -0.309  0.00  0.00    +0.000 N 
ATOM     18  C   UNL     1      -9.013   3.574  -0.676  0.00  0.00    +0.000 C 
ATOM     19  O   UNL     1      -9.522   2.656  -0.039  0.00  0.00    +0.000 OA
ATOM     20  H   UNL     1      -7.330   4.735  -0.972  0.00  0.00    +0.000 HD
BRANCH  18  21
ATOM     21  C   UNL     1      -9.687   4.171  -1.833  0.00  0.00    +0.000 A 
ATOM     22  C   UNL     1     -11.065   4.052  -1.960  0.00  0.00    +0.000 A 
ATOM     23  S   UNL     1     -11.693   4.831  -3.340  0.00  0.00    +0.000 S 
ATOM     24  C   UNL     1     -10.141   5.316  -3.840  0.00  0.00    +0.000 A 
ATOM     25  N   UNL     1      -9.966   6.013  -4.996  0.00  0.00    +0.000 NA
ATOM     26  C   UNL     1      -8.734   6.284  -5.271  0.00  0.00    +0.000 A 
ATOM     27  N   UNL     1      -7.664   5.935  -4.491  0.00  0.00    +0.000 N 
ATOM     28  C   UNL     1      -7.798   5.296  -3.282  0.00  0.00    +0.000 A 
ATOM     29  O   UNL     1      -6.832   5.110  -2.546  0.00  0.00    +0.000 OA
ATOM     30  C   UNL     1      -9.160   4.919  -2.949  0.00  0.00    +0.000 A 
ATOM     31  H   UNL     1      -6.726   6.205  -4.750  0.00  0.00    +0.000 HD
ENDBRANCH  18  21
ENDBRANCH   1  17
TORSDOF 6
