REMARK  Name = 
REMARK  10 active torsions:
REMARK  status: ('A' for Active; 'I' for Inactive)
REMARK    1  A    between atoms: C_1  and  C_2
REMARK    2  A    between atoms: C_2  and  N_3
REMARK    3  A    between atoms: C_2  and  C_21
REMARK    4  A    between atoms: N_3  and  C_4
REMARK    5  A    between atoms: C_4  and  C_5
REMARK    6  A    between atoms: C_8  and  C_9
REMARK    7  A    between atoms: C_9  and  C_10
REMARK    8  A    between atoms: C_10  and  C_11
REMARK    9  A    between atoms: C_11  and  O_12
REMARK   10  A    between atoms: C_11  and  C_13
REMARK                            x       y       z     vdW  Elec       q    Type
REMARK                         _______ _______ _______ _____ _____    ______ ____
ROOT
ATOM      1  C   UNL     1       9.926  11.446   2.914  0.00  0.00    +0.000 A 
ATOM      2  C   UNL     1       9.311  10.488   2.111  0.00  0.00    +0.000 A 
ATOM      3  C   UNL     1       7.930  10.318   2.194  0.00  0.00    +0.000 A 
ATOM      4  C   UNL     1       7.187  11.086   3.091  0.00  0.00    +0.000 A 
ATOM      5  C   UNL     1       7.883  12.019   3.852  0.00  0.00    +0.000 A 
ATOM      6  N   UNL     1       9.222  12.210   3.786  0.00  0.00    +0.000 NA
ENDROOT
BRANCH   1   7
ATOM      7  C   UNL     1      11.436  11.633   2.878  0.00  0.00    +0.000 C 
BRANCH   7   8
ATOM      8  N   UNL     1      11.948  12.008   1.553  0.00  0.00    +0.000 NA
ATOM      9  H   UNL     1      11.682  11.295   0.879  0.00  0.00    +0.000 HD
BRANCH   8  11
ATOM     10  C   UNL     1      13.926  13.243   2.464  0.00  0.00    +0.000 C 
ATOM     11  C   UNL     1      13.411  12.166   1.501  0.00  0.00    +0.000 C 
BRANCH  11  12
ATOM     12  C   UNL     1      13.738  12.532   0.060  0.00  0.00    +0.000 A 
ATOM     13  C   UNL     1      13.219  13.650  -0.579  0.00  0.00    +0.000 A 
ATOM     14  S   UNL     1      13.679  13.778  -2.215  0.00  0.00    +0.000 S 
ATOM     15  C   UNL     1      14.599  12.350  -2.126  0.00  0.00    +0.000 A 
ATOM     16  N   UNL     1      15.234  11.861  -3.226  0.00  0.00    +0.000 NA
ATOM     17  C   UNL     1      15.902  10.773  -3.011  0.00  0.00    +0.000 A 
ATOM     18  N   UNL     1      16.005  10.146  -1.796  0.00  0.00    +0.000 N 
ATOM     19  C   UNL     1      15.410  10.622  -0.647  0.00  0.00    +0.000 A 
ATOM     20  O   UNL     1      15.589  10.081   0.438  0.00  0.00    +0.000 OA
ATOM     21  C   UNL     1      14.596  11.808  -0.853  0.00  0.00    +0.000 A 
ATOM     22  H   UNL     1      16.577   9.320  -1.695  0.00  0.00    +0.000 HD
ENDBRANCH  11  12
ENDBRANCH   8  11
ENDBRANCH   7   8
ENDBRANCH   1   7
BRANCH   4  23
ATOM     23  C   UNL     1       5.698  10.914   3.231  0.00  0.00    +0.000 C 
BRANCH  23  24
ATOM     24  C   UNL     1       5.317   9.500   3.692  0.00  0.00    +0.000 C 
BRANCH  24  25
ATOM     25  C   UNL     1       3.804   9.351   3.890  0.00  0.00    +0.000 C 
BRANCH  25  26
ATOM     26  C   UNL     1       3.443   7.954   4.366  0.00  0.00    +0.000 A 
ATOM     27  C   UNL     1       2.612   7.133   3.604  0.00  0.00    +0.000 A 
ATOM     28  C   UNL     1       2.286   5.869   4.091  0.00  0.00    +0.000 A 
ATOM     29  C   UNL     1       2.793   5.461   5.319  0.00  0.00    +0.000 A 
ATOM     30  C   UNL     1       3.606   6.338   6.016  0.00  0.00    +0.000 A 
ATOM     31  N   UNL     1       3.932   7.573   5.578  0.00  0.00    +0.000 NA
ENDBRANCH  25  26
BRANCH  25  32
ATOM     32  O   UNL     1       3.380  10.299   4.876  0.00  0.00    +0.000 OA
ATOM     33  H   UNL     1       3.621   9.892   5.732  0.00  0.00    +0.000 HD
ENDBRANCH  25  32
ENDBRANCH  24  25
ENDBRANCH  23  24
ENDBRANCH   4  23
TORSDOF 9
