REMARK  Name = 
REMARK  5 active torsions:
REMARK  status: ('A' for Active; 'I' for Inactive)
REMARK    1  A    between atoms: N_1  and  C_2
REMARK    2  A    between atoms: C_2  and  C_3
REMARK    3  A    between atoms: C_3  and  N_4
REMARK    4  A    between atoms: C_7  and  C_8
REMARK    5  A    between atoms: C_8  and  N_9
REMARK                            x       y       z     vdW  Elec       q    Type
REMARK                         _______ _______ _______ _____ _____    ______ ____
ROOT
ATOM      1  N   UNL     1       4.381   1.298  -0.007  0.00  0.00    +0.000 NA
ATOM      2  C   UNL     1       4.929   2.624   0.323  0.00  0.00    +0.000 C 
ATOM      3  C   UNL     1       6.455   2.623   0.301  0.00  0.00    +0.000 C 
ATOM      4  C   UNL     1       7.036   1.606   1.286  0.00  0.00    +0.000 C 
ATOM      5  C   UNL     1       6.456   0.230   0.915  0.00  0.00    +0.000 C 
ATOM      6  C   UNL     1       4.921   0.238   0.863  0.00  0.00    +0.000 C 
ENDROOT
BRANCH   1   7
ATOM      7  C   UNL     1       2.900   1.296   0.066  0.00  0.00    +0.000 C 
BRANCH   7   8
ATOM      8  C   UNL     1       2.218   2.245  -0.945  0.00  0.00    +0.000 C 
BRANCH   8   9
ATOM      9  N   UNL     1       0.757   2.213  -0.834  0.00  0.00    +0.000 NA
ATOM     10  H   UNL     1       0.367   2.860  -1.519  0.00  0.00    +0.000 HD
ATOM     11  H   UNL     1       0.484   2.575   0.079  0.00  0.00    +0.000 HD
ENDBRANCH   8   9
ENDBRANCH   7   8
ENDBRANCH   1   7
BRANCH   4  12
ATOM     12  C   UNL     1       6.750   1.934   2.765  0.00  0.00    +0.000 C 
BRANCH  12  13
ATOM     13  N   UNL     1       7.209   3.237   3.203  0.00  0.00    +0.000 N 
ATOM     14  N   UNL     1       6.377   4.307   3.114  0.00  0.00    +0.000 NA
ATOM     15  C   UNL     1       7.065   5.282   3.717  0.00  0.00    +0.000 A 
ATOM     16  C   UNL     1       8.315   4.850   4.207  0.00  0.00    +0.000 A 
ATOM     17  C   UNL     1       9.388   5.400   4.920  0.00  0.00    +0.000 A 
ATOM     18  C   UNL     1      10.459   4.553   5.208  0.00  0.00    +0.000 A 
ATOM     19  C   UNL     1      10.414   3.231   4.777  0.00  0.00    +0.000 A 
ATOM     20  N   UNL     1       9.401   2.656   4.090  0.00  0.00    +0.000 NA
ATOM     21  C   UNL     1       8.388   3.514   3.841  0.00  0.00    +0.000 A 
ENDBRANCH  12  13
ENDBRANCH   4  12
TORSDOF 5
