REMARK  Name = 
REMARK  8 active torsions:
REMARK  status: ('A' for Active; 'I' for Inactive)
REMARK    1  A    between atoms: N_1  and  C_2
REMARK    2  A    between atoms: C_2  and  C_3
REMARK    3  A    between atoms: C_6  and  N_7
REMARK    4  A    between atoms: N_7  and  C_8
REMARK    5  A    between atoms: C_8  and  C_9
REMARK    6  A    between atoms: N_13  and  C_14
REMARK    7  A    between atoms: C_14  and  C_15
REMARK    8  A    between atoms: C_15  and  C_16
REMARK                            x       y       z     vdW  Elec       q    Type
REMARK                         _______ _______ _______ _____ _____    ______ ____
ROOT
ATOM      1  C   UNL     1       4.264   8.225  -2.137  0.00  0.00    +0.000 C 
ENDROOT
BRANCH   1   2
ATOM      2  C   UNL     1       4.021   8.032  -0.636  0.00  0.00    +0.000 C 
ATOM      3  C   UNL     1       5.048   7.201   0.130  0.00  0.00    +0.000 C 
ATOM      4  C   UNL     1       4.804   7.348   1.640  0.00  0.00    +0.000 C 
ATOM      5  C   UNL     1       4.780   8.818   2.092  0.00  0.00    +0.000 C 
ATOM      6  N   UNL     1       3.794   9.613   1.339  0.00  0.00    +0.000 NA
ATOM      7  C   UNL     1       4.034   9.473  -0.095  0.00  0.00    +0.000 C 
BRANCH   6   8
ATOM      8  C   UNL     1       3.861  11.046   1.724  0.00  0.00    +0.000 C 
BRANCH   8   9
ATOM      9  C   UNL     1       2.822  11.919   1.003  0.00  0.00    +0.000 C 
BRANCH   9  10
ATOM     10  C   UNL     1       2.926  13.380   1.373  0.00  0.00    +0.000 C 
ATOM     11  F   UNL     1       3.870  13.621   2.306  0.00  0.00    +0.000 F 
ATOM     12  F   UNL     1       3.239  14.120   0.282  0.00  0.00    +0.000 F 
ATOM     13  F   UNL     1       1.748  13.842   1.845  0.00  0.00    +0.000 F 
ENDBRANCH   9  10
ENDBRANCH   8   9
ENDBRANCH   6   8
ENDBRANCH   1   2
BRANCH   1  14
ATOM     14  N   UNL     1       4.102   7.062  -3.000  0.00  0.00    +0.000 N 
ATOM     15  H   UNL     1       4.746   6.308  -2.773  0.00  0.00    +0.000 HD
BRANCH  14  19
ATOM     16  C   UNL     1       4.274   7.908  -7.133  0.00  0.00    +0.000 A 
ATOM     17  C   UNL     1       3.776   8.879  -6.280  0.00  0.00    +0.000 A 
ATOM     18  C   UNL     1       3.710   8.605  -4.913  0.00  0.00    +0.000 A 
ATOM     19  C   UNL     1       4.175   7.395  -4.386  0.00  0.00    +0.000 A 
ATOM     20  C   UNL     1       4.610   6.472  -5.335  0.00  0.00    +0.000 A 
ATOM     21  N   UNL     1       4.689   6.699  -6.678  0.00  0.00    +0.000 NA
BRANCH  16  22
ATOM     22  C   UNL     1       4.315   8.173  -8.625  0.00  0.00    +0.000 C 
BRANCH  22  23
ATOM     23  N   UNL     1       5.109   9.357  -8.979  0.00  0.00    +0.000 NA
ATOM     24  H   UNL     1       5.128   9.438  -9.993  0.00  0.00    +0.000 HD
ATOM     25  H   UNL     1       6.073   9.185  -8.692  0.00  0.00    +0.000 HD
ENDBRANCH  22  23
ENDBRANCH  16  22
ENDBRANCH  14  19
ENDBRANCH   1  14
TORSDOF 8
