REMARK  Name = 
REMARK  10 active torsions:
REMARK  status: ('A' for Active; 'I' for Inactive)
REMARK    1  A    between atoms: C_1  and  C_2
REMARK    2  A    between atoms: C_2  and  N_3
REMARK    3  A    between atoms: C_2  and  C_25
REMARK    4  A    between atoms: N_3  and  C_4
REMARK    5  A    between atoms: C_6  and  C_7
REMARK    6  A    between atoms: C_12  and  C_13
REMARK    7  A    between atoms: C_13  and  C_14
REMARK    8  A    between atoms: C_14  and  N_15
REMARK    9  A    between atoms: N_15  and  C_16
REMARK   10  A    between atoms: C_20  and  C_21
REMARK                            x       y       z     vdW  Elec       q    Type
REMARK                         _______ _______ _______ _____ _____    ______ ____
ROOT
ATOM      1  C   UNL     1       2.533  -1.961  -1.597  0.00  0.00    +0.000 A 
ATOM      2  C   UNL     1       1.187  -2.366  -1.636  0.00  0.00    +0.000 A 
ATOM      3  C   UNL     1       0.803  -3.646  -2.063  0.00  0.00    +0.000 A 
ATOM      4  C   UNL     1       1.785  -4.526  -2.519  0.00  0.00    +0.000 A 
ATOM      5  C   UNL     1       3.129  -4.141  -2.500  0.00  0.00    +0.000 A 
ATOM      6  C   UNL     1       3.523  -2.878  -2.017  0.00  0.00    +0.000 A 
ENDROOT
BRANCH   3   7
ATOM      7  C   UNL     1      -0.647  -3.993  -1.989  0.00  0.00    +0.000 C 
ATOM      8  N   UNL     1      -1.045  -5.251  -2.348  0.00  0.00    +0.000 N 
ATOM      9  O   UNL     1      -1.483  -3.187  -1.594  0.00  0.00    +0.000 OA
ATOM     10  H   UNL     1      -0.433  -6.003  -2.619  0.00  0.00    +0.000 HD
ATOM     11  H   UNL     1      -2.027  -5.463  -2.224  0.00  0.00    +0.000 HD
ENDBRANCH   3   7
BRANCH   1  12
ATOM     12  N   UNL     1       2.902  -0.662  -1.164  0.00  0.00    +0.000 N 
ATOM     13  H   UNL     1       3.440  -0.184  -1.884  0.00  0.00    +0.000 HD
BRANCH  12  15
ATOM     14  C   UNL     1       1.408  -0.263   0.829  0.00  0.00    +0.000 C 
ATOM     15  C   UNL     1       2.130   0.199  -0.402  0.00  0.00    +0.000 C 
ATOM     16  C   UNL     1       2.110   1.662  -0.721  0.00  0.00    +0.000 C 
ENDBRANCH  12  15
ENDBRANCH   1  12
BRANCH   6  17
ATOM     17  C   UNL     1       5.011  -2.569  -1.951  0.00  0.00    +0.000 C 
BRANCH  17  18
ATOM     18  C   UNL     1       5.544  -1.996  -3.268  0.00  0.00    +0.000 C 
BRANCH  18  19
ATOM     19  N   UNL     1       6.998  -1.766  -3.210  0.00  0.00    +0.000 N 
ATOM     20  H   UNL     1       7.507  -2.574  -2.857  0.00  0.00    +0.000 HD
BRANCH  19  21
ATOM     21  C   UNL     1       7.607  -1.242  -4.369  0.00  0.00    +0.000 A 
ATOM     22  C   UNL     1       6.956  -0.342  -5.218  0.00  0.00    +0.000 A 
ATOM     23  C   UNL     1       7.617   0.164  -6.328  0.00  0.00    +0.000 A 
ATOM     24  N   UNL     1       8.886  -0.141  -6.647  0.00  0.00    +0.000 NA
ATOM     25  C   UNL     1       9.532  -0.971  -5.782  0.00  0.00    +0.000 A 
ATOM     26  C   UNL     1       8.951  -1.519  -4.639  0.00  0.00    +0.000 A 
BRANCH  25  27
ATOM     27  C   UNL     1      10.951  -1.300  -6.146  0.00  0.00    +0.000 C 
ATOM     28  N   UNL     1      11.398  -0.725  -7.308  0.00  0.00    +0.000 N 
ATOM     29  O   UNL     1      11.657  -2.035  -5.469  0.00  0.00    +0.000 OA
ATOM     30  H   UNL     1      10.767  -0.136  -7.840  0.00  0.00    +0.000 HD
ATOM     31  H   UNL     1      12.335  -0.911  -7.632  0.00  0.00    +0.000 HD
ENDBRANCH  25  27
ENDBRANCH  19  21
ENDBRANCH  18  19
ENDBRANCH  17  18
ENDBRANCH   6  17
TORSDOF 8
