REMARK  Name = 
REMARK  5 active torsions:
REMARK  status: ('A' for Active; 'I' for Inactive)
REMARK    1  A    between atoms: C_2  and  C_4
REMARK    2  A    between atoms: N_8  and  C_9
REMARK    3  A    between atoms: C_9  and  C_10
REMARK    4  A    between atoms: C_10  and  C_11
REMARK    5  A    between atoms: C_15  and  C_16
REMARK                            x       y       z     vdW  Elec       q    Type
REMARK                         _______ _______ _______ _____ _____    ______ ____
ROOT
ATOM      1  C   UNL     1       4.599   4.581  -4.048  0.00  0.00    +0.000 C 
ENDROOT
BRANCH   1   6
ATOM      2  C   UNL     1       3.054   0.783  -1.012  0.00  0.00    +0.000 A 
ATOM      3  C   UNL     1       2.663   2.112  -1.101  0.00  0.00    +0.000 A 
ATOM      4  C   UNL     1       3.294   2.940  -2.026  0.00  0.00    +0.000 A 
ATOM      5  C   UNL     1       4.306   2.437  -2.842  0.00  0.00    +0.000 A 
ATOM      6  N   UNL     1       4.942   3.200  -3.790  0.00  0.00    +0.000 N 
ATOM      7  N   UNL     1       4.712   1.156  -2.741  0.00  0.00    +0.000 NA
ATOM      8  C   UNL     1       4.090   0.358  -1.828  0.00  0.00    +0.000 A 
ATOM      9  H   UNL     1       5.669   2.716  -4.302  0.00  0.00    +0.000 HD
BRANCH   2  11
ATOM     10  N   UNL     1       1.103   0.090   0.248  0.00  0.00    +0.000 N 
ATOM     11  C   UNL     1       2.406  -0.163  -0.080  0.00  0.00    +0.000 C 
ATOM     12  O   UNL     1       2.997  -1.143   0.351  0.00  0.00    +0.000 OA
ATOM     13  H   UNL     1       0.631  -0.605   0.813  0.00  0.00    +0.000 HD
ATOM     14  H   UNL     1       0.526   0.737  -0.272  0.00  0.00    +0.000 HD
ENDBRANCH   2  11
ENDBRANCH   1   6
BRANCH   1  15
ATOM     15  C   UNL     1       5.427   5.188  -5.181  0.00  0.00    +0.000 C 
BRANCH  15  16
ATOM     16  C   UNL     1       5.038   6.631  -5.383  0.00  0.00    +0.000 A 
ATOM     17  C   UNL     1       5.658   7.643  -4.664  0.00  0.00    +0.000 A 
ATOM     18  N   UNL     1       5.302   8.941  -4.739  0.00  0.00    +0.000 NA
ATOM     19  C   UNL     1       4.278   9.247  -5.573  0.00  0.00    +0.000 A 
ATOM     20  C   UNL     1       3.574   8.331  -6.360  0.00  0.00    +0.000 A 
ATOM     21  C   UNL     1       3.986   6.994  -6.238  0.00  0.00    +0.000 A 
BRANCH  20  22
ATOM     22  C   UNL     1       2.469   8.745  -7.249  0.00  0.00    +0.000 A 
ATOM     23  C   UNL     1       1.369   7.917  -7.521  0.00  0.00    +0.000 A 
ATOM     24  C   UNL     1       0.345   8.342  -8.368  0.00  0.00    +0.000 A 
ATOM     25  C   UNL     1       0.434   9.604  -8.926  0.00  0.00    +0.000 A 
ATOM     26  N   UNL     1       1.463  10.442  -8.700  0.00  0.00    +0.000 NA
ATOM     27  C   UNL     1       2.447   9.993  -7.881  0.00  0.00    +0.000 A 
ENDBRANCH  20  22
ENDBRANCH  15  16
ENDBRANCH   1  15
TORSDOF 5
