REMARK  Name = 
REMARK  4 active torsions:
REMARK  status: ('A' for Active; 'I' for Inactive)
REMARK    1  A    between atoms: C_2  and  C_4
REMARK    2  A    between atoms: N_8  and  C_9
REMARK    3  A    between atoms: C_9  and  C_10
REMARK    4  A    between atoms: C_14  and  C_15
REMARK                            x       y       z     vdW  Elec       q    Type
REMARK                         _______ _______ _______ _____ _____    ______ ____
ROOT
ATOM      1  C   UNL     1       5.031   4.368   3.999  0.00  0.00    +0.000 C 
ENDROOT
BRANCH   1   6
ATOM      2  C   UNL     1       7.822   0.429   2.345  0.00  0.00    +0.000 A 
ATOM      3  C   UNL     1       7.951   1.189   3.501  0.00  0.00    +0.000 A 
ATOM      4  C   UNL     1       7.150   2.316   3.664  0.00  0.00    +0.000 A 
ATOM      5  C   UNL     1       6.235   2.670   2.677  0.00  0.00    +0.000 A 
ATOM      6  N   UNL     1       5.482   3.827   2.726  0.00  0.00    +0.000 N 
ATOM      7  N   UNL     1       6.089   1.931   1.559  0.00  0.00    +0.000 NA
ATOM      8  C   UNL     1       6.886   0.837   1.409  0.00  0.00    +0.000 A 
ATOM      9  H   UNL     1       4.821   3.838   1.957  0.00  0.00    +0.000 HD
BRANCH   2  11
ATOM     10  N   UNL     1       9.186  -1.407   3.156  0.00  0.00    +0.000 N 
ATOM     11  C   UNL     1       8.685  -0.737   2.073  0.00  0.00    +0.000 C 
ATOM     12  O   UNL     1       8.937  -1.096   0.932  0.00  0.00    +0.000 OA
ATOM     13  H   UNL     1       9.743  -2.229   2.973  0.00  0.00    +0.000 HD
ATOM     14  H   UNL     1       8.842  -1.270   4.098  0.00  0.00    +0.000 HD
ENDBRANCH   2  11
ENDBRANCH   1   6
BRANCH   1  15
ATOM     15  C   UNL     1       6.006   5.394   4.529  0.00  0.00    +0.000 A 
ATOM     16  C   UNL     1       6.313   6.527   3.784  0.00  0.00    +0.000 A 
ATOM     17  N   UNL     1       7.210   7.451   4.191  0.00  0.00    +0.000 NA
ATOM     18  C   UNL     1       7.808   7.187   5.377  0.00  0.00    +0.000 A 
ATOM     19  C   UNL     1       7.526   6.060   6.148  0.00  0.00    +0.000 A 
ATOM     20  N   UNL     1       6.603   5.155   5.729  0.00  0.00    +0.000 NA
BRANCH  19  21
ATOM     21  C   UNL     1       8.176   5.777   7.440  0.00  0.00    +0.000 A 
ATOM     22  C   UNL     1       9.482   6.216   7.730  0.00  0.00    +0.000 A 
ATOM     23  C   UNL     1      10.083   5.964   8.968  0.00  0.00    +0.000 A 
ATOM     24  C   UNL     1       9.390   5.258   9.940  0.00  0.00    +0.000 A 
ATOM     25  C   UNL     1       8.104   4.798   9.666  0.00  0.00    +0.000 A 
ATOM     26  F   UNL     1       7.440   4.111  10.599  0.00  0.00    +0.000 F 
ATOM     27  C   UNL     1       7.504   5.050   8.437  0.00  0.00    +0.000 A 
ENDBRANCH  19  21
ENDBRANCH   1  15
TORSDOF 4
