REMARK  Name = 
REMARK  8 active torsions:
REMARK  status: ('A' for Active; 'I' for Inactive)
REMARK    1  A    between atoms: C_1  and  C_2
REMARK    2  A    between atoms: C_2  and  C_3
REMARK    3  A    between atoms: C_2  and  C_4
REMARK    4  A    between atoms: C_2  and  C_5
REMARK    5  A    between atoms: C_7  and  C_8
REMARK    6  A    between atoms: C_8  and  N_9
REMARK    7  A    between atoms: CA_14  and  C_15
REMARK    8  A    between atoms: C_15  and  OXT_17
REMARK                            x       y       z     vdW  Elec       q    Type
REMARK                         _______ _______ _______ _____ _____    ______ ____
ROOT
ATOM      1  N   UNL     1       5.485   1.780  -4.966  0.00  0.00    +0.000 N 
ATOM      2  C   UNL     1       5.397   2.961  -5.697  0.00  0.00    +0.000 A 
ATOM      3  C   UNL     1       6.319   2.858  -6.708  0.00  0.00    +0.000 A 
ATOM      4  C   UNL     1       7.271   1.901  -6.288  0.00  0.00    +0.000 A 
ATOM      5  C   UNL     1       8.527   1.556  -6.783  0.00  0.00    +0.000 A 
ATOM      6  CA  UNL     1       9.287   0.745  -5.965  0.00  0.00    +0.000 A 
ATOM      7  N   UNL     1       8.855   0.166  -4.802  0.00  0.00    +0.000 NA
ATOM      8  C   UNL     1       7.570   0.396  -4.396  0.00  0.00    +0.000 A 
ATOM      9  C   UNL     1       6.780   1.290  -5.123  0.00  0.00    +0.000 A 
ENDROOT
BRANCH   6  10
ATOM     10  C   UNL     1      10.735   0.569  -6.306  0.00  0.00    +0.000 C 
ATOM     11  O   UNL     1      11.285   1.045  -7.293  0.00  0.00    +0.000 OA
BRANCH  10  12
ATOM     12  OXT UNL     1      11.376  -0.120  -5.341  0.00  0.00    +0.000 OA
ATOM     13  HXT UNL     1      10.726  -0.361  -4.639  0.00  0.00    +0.000 HD
ENDBRANCH  10  12
ENDBRANCH   6  10
BRANCH   1  14
ATOM     14  C   UNL     1       4.235   1.008  -4.870  0.00  0.00    +0.000 C 
BRANCH  14  17
ATOM     15  C   UNL     1       3.143  -0.317  -1.473  0.00  0.00    +0.000 A 
ATOM     16  C   UNL     1       3.606   0.581  -2.444  0.00  0.00    +0.000 A 
ATOM     17  C   UNL     1       3.989   0.099  -3.706  0.00  0.00    +0.000 A 
ATOM     18  C   UNL     1       3.899  -1.274  -3.951  0.00  0.00    +0.000 A 
ATOM     19  C   UNL     1       3.421  -2.094  -2.954  0.00  0.00    +0.000 A 
ATOM     20  N   UNL     1       3.043  -1.645  -1.743  0.00  0.00    +0.000 NA
BRANCH  15  22
ATOM     21  C   UNL     1       1.119   0.313  -0.150  0.00  0.00    +0.000 C 
ATOM     22  C   UNL     1       2.642   0.119  -0.086  0.00  0.00    +0.000 C 
ATOM     23  C   UNL     1       3.294   1.417   0.417  0.00  0.00    +0.000 C 
ATOM     24  C   UNL     1       2.954  -0.988   0.946  0.00  0.00    +0.000 C 
ENDBRANCH  15  22
ENDBRANCH  14  17
ENDBRANCH   1  14
TORSDOF 5
