REMARK  Name = 
REMARK  5 active torsions:
REMARK  status: ('A' for Active; 'I' for Inactive)
REMARK    1  A    between atoms: C_1  and  C_2
REMARK    2  A    between atoms: C_9  and  C_10
REMARK    3  A    between atoms: C_10  and  N_11
REMARK    4  A    between atoms: C_15  and  C_16
REMARK    5  A    between atoms: C_25  and  C_26
REMARK                            x       y       z     vdW  Elec       q    Type
REMARK                         _______ _______ _______ _____ _____    ______ ____
ROOT
ATOM      1  C   UNL     1       2.436   4.722  -4.771  0.00  0.00    +0.000 C 
ATOM      2  C   UNL     1       3.323   4.552  -5.988  0.00  0.00    +0.000 C 
ATOM      3  C   UNL     1       3.972   4.675  -4.655  0.00  0.00    +0.000 C 
ENDROOT
BRANCH   1  12
ATOM      4  C   UNL     1       3.665  -1.169  -4.593  0.00  0.00    +0.000 C 
ATOM      5  C   UNL     1       3.698  -1.358  -3.073  0.00  0.00    +0.000 C 
ATOM      6  C   UNL     1       2.463  -0.739  -2.358  0.00  0.00    +0.000 C 
ATOM      7  N   UNL     1       2.557   0.716  -2.252  0.00  0.00    +0.000 N 
ATOM      8  C   UNL     1       1.833   1.476  -3.152  0.00  0.00    +0.000 A 
ATOM      9  N   UNL     1       0.733   0.982  -3.737  0.00  0.00    +0.000 NA
ATOM     10  C   UNL     1       0.092   1.775  -4.621  0.00  0.00    +0.000 A 
ATOM     11  C   UNL     1       0.528   3.026  -4.977  0.00  0.00    +0.000 A 
ATOM     12  C   UNL     1       1.680   3.458  -4.354  0.00  0.00    +0.000 A 
ATOM     13  N   UNL     1       2.276   2.704  -3.409  0.00  0.00    +0.000 NA
ATOM     14  C   UNL     1       3.850   1.245  -1.786  0.00  0.00    +0.000 C 
ATOM     15  C   UNL     1       5.053   0.589  -2.517  0.00  0.00    +0.000 C 
ATOM     16  C   UNL     1       6.369   1.013  -1.857  0.00  0.00    +0.000 C 
ATOM     17  N   UNL     1       4.990  -0.893  -2.509  0.00  0.00    +0.000 NA
ATOM     18  H   UNL     1       5.025  -1.196  -1.535  0.00  0.00    +0.000 HD
ENDBRANCH   1  12
BRANCH   1  19
ATOM     19  N   UNL     1       1.925   5.970  -4.205  0.00  0.00    +0.000 N 
ATOM     20  C   UNL     1       0.933   6.785  -4.724  0.00  0.00    +0.000 A 
ATOM     21  C   UNL     1       0.764   7.045  -6.078  0.00  0.00    +0.000 A 
ATOM     22  C   UNL     1      -0.166   8.015  -6.476  0.00  0.00    +0.000 A 
ATOM     23  C   UNL     1      -0.910   8.687  -5.508  0.00  0.00    +0.000 A 
ATOM     24  C   UNL     1      -0.716   8.328  -4.184  0.00  0.00    +0.000 A 
ATOM     25  N   UNL     1       0.192   7.410  -3.781  0.00  0.00    +0.000 NA
ATOM     26  H   UNL     1       1.778   5.960  -3.194  0.00  0.00    +0.000 HD
BRANCH  23  27
ATOM     27  C   UNL     1      -1.868   9.770  -5.807  0.00  0.00    +0.000 C 
ATOM     28  N   UNL     1      -1.665  10.493  -6.949  0.00  0.00    +0.000 N 
ATOM     29  O   UNL     1      -2.785  10.042  -5.041  0.00  0.00    +0.000 OA
ATOM     30  H   UNL     1      -0.796  10.470  -7.461  0.00  0.00    +0.000 HD
ATOM     31  H   UNL     1      -2.254  11.309  -7.066  0.00  0.00    +0.000 HD
ENDBRANCH  23  27
ENDBRANCH   1  19
TORSDOF 3
