REMARK  Name = 
REMARK  4 active torsions:
REMARK  status: ('A' for Active; 'I' for Inactive)
REMARK    1  A    between atoms: C_2  and  C_4
REMARK    2  A    between atoms: C_7  and  O_8
REMARK    3  A    between atoms: O_8  and  C_9
REMARK    4  A    between atoms: C_9  and  C_10
REMARK                            x       y       z     vdW  Elec       q    Type
REMARK                         _______ _______ _______ _____ _____    ______ ____
ROOT
ATOM      1  C   UNL     1       2.346  -1.913  -0.013  0.00  0.00    +0.000 A 
ATOM      2  C   UNL     1       2.363  -2.749   1.112  0.00  0.00    +0.000 A 
ATOM      3  C   UNL     1       3.479  -3.550   1.374  0.00  0.00    +0.000 A 
ATOM      4  C   UNL     1       4.550  -3.550   0.486  0.00  0.00    +0.000 A 
ATOM      5  C   UNL     1       4.566  -2.677  -0.602  0.00  0.00    +0.000 A 
ATOM      6  C   UNL     1       3.461  -1.864  -0.860  0.00  0.00    +0.000 A 
ENDROOT
BRANCH   1   8
ATOM      7  N   UNL     1       0.259  -0.815   0.617  0.00  0.00    +0.000 N 
ATOM      8  C   UNL     1       1.146  -1.114  -0.379  0.00  0.00    +0.000 C 
ATOM      9  O   UNL     1       0.954  -0.731  -1.526  0.00  0.00    +0.000 OA
ATOM     10  H   UNL     1      -0.518  -0.220   0.362  0.00  0.00    +0.000 HD
ATOM     11  H   UNL     1       0.484  -0.903   1.597  0.00  0.00    +0.000 HD
ENDBRANCH   1   8
BRANCH   4  12
ATOM     12  O   UNL     1       5.623  -4.388   0.620  0.00  0.00    +0.000 OA
BRANCH  12  13
ATOM     13  C   UNL     1       5.353  -5.792   0.881  0.00  0.00    +0.000 C 
ATOM     14  C   UNL     1       5.356  -6.611  -0.408  0.00  0.00    +0.000 C 
ATOM     15  C   UNL     1       4.094  -6.484   0.374  0.00  0.00    +0.000 C 
BRANCH  13  16
ATOM     16  C   UNL     1       6.066  -6.379   2.088  0.00  0.00    +0.000 A 
ATOM     17  C   UNL     1       5.363  -6.770   3.244  0.00  0.00    +0.000 A 
ATOM     18  C   UNL     1       6.010  -7.398   4.311  0.00  0.00    +0.000 A 
ATOM     19  C   UNL     1       7.378  -7.621   4.243  0.00  0.00    +0.000 A 
ATOM     20  F   UNL     1       7.994  -8.252   5.251  0.00  0.00    +0.000 F 
ATOM     21  C   UNL     1       8.113  -7.204   3.143  0.00  0.00    +0.000 A 
ATOM     22  C   UNL     1       7.459  -6.582   2.076  0.00  0.00    +0.000 A 
ENDBRANCH  13  16
ENDBRANCH  12  13
ENDBRANCH   4  12
TORSDOF 4
