REMARK  Name = 
REMARK  7 active torsions:
REMARK  status: ('A' for Active; 'I' for Inactive)
REMARK    1  A    between atoms: C_1  and  N_2
REMARK    2  A    between atoms: N_2  and  C_3
REMARK    3  A    between atoms: C_3  and  C_4
REMARK    4  A    between atoms: C_7  and  C_8
REMARK    5  A    between atoms: C_8  and  N_9
REMARK    6  A    between atoms: C_10  and  C_12
REMARK    7  A    between atoms: C_19  and  C_21
REMARK                            x       y       z     vdW  Elec       q    Type
REMARK                         _______ _______ _______ _____ _____    ______ ____
ROOT
ATOM      1  C   UNL     1       3.099   0.960  -0.910  0.00  0.00    +0.000 C 
ENDROOT
BRANCH   1   2
ATOM      2  C   UNL     1       2.169   1.936  -1.594  0.00  0.00    +0.000 A 
ATOM      3  C   UNL     1       1.431   1.550  -2.706  0.00  0.00    +0.000 A 
ATOM      4  C   UNL     1       0.586   2.484  -3.304  0.00  0.00    +0.000 A 
ATOM      5  C   UNL     1       0.500   3.777  -2.785  0.00  0.00    +0.000 A 
ATOM      6  C   UNL     1       1.263   4.070  -1.663  0.00  0.00    +0.000 A 
ATOM      7  N   UNL     1       2.089   3.184  -1.063  0.00  0.00    +0.000 NA
BRANCH   5   8
ATOM      8  C   UNL     1      -0.396   4.809  -3.394  0.00  0.00    +0.000 C 
BRANCH   8   9
ATOM      9  N   UNL     1      -1.715   4.781  -2.821  0.00  0.00    +0.000 N 
ATOM     10  C   UNL     1      -2.703   5.639  -3.269  0.00  0.00    +0.000 C 
ATOM     11  O   UNL     1      -2.477   6.453  -4.161  0.00  0.00    +0.000 OA
ATOM     12  H   UNL     1      -1.961   4.134  -2.077  0.00  0.00    +0.000 HD
BRANCH  10  13
ATOM     13  C   UNL     1      -3.984   5.473  -2.592  0.00  0.00    +0.000 A 
ATOM     14  N   UNL     1      -4.184   4.589  -1.628  0.00  0.00    +0.000 NA
ATOM     15  C   UNL     1      -5.497   4.676  -1.203  0.00  0.00    +0.000 A 
ATOM     16  C   UNL     1      -6.275   5.616  -1.845  0.00  0.00    +0.000 A 
ATOM     17  S   UNL     1      -5.337   6.433  -3.024  0.00  0.00    +0.000 S 
ENDBRANCH  10  13
ENDBRANCH   8   9
ENDBRANCH   5   8
ENDBRANCH   1   2
BRANCH   1  19
ATOM     18  C   UNL     1       1.157   0.292   0.560  0.00  0.00    +0.000 C 
ATOM     19  N   UNL     1       2.524   0.066   0.106  0.00  0.00    +0.000 N 
ATOM     20  C   UNL     1       3.164  -1.087   0.585  0.00  0.00    +0.000 C 
ATOM     21  O   UNL     1       2.586  -1.872   1.334  0.00  0.00    +0.000 OA
BRANCH  20  22
ATOM     22  C   UNL     1       4.562  -1.349   0.213  0.00  0.00    +0.000 A 
ATOM     23  C   UNL     1       5.578  -0.409   0.243  0.00  0.00    +0.000 A 
ATOM     24  S   UNL     1       7.110  -1.044  -0.166  0.00  0.00    +0.000 S 
ATOM     25  C   UNL     1       6.489  -2.624  -0.253  0.00  0.00    +0.000 A 
ATOM     26  N   UNL     1       7.308  -3.689  -0.460  0.00  0.00    +0.000 NA
ATOM     27  C   UNL     1       6.707  -4.832  -0.419  0.00  0.00    +0.000 A 
ATOM     28  N   UNL     1       5.359  -5.003  -0.234  0.00  0.00    +0.000 N 
ATOM     29  C   UNL     1       4.477  -3.949  -0.175  0.00  0.00    +0.000 A 
ATOM     30  O   UNL     1       3.267  -4.130  -0.275  0.00  0.00    +0.000 OA
ATOM     31  C   UNL     1       5.119  -2.651  -0.076  0.00  0.00    +0.000 A 
ATOM     32  H   UNL     1       4.944  -5.921  -0.288  0.00  0.00    +0.000 HD
ENDBRANCH  20  22
ENDBRANCH   1  19
TORSDOF 6
