REMARK  Name = 
REMARK  6 active torsions:
REMARK  status: ('A' for Active; 'I' for Inactive)
REMARK    1  A    between atoms: C_2  and  C_19
REMARK    2  A    between atoms: N_3  and  C_4
REMARK    3  A    between atoms: C_4  and  C_5
REMARK    4  A    between atoms: C_8  and  C_9
REMARK    5  A    between atoms: C_9  and  N_10
REMARK    6  A    between atoms: N_10  and  C_11
REMARK                            x       y       z     vdW  Elec       q    Type
REMARK                         _______ _______ _______ _____ _____    ______ ____
ROOT
ATOM      1  C   UNL     1       2.203   2.211   1.109  0.00  0.00    +0.000 C 
ENDROOT
BRANCH   1   2
ATOM      2  C   UNL     1       3.111   3.291   1.629  0.00  0.00    +0.000 A 
ATOM      3  C   UNL     1       2.801   4.633   1.375  0.00  0.00    +0.000 A 
ATOM      4  C   UNL     1       3.585   5.663   1.899  0.00  0.00    +0.000 A 
ATOM      5  C   UNL     1       4.699   5.372   2.698  0.00  0.00    +0.000 A 
ATOM      6  C   UNL     1       5.019   4.030   2.937  0.00  0.00    +0.000 A 
ATOM      7  C   UNL     1       4.238   2.998   2.407  0.00  0.00    +0.000 A 
BRANCH   5   8
ATOM      8  C   UNL     1       5.608   6.453   3.230  0.00  0.00    +0.000 C 
BRANCH   8   9
ATOM      9  N   UNL     1       4.922   7.399   4.110  0.00  0.00    +0.000 NA
ATOM     10  H   UNL     1       4.506   6.881   4.885  0.00  0.00    +0.000 HD
BRANCH   9  11
ATOM     11  C   UNL     1       5.811   8.443   4.647  0.00  0.00    +0.000 C 
ATOM     12  C   UNL     1       4.988   9.373   5.550  0.00  0.00    +0.000 C 
ATOM     13  C   UNL     1       5.841  10.534   6.045  0.00  0.00    +0.000 C 
ATOM     14  O   UNL     1       6.415  11.251   4.955  0.00  0.00    +0.000 OA
ATOM     15  C   UNL     1       7.267  10.432   4.160  0.00  0.00    +0.000 C 
ATOM     16  C   UNL     1       6.492   9.275   3.551  0.00  0.00    +0.000 C 
ENDBRANCH   9  11
ENDBRANCH   8   9
ENDBRANCH   5   8
ENDBRANCH   1   2
BRANCH   1  19
ATOM     17  O   UNL     1       1.145   3.320  -1.211  0.00  0.00    +0.000 OA
ATOM     18  C   UNL     1       1.947   2.384  -1.306  0.00  0.00    +0.000 C 
ATOM     19  N   UNL     1       2.514   1.769  -0.220  0.00  0.00    +0.000 N 
ATOM     20  H   UNL     1       3.341   1.204  -0.348  0.00  0.00    +0.000 HD
BRANCH  18  21
ATOM     21  C   UNL     1       2.324   1.844  -2.603  0.00  0.00    +0.000 A 
ATOM     22  C   UNL     1       1.463   1.859  -3.690  0.00  0.00    +0.000 A 
ATOM     23  S   UNL     1       2.173   1.218  -5.110  0.00  0.00    +0.000 S 
ATOM     24  C   UNL     1       3.642   0.914  -4.306  0.00  0.00    +0.000 A 
ATOM     25  N   UNL     1       4.709   0.376  -4.952  0.00  0.00    +0.000 NA
ATOM     26  C   UNL     1       5.758   0.224  -4.215  0.00  0.00    +0.000 A 
ATOM     27  N   UNL     1       5.838   0.556  -2.885  0.00  0.00    +0.000 N 
ATOM     28  C   UNL     1       4.776   1.034  -2.177  0.00  0.00    +0.000 A 
ATOM     29  O   UNL     1       4.846   1.169  -0.949  0.00  0.00    +0.000 OA
ATOM     30  C   UNL     1       3.586   1.267  -2.970  0.00  0.00    +0.000 A 
ATOM     31  H   UNL     1       6.679   0.369  -2.354  0.00  0.00    +0.000 HD
ENDBRANCH  18  21
ENDBRANCH   1  19
TORSDOF 6
