REMARK  Name = 
REMARK  5 active torsions:
REMARK  status: ('A' for Active; 'I' for Inactive)
REMARK    1  A    between atoms: N_1  and  C_2
REMARK    2  A    between atoms: C_2  and  C_3
REMARK    3  A    between atoms: C_6  and  C_7
REMARK    4  A    between atoms: C_7  and  O_8
REMARK    5  A    between atoms: O_8  and  C_9
REMARK                            x       y       z     vdW  Elec       q    Type
REMARK                         _______ _______ _______ _____ _____    ______ ____
ROOT
ATOM      1  C   UNL     1       3.038   0.172   1.473  0.00  0.00    +0.000 A 
ATOM      2  C   UNL     1       3.144   1.447   2.026  0.00  0.00    +0.000 A 
ATOM      3  C   UNL     1       3.629   1.583   3.324  0.00  0.00    +0.000 A 
ATOM      4  C   UNL     1       4.005   0.448   4.043  0.00  0.00    +0.000 A 
ATOM      5  C   UNL     1       3.846  -0.784   3.419  0.00  0.00    +0.000 A 
ATOM      6  N   UNL     1       3.387  -0.947   2.157  0.00  0.00    +0.000 NA
ENDROOT
BRANCH   1   7
ATOM      7  C   UNL     1       2.512  -0.011   0.065  0.00  0.00    +0.000 C 
BRANCH   7   8
ATOM      8  N   UNL     1       3.324   0.678  -0.945  0.00  0.00    +0.000 NA
ATOM      9  H   UNL     1       2.979   0.416  -1.866  0.00  0.00    +0.000 HD
ATOM     10  H   UNL     1       4.272   0.305  -0.885  0.00  0.00    +0.000 HD
ENDBRANCH   7   8
ENDBRANCH   1   7
BRANCH   4  11
ATOM     11  C   UNL     1       4.549   0.538   5.441  0.00  0.00    +0.000 C 
BRANCH  11  12
ATOM     12  O   UNL     1       3.463   0.499   6.359  0.00  0.00    +0.000 OA
BRANCH  12  13
ATOM     13  C   UNL     1       3.900   0.676   7.654  0.00  0.00    +0.000 A 
ATOM     14  N   UNL     1       2.991   1.181   8.499  0.00  0.00    +0.000 NA
ATOM     15  C   UNL     1       3.401   1.361   9.767  0.00  0.00    +0.000 A 
ATOM     16  C   UNL     1       4.666   1.046  10.209  0.00  0.00    +0.000 A 
ATOM     17  C   UNL     1       5.510   0.518   9.262  0.00  0.00    +0.000 A 
ATOM     18  N   UNL     1       5.156   0.323   7.978  0.00  0.00    +0.000 NA
ENDBRANCH  12  13
ENDBRANCH  11  12
ENDBRANCH   4  11
TORSDOF 5
