REMARK  Name = 
REMARK  6 active torsions:
REMARK  status: ('A' for Active; 'I' for Inactive)
REMARK    1  A    between atoms: C_2  and  C_4
REMARK    2  A    between atoms: C_7  and  N_8
REMARK    3  A    between atoms: N_8  and  C_9
REMARK    4  A    between atoms: C_9  and  C_10
REMARK    5  A    between atoms: C_13  and  O_14
REMARK    6  A    between atoms: O_14  and  C_15
REMARK                            x       y       z     vdW  Elec       q    Type
REMARK                         _______ _______ _______ _____ _____    ______ ____
ROOT
ATOM      1  C   UNL     1       5.092  -0.102  -5.944  0.00  0.00    +0.000 C 
ATOM      2  C   UNL     1       4.992   1.388  -6.223  0.00  0.00    +0.000 C 
ATOM      3  C   UNL     1       3.748   0.566  -6.218  0.00  0.00    +0.000 C 
ENDROOT
BRANCH   1   4
ATOM      4  C   UNL     1       5.600  -1.038  -7.030  0.00  0.00    +0.000 A 
ATOM      5  C   UNL     1       4.875  -2.162  -7.443  0.00  0.00    +0.000 A 
ATOM      6  C   UNL     1       5.323  -2.962  -8.497  0.00  0.00    +0.000 A 
ATOM      7  C   UNL     1       6.535  -2.659  -9.096  0.00  0.00    +0.000 A 
ATOM      8  N   UNL     1       7.274  -1.598  -8.714  0.00  0.00    +0.000 NA
ATOM      9  C   UNL     1       6.801  -0.829  -7.701  0.00  0.00    +0.000 A 
BRANCH   7  10
ATOM     10  O   UNL     1       7.043  -3.275 -10.188  0.00  0.00    +0.000 OA
BRANCH  10  11
ATOM     11  C   UNL     1       6.930  -4.677 -10.274  0.00  0.00    +0.000 C 
ATOM     12  F   UNL     1       6.298  -5.261  -9.234  0.00  0.00    +0.000 F 
ATOM     13  F   UNL     1       6.254  -4.989 -11.404  0.00  0.00    +0.000 F 
ATOM     14  F   UNL     1       8.164  -5.219 -10.366  0.00  0.00    +0.000 F 
ENDBRANCH  10  11
ENDBRANCH   7  10
ENDBRANCH   1   4
BRANCH   1  15
ATOM     15  N   UNL     1       5.381  -0.578  -4.570  0.00  0.00    +0.000 N 
ATOM     16  H   UNL     1       4.613  -0.492  -3.911  0.00  0.00    +0.000 HD
BRANCH  15  20
ATOM     17  C   UNL     1       8.917   0.406  -2.682  0.00  0.00    +0.000 A 
ATOM     18  C   UNL     1       8.595   0.959  -3.909  0.00  0.00    +0.000 A 
ATOM     19  N   UNL     1       7.444   0.660  -4.566  0.00  0.00    +0.000 NA
ATOM     20  C   UNL     1       6.597  -0.199  -3.954  0.00  0.00    +0.000 A 
ATOM     21  C   UNL     1       6.947  -0.754  -2.714  0.00  0.00    +0.000 A 
ATOM     22  N   UNL     1       8.097  -0.474  -2.043  0.00  0.00    +0.000 NA
BRANCH  17  24
ATOM     23  N   UNL     1      10.475   0.120  -0.850  0.00  0.00    +0.000 N 
ATOM     24  C   UNL     1      10.202   0.769  -2.025  0.00  0.00    +0.000 C 
ATOM     25  O   UNL     1      10.970   1.589  -2.501  0.00  0.00    +0.000 OA
ATOM     26  H   UNL     1      11.344   0.302  -0.372  0.00  0.00    +0.000 HD
ATOM     27  H   UNL     1       9.829  -0.577  -0.490  0.00  0.00    +0.000 HD
ENDBRANCH  17  24
ENDBRANCH  15  20
ENDBRANCH   1  15
TORSDOF 6
