REMARK  Name = 
REMARK  5 active torsions:
REMARK  status: ('A' for Active; 'I' for Inactive)
REMARK    1  A    between atoms: C_1  and  C_2
REMARK    2  A    between atoms: C_2  and  C_3
REMARK    3  A    between atoms: C_2  and  C_14
REMARK    4  A    between atoms: C_3  and  N_4
REMARK    5  A    between atoms: C_8  and  C_9
REMARK                            x       y       z     vdW  Elec       q    Type
REMARK                         _______ _______ _______ _____ _____    ______ ____
ROOT
ATOM      1  N   UNL     1       2.584  -2.494   0.772  0.00  0.00    +0.000 N 
ATOM      2  C   UNL     1       3.127  -3.339   1.731  0.00  0.00    +0.000 A 
ATOM      3  N   UNL     1       3.576  -2.814   2.883  0.00  0.00    +0.000 NA
ATOM      4  C   UNL     1       4.123  -3.645   3.789  0.00  0.00    +0.000 A 
ATOM      5  C   UNL     1       4.213  -5.001   3.609  0.00  0.00    +0.000 A 
ATOM      6  C   UNL     1       3.742  -5.458   2.400  0.00  0.00    +0.000 A 
ATOM      7  N   UNL     1       3.194  -4.652   1.454  0.00  0.00    +0.000 NA
ATOM      8  H   UNL     1       2.697  -2.948  -0.122  0.00  0.00    +0.000 HD
ENDROOT
BRANCH   5   9
ATOM      9  C   UNL     1       4.831  -5.824   4.659  0.00  0.00    +0.000 C 
ATOM     10  N   UNL     1       4.455  -7.135   4.751  0.00  0.00    +0.000 N 
ATOM     11  O   UNL     1       5.625  -5.339   5.451  0.00  0.00    +0.000 OA
ATOM     12  H   UNL     1       3.701  -7.557   4.230  0.00  0.00    +0.000 HD
ATOM     13  H   UNL     1       4.828  -7.651   5.540  0.00  0.00    +0.000 HD
ENDBRANCH   5   9
BRANCH   1  14
ATOM     14  C   UNL     1       3.107  -1.144   0.884  0.00  0.00    +0.000 C 
BRANCH  14  16
ATOM     15  C   UNL     1       1.005   0.082   0.027  0.00  0.00    +0.000 C 
ATOM     16  C   UNL     1       2.455  -0.254  -0.133  0.00  0.00    +0.000 C 
BRANCH  16  17
ATOM     17  C   UNL     1       3.142  -0.042  -1.460  0.00  0.00    +0.000 C 
ATOM     18  C   UNL     1       2.988   1.389  -2.013  0.00  0.00    +0.000 C 
ATOM     19  C   UNL     1       3.657   1.535  -3.379  0.00  0.00    +0.000 C 
ATOM     20  C   UNL     1       3.118   0.504  -4.365  0.00  0.00    +0.000 C 
ATOM     21  C   UNL     1       3.286  -0.914  -3.834  0.00  0.00    +0.000 C 
ATOM     22  C   UNL     1       2.635  -1.081  -2.467  0.00  0.00    +0.000 C 
ENDBRANCH  16  17
ENDBRANCH  14  16
ENDBRANCH   1  14
TORSDOF 4
