REMARK  Name = 
REMARK  7 active torsions:
REMARK  status: ('A' for Active; 'I' for Inactive)
REMARK    1  A    between atoms: C_1  and  C_2
REMARK    2  A    between atoms: C_5  and  C_6
REMARK    3  A    between atoms: C_10  and  C_11
REMARK    4  A    between atoms: C_11  and  C_12
REMARK    5  A    between atoms: C_11  and  C_13
REMARK    6  A    between atoms: C_13  and  N_14
REMARK    7  A    between atoms: C_18  and  C_19
REMARK                            x       y       z     vdW  Elec       q    Type
REMARK                         _______ _______ _______ _____ _____    ______ ____
ROOT
ATOM      1  C   UNL     1       6.168  -1.213  -2.014  0.00  0.00    +0.000 C 
ATOM      2  C   UNL     1       7.060  -2.317  -1.428  0.00  0.00    +0.000 C 
ENDROOT
BRANCH   1   7
ATOM      3  C   UNL     1       5.136   0.624   1.189  0.00  0.00    +0.000 A 
ATOM      4  C   UNL     1       3.747   0.512   1.058  0.00  0.00    +0.000 A 
ATOM      5  C   UNL     1       3.220  -0.116  -0.056  0.00  0.00    +0.000 A 
ATOM      6  N   UNL     1       3.971  -0.649  -1.039  0.00  0.00    +0.000 NA
ATOM      7  C   UNL     1       5.317  -0.572  -0.922  0.00  0.00    +0.000 A 
ATOM      8  C   UNL     1       5.920   0.075   0.159  0.00  0.00    +0.000 A 
BRANCH   3  13
ATOM      9  C   UNL     1       7.511   3.160   5.727  0.00  0.00    +0.000 C 
ATOM     10  C   UNL     1       6.891   2.491   4.542  0.00  0.00    +0.000 A 
ATOM     11  N   UNL     1       7.549   1.463   3.980  0.00  0.00    +0.000 NA
ATOM     12  C   UNL     1       6.959   0.885   2.911  0.00  0.00    +0.000 A 
ATOM     13  C   UNL     1       5.749   1.277   2.359  0.00  0.00    +0.000 A 
ATOM     14  C   UNL     1       5.175   2.344   3.031  0.00  0.00    +0.000 A 
ATOM     15  N   UNL     1       5.709   2.961   4.109  0.00  0.00    +0.000 NA
ENDBRANCH   3  13
ENDBRANCH   1   7
BRANCH   1  16
ATOM     16  C   UNL     1       5.324  -1.818  -3.166  0.00  0.00    +0.000 C 
BRANCH  16  17
ATOM     17  N   UNL     1       4.568  -0.808  -3.920  0.00  0.00    +0.000 N 
ATOM     18  C   UNL     1       5.277  -0.085  -4.878  0.00  0.00    +0.000 A 
ATOM     19  C   UNL     1       4.638   0.926  -5.614  0.00  0.00    +0.000 A 
ATOM     20  N   UNL     1       5.231   1.649  -6.603  0.00  0.00    +0.000 NA
ATOM     21  C   UNL     1       6.518   1.289  -6.857  0.00  0.00    +0.000 A 
ATOM     22  C   UNL     1       7.159   0.281  -6.160  0.00  0.00    +0.000 A 
ATOM     23  N   UNL     1       6.554  -0.417  -5.167  0.00  0.00    +0.000 NA
ATOM     24  H   UNL     1       4.057  -0.205  -3.274  0.00  0.00    +0.000 HD
BRANCH  21  25
ATOM     25  C   UNL     1       7.262   2.032  -7.909  0.00  0.00    +0.000 C 
ATOM     26  N   UNL     1       6.576   3.034  -8.537  0.00  0.00    +0.000 N 
ATOM     27  O   UNL     1       8.424   1.772  -8.195  0.00  0.00    +0.000 OA
ATOM     28  H   UNL     1       5.618   3.238  -8.277  0.00  0.00    +0.000 HD
ATOM     29  H   UNL     1       7.044   3.588  -9.240  0.00  0.00    +0.000 HD
ENDBRANCH  21  25
ENDBRANCH  16  17
ENDBRANCH   1  16
TORSDOF 5
