REMARK  Name = 
REMARK  7 active torsions:
REMARK  status: ('A' for Active; 'I' for Inactive)
REMARK    1  A    between atoms: C_1  and  N_2
REMARK    2  A    between atoms: C_3  and  C_5
REMARK    3  A    between atoms: C_8  and  C_9
REMARK    4  A    between atoms: C_9  and  N_10
REMARK    5  A    between atoms: N_10  and  C_11
REMARK    6  A    between atoms: C_11  and  C_12
REMARK    7  A    between atoms: C_12  and  O_13
REMARK                            x       y       z     vdW  Elec       q    Type
REMARK                         _______ _______ _______ _____ _____    ______ ____
ROOT
ATOM      1  C   UNL     1       8.988  -0.868   0.895  0.00  0.00    +0.000 C 
ENDROOT
BRANCH   1   2
ATOM      2  N   UNL     1       9.419   0.413   0.304  0.00  0.00    +0.000 N 
ATOM      3  C   UNL     1      10.813   0.423   0.038  0.00  0.00    +0.000 A 
ATOM      4  C   UNL     1      11.331   1.349  -0.879  0.00  0.00    +0.000 A 
ATOM      5  C   UNL     1      12.704   1.387  -1.137  0.00  0.00    +0.000 A 
ATOM      6  C   UNL     1      13.540   0.500  -0.476  0.00  0.00    +0.000 A 
ATOM      7 CL   UNL     1      15.234   0.521  -0.744  0.00  0.00    +0.000 Cl
ATOM      8  C   UNL     1      12.964  -0.398   0.404  0.00  0.00    +0.000 A 
ATOM      9  N   UNL     1      11.632  -0.450   0.667  0.00  0.00    +0.000 NA
BRANCH   2  10
ATOM     10  C   UNL     1       8.982   1.658   0.984  0.00  0.00    +0.000 C 
BRANCH  10  11
ATOM     11  C   UNL     1       9.539   1.880   2.405  0.00  0.00    +0.000 C 
BRANCH  11  12
ATOM     12  O   UNL     1       8.820   1.106   3.365  0.00  0.00    +0.000 OA
ATOM     13  H   UNL     1       8.971   1.521   4.232  0.00  0.00    +0.000 HD
ENDBRANCH  11  12
ENDBRANCH  10  11
ENDBRANCH   2  10
ENDBRANCH   1   2
BRANCH   1  17
ATOM     14  C   UNL     1       4.907  -2.113   0.865  0.00  0.00    +0.000 A 
ATOM     15  C   UNL     1       5.630  -2.212  -0.320  0.00  0.00    +0.000 A 
ATOM     16  C   UNL     1       6.936  -1.720  -0.347  0.00  0.00    +0.000 A 
ATOM     17  C   UNL     1       7.501  -1.163   0.806  0.00  0.00    +0.000 A 
ATOM     18  C   UNL     1       6.669  -1.058   1.923  0.00  0.00    +0.000 A 
ATOM     19  N   UNL     1       5.386  -1.514   1.987  0.00  0.00    +0.000 NA
BRANCH  14  22
ATOM     20  C   UNL     1       1.616  -3.257   2.388  0.00  0.00    +0.000 C 
ATOM     21  N   UNL     1       2.878  -2.605   2.146  0.00  0.00    +0.000 N 
ATOM     22  C   UNL     1       3.542  -2.751   0.943  0.00  0.00    +0.000 C 
ATOM     23  O   UNL     1       3.078  -3.378  -0.005  0.00  0.00    +0.000 OA
ATOM     24  H   UNL     1       3.385  -2.146   2.898  0.00  0.00    +0.000 HD
ENDBRANCH  14  22
ENDBRANCH   1  17
TORSDOF 6
