REMARK  Name = 
REMARK  7 active torsions:
REMARK  status: ('A' for Active; 'I' for Inactive)
REMARK    1  A    between atoms: C_2  and  C_3
REMARK    2  A    between atoms: C_6  and  C_7
REMARK    3  A    between atoms: N_9  and  C_10
REMARK    4  A    between atoms: C_10  and  C_11
REMARK    5  A    between atoms: C_14  and  C_15
REMARK    6  A    between atoms: C_15  and  N_16
REMARK    7  A    between atoms: C_17  and  C_19
REMARK                            x       y       z     vdW  Elec       q    Type
REMARK                         _______ _______ _______ _____ _____    ______ ____
ROOT
ATOM      1  C   UNL     1       4.839   2.745   5.724  0.00  0.00    +0.000 C 
ATOM      2  C   UNL     1       3.984   1.502   6.015  0.00  0.00    +0.000 C 
ATOM      3  C   UNL     1       2.776   1.819   6.893  0.00  0.00    +0.000 C 
ATOM      4  C   UNL     1       1.899   2.921   6.282  0.00  0.00    +0.000 C 
ATOM      5  C   UNL     1       2.745   4.176   6.016  0.00  0.00    +0.000 C 
ATOM      6  C   UNL     1       3.964   3.871   5.141  0.00  0.00    +0.000 C 
ENDROOT
BRANCH   1   7
ATOM      7  C   UNL     1       6.004   2.409   4.769  0.00  0.00    +0.000 C 
BRANCH   7  10
ATOM      8  C   UNL     1       7.994   1.751   6.103  0.00  0.00    +0.000 C 
ATOM      9  O   UNL     1       8.291   2.909   6.368  0.00  0.00    +0.000 OA
ATOM     10  N   UNL     1       6.920   1.409   5.307  0.00  0.00    +0.000 N 
ATOM     11  H   UNL     1       6.707   0.435   5.142  0.00  0.00    +0.000 HD
BRANCH   8  15
ATOM     12  C   UNL     1      10.793  -0.314   7.652  0.00  0.00    +0.000 C 
ATOM     13  C   UNL     1      10.711  -0.871   6.228  0.00  0.00    +0.000 C 
ATOM     14  C   UNL     1       9.416  -0.324   5.611  0.00  0.00    +0.000 C 
ATOM     15  C   UNL     1       8.760   0.555   6.677  0.00  0.00    +0.000 C 
ATOM     16  C   UNL     1       9.923   0.939   7.600  0.00  0.00    +0.000 C 
BRANCH  12  18
ATOM     17  N   UNL     1       9.939  -2.054   9.439  0.00  0.00    +0.000 NA
ATOM     18  C   UNL     1      10.309  -1.289   8.654  0.00  0.00    +0.000 C 
ENDBRANCH  12  18
ENDBRANCH   8  15
ENDBRANCH   7  10
ENDBRANCH   1   7
BRANCH   4  19
ATOM     19  C   UNL     1       0.706   3.260   7.191  0.00  0.00    +0.000 C 
BRANCH  19  20
ATOM     20  N   UNL     1      -0.160   2.122   7.424  0.00  0.00    +0.000 N 
ATOM     21  C   UNL     1      -1.207   1.814   6.591  0.00  0.00    +0.000 C 
ATOM     22  O   UNL     1      -1.464   2.476   5.588  0.00  0.00    +0.000 OA
ATOM     23  H   UNL     1      -0.101   1.674   8.333  0.00  0.00    +0.000 HD
BRANCH  21  24
ATOM     24  C   UNL     1      -1.986   0.619   6.930  0.00  0.00    +0.000 A 
ATOM     25  C   UNL     1      -2.628  -0.100   5.931  0.00  0.00    +0.000 A 
ATOM     26  S   UNL     1      -3.527  -1.427   6.517  0.00  0.00    +0.000 S 
ATOM     27  C   UNL     1      -3.097  -1.078   8.126  0.00  0.00    +0.000 A 
ATOM     28  N   UNL     1      -3.569  -1.825   9.161  0.00  0.00    +0.000 NA
ATOM     29  C   UNL     1      -3.155  -1.447  10.324  0.00  0.00    +0.000 A 
ATOM     30  N   UNL     1      -2.304  -0.395  10.547  0.00  0.00    +0.000 N 
ATOM     31  C   UNL     1      -1.808   0.393   9.536  0.00  0.00    +0.000 A 
ATOM     32  O   UNL     1      -1.034   1.314   9.770  0.00  0.00    +0.000 OA
ATOM     33  C   UNL     1      -2.252   0.014   8.210  0.00  0.00    +0.000 A 
ATOM     34  H   UNL     1      -2.002  -0.158  11.481  0.00  0.00    +0.000 HD
ENDBRANCH  21  24
ENDBRANCH  19  20
ENDBRANCH   4  19
TORSDOF 7
