REMARK  Name = 
REMARK  7 active torsions:
REMARK  status: ('A' for Active; 'I' for Inactive)
REMARK    1  A    between atoms: C_1  and  C_2
REMARK    2  A    between atoms: C_2  and  N_3
REMARK    3  A    between atoms: C_2  and  C_16
REMARK    4  A    between atoms: C_4  and  C_6
REMARK    5  A    between atoms: C_19  and  C_20
REMARK    6  A    between atoms: C_20  and  N_21
REMARK    7  A    between atoms: C_22  and  C_24
REMARK                            x       y       z     vdW  Elec       q    Type
REMARK                         _______ _______ _______ _____ _____    ______ ____
ROOT
ATOM      1  C   UNL     1       3.327   0.668   1.195  0.00  0.00    +0.000 C 
ATOM      2  C   UNL     1       2.505   0.046   0.058  0.00  0.00    +0.000 C 
ENDROOT
BRANCH   2   3
ATOM      3  C   UNL     1       2.957   0.609  -1.292  0.00  0.00    +0.000 A 
ATOM      4  C   UNL     1       2.869   1.977  -1.556  0.00  0.00    +0.000 A 
ATOM      5  C   UNL     1       3.242   2.460  -2.809  0.00  0.00    +0.000 A 
ATOM      6  C   UNL     1       3.701   1.575  -3.784  0.00  0.00    +0.000 A 
ATOM      7  C   UNL     1       3.759   0.229  -3.437  0.00  0.00    +0.000 A 
ATOM      8  N   UNL     1       3.400  -0.268  -2.228  0.00  0.00    +0.000 NA
BRANCH   6   9
ATOM      9  C   UNL     1       4.065   2.039  -5.162  0.00  0.00    +0.000 C 
BRANCH   9  10
ATOM     10  N   UNL     1       2.929   1.984  -6.055  0.00  0.00    +0.000 N 
ATOM     11  C   UNL     1       3.039   2.367  -7.370  0.00  0.00    +0.000 C 
ATOM     12  O   UNL     1       4.086   2.802  -7.848  0.00  0.00    +0.000 OA
ATOM     13  H   UNL     1       2.065   1.582  -5.714  0.00  0.00    +0.000 HD
BRANCH  11  14
ATOM     14  C   UNL     1       1.783   2.208  -8.219  0.00  0.00    +0.000 C 
ATOM     15  C   UNL     1       0.608   3.025  -7.673  0.00  0.00    +0.000 C 
ATOM     16  C   UNL     1      -0.645   2.774  -8.502  0.00  0.00    +0.000 C 
ATOM     17  O   UNL     1      -0.945   1.378  -8.541  0.00  0.00    +0.000 OA
ATOM     18  C   UNL     1       0.091   0.623  -9.170  0.00  0.00    +0.000 C 
ATOM     19  C   UNL     1       1.384   0.737  -8.375  0.00  0.00    +0.000 C 
ENDBRANCH  11  14
ENDBRANCH   9  10
ENDBRANCH   6   9
ENDBRANCH   2   3
BRANCH   2  20
ATOM     20  N   UNL     1       1.069   0.257   0.236  0.00  0.00    +0.000 N 
ATOM     21  C   UNL     1       0.380  -0.233   1.317  0.00  0.00    +0.000 C 
ATOM     22  O   UNL     1       0.926  -0.814   2.249  0.00  0.00    +0.000 OA
ATOM     23  H   UNL     1       0.542   0.409  -0.620  0.00  0.00    +0.000 HD
BRANCH  21  24
ATOM     24  C   UNL     1      -1.060   0.040   1.345  0.00  0.00    +0.000 A 
ATOM     25  C   UNL     1      -1.708   0.190   2.564  0.00  0.00    +0.000 A 
ATOM     26  S   UNL     1      -3.380   0.490   2.415  0.00  0.00    +0.000 S 
ATOM     27  C   UNL     1      -3.301   0.389   0.719  0.00  0.00    +0.000 A 
ATOM     28  N   UNL     1      -4.420   0.510  -0.045  0.00  0.00    +0.000 NA
ATOM     29  C   UNL     1      -4.219   0.371  -1.311  0.00  0.00    +0.000 A 
ATOM     30  N   UNL     1      -2.996   0.143  -1.889  0.00  0.00    +0.000 N 
ATOM     31  C   UNL     1      -1.830   0.074  -1.164  0.00  0.00    +0.000 A 
ATOM     32  O   UNL     1      -0.737  -0.024  -1.710  0.00  0.00    +0.000 OA
ATOM     33  C   UNL     1      -2.010   0.172   0.271  0.00  0.00    +0.000 A 
ATOM     34  H   UNL     1      -2.904   0.072  -2.891  0.00  0.00    +0.000 HD
ENDBRANCH  21  24
ENDBRANCH   2  20
TORSDOF 6
