REMARK  Name = 
REMARK  8 active torsions:
REMARK  status: ('A' for Active; 'I' for Inactive)
REMARK    1  A    between atoms: C_1  and  C_2
REMARK    2  A    between atoms: C_2  and  N_3
REMARK    3  A    between atoms: C_2  and  C_19
REMARK    4  A    between atoms: N_3  and  C_4
REMARK    5  A    between atoms: C_7  and  C_8
REMARK    6  A    between atoms: C_8  and  O_9
REMARK    7  A    between atoms: C_8  and  C_10
REMARK    8  A    between atoms: C_10  and  C_11
REMARK                            x       y       z     vdW  Elec       q    Type
REMARK                         _______ _______ _______ _____ _____    ______ ____
ROOT
ATOM      1  C   UNL     1       2.551  -1.237   2.176  0.00  0.00    +0.000 A 
ATOM      2  C   UNL     1       1.224  -1.105   2.604  0.00  0.00    +0.000 A 
ATOM      3  C   UNL     1       0.887  -1.133   3.965  0.00  0.00    +0.000 A 
ATOM      4  C   UNL     1       1.873  -1.341   4.936  0.00  0.00    +0.000 A 
ATOM      5  C   UNL     1       3.184  -1.577   4.494  0.00  0.00    +0.000 A 
ATOM      6  C   UNL     1       3.515  -1.525   3.138  0.00  0.00    +0.000 A 
ENDROOT
BRANCH   1   7
ATOM      7  N   UNL     1       2.811  -1.215   0.803  0.00  0.00    +0.000 N 
ATOM      8  H   UNL     1       2.589  -2.139   0.430  0.00  0.00    +0.000 HD
BRANCH   7  10
ATOM      9  C   UNL     1       4.429   0.665   0.688  0.00  0.00    +0.000 C 
ATOM     10  C   UNL     1       4.133  -0.792   0.292  0.00  0.00    +0.000 C 
BRANCH  10  11
ATOM     11  C   UNL     1       4.226  -0.903  -1.222  0.00  0.00    +0.000 A 
ATOM     12  C   UNL     1       3.154  -0.723  -2.080  0.00  0.00    +0.000 A 
ATOM     13  S   UNL     1       3.580  -0.873  -3.726  0.00  0.00    +0.000 S 
ATOM     14  C   UNL     1       5.215  -1.154  -3.336  0.00  0.00    +0.000 A 
ATOM     15  N   UNL     1       6.151  -1.340  -4.307  0.00  0.00    +0.000 NA
ATOM     16  C   UNL     1       7.350  -1.509  -3.859  0.00  0.00    +0.000 A 
ATOM     17  N   UNL     1       7.705  -1.520  -2.530  0.00  0.00    +0.000 N 
ATOM     18  C   UNL     1       6.793  -1.336  -1.513  0.00  0.00    +0.000 A 
ATOM     19  O   UNL     1       7.132  -1.331  -0.336  0.00  0.00    +0.000 OA
ATOM     20  C   UNL     1       5.430  -1.142  -1.974  0.00  0.00    +0.000 A 
ATOM     21  H   UNL     1       8.661  -1.645  -2.252  0.00  0.00    +0.000 HD
ENDBRANCH  10  11
ENDBRANCH   7  10
ENDBRANCH   1   7
BRANCH   4  22
ATOM     22  C   UNL     1       1.505  -1.368   6.412  0.00  0.00    +0.000 C 
BRANCH  22  23
ATOM     23  O   UNL     1       1.153  -2.712   6.756  0.00  0.00    +0.000 OA
ATOM     24  H   UNL     1       1.703  -3.311   6.223  0.00  0.00    +0.000 HD
ENDBRANCH  22  23
BRANCH  22  25
ATOM     25  C   UNL     1       2.649  -0.896   7.324  0.00  0.00    +0.000 C 
BRANCH  25  26
ATOM     26  C   UNL     1       2.283  -0.898   8.778  0.00  0.00    +0.000 A 
ATOM     27  C   UNL     1       2.482  -2.039   9.557  0.00  0.00    +0.000 A 
ATOM     28  N   UNL     1       2.214  -2.084  10.881  0.00  0.00    +0.000 NA
ATOM     29  C   UNL     1       1.716  -0.938  11.399  0.00  0.00    +0.000 A 
ATOM     30  C   UNL     1       1.505   0.194  10.633  0.00  0.00    +0.000 A 
ATOM     31  N   UNL     1       1.785   0.246   9.311  0.00  0.00    +0.000 NA
ENDBRANCH  25  26
ENDBRANCH  22  25
ENDBRANCH   4  22
TORSDOF 7
