REMARK  Name = 
REMARK  7 active torsions:
REMARK  status: ('A' for Active; 'I' for Inactive)
REMARK    1  A    between atoms: N_1  and  C_2
REMARK    2  A    between atoms: C_2  and  C_3
REMARK    3  A    between atoms: C_6  and  C_7
REMARK    4  A    between atoms: C_7  and  C_8
REMARK    5  A    between atoms: C_11  and  C_12
REMARK    6  A    between atoms: C_12  and  N_13
REMARK    7  A    between atoms: C_14  and  C_16
REMARK                            x       y       z     vdW  Elec       q    Type
REMARK                         _______ _______ _______ _____ _____    ______ ____
ROOT
ATOM      1  C   UNL     1       4.893  -4.779  -4.090  0.00  0.00    +0.000 A 
ATOM      2  C   UNL     1       3.604  -5.316  -4.007  0.00  0.00    +0.000 A 
ATOM      3  C   UNL     1       3.403  -6.688  -3.867  0.00  0.00    +0.000 A 
ATOM      4  C   UNL     1       4.479  -7.584  -3.893  0.00  0.00    +0.000 A 
ATOM      5  C   UNL     1       5.766  -7.051  -4.095  0.00  0.00    +0.000 A 
ATOM      6  C   UNL     1       5.975  -5.666  -4.169  0.00  0.00    +0.000 A 
ENDROOT
BRANCH   1   7
ATOM      7  C   UNL     1       5.080  -3.278  -4.067  0.00  0.00    +0.000 C 
BRANCH   7  11
ATOM      8  C   UNL     1       4.224  -0.622  -0.651  0.00  0.00    +0.000 C 
ATOM      9  C   UNL     1       4.064  -2.130  -0.422  0.00  0.00    +0.000 C 
ATOM     10  C   UNL     1       4.027  -2.914  -1.734  0.00  0.00    +0.000 C 
ATOM     11  C   UNL     1       5.240  -2.650  -2.652  0.00  0.00    +0.000 C 
ATOM     12  C   UNL     1       5.511  -1.137  -2.798  0.00  0.00    +0.000 C 
ATOM     13  C   UNL     1       5.512  -0.397  -1.459  0.00  0.00    +0.000 C 
BRANCH   8  14
ATOM     14  C   UNL     1       2.956  -0.035  -1.308  0.00  0.00    +0.000 C 
BRANCH  14  15
ATOM     15  N   UNL     1       3.061   1.400  -1.539  0.00  0.00    +0.000 NA
ATOM     16  H   UNL     1       2.234   1.717  -2.046  0.00  0.00    +0.000 HD
ATOM     17  H   UNL     1       3.850   1.595  -2.151  0.00  0.00    +0.000 HD
ENDBRANCH  14  15
ENDBRANCH   8  14
ENDBRANCH   7  11
ENDBRANCH   1   7
BRANCH   4  18
ATOM     18  C   UNL     1       4.285  -9.074  -3.717  0.00  0.00    +0.000 C 
BRANCH  18  19
ATOM     19  N   UNL     1       4.085  -9.758  -4.969  0.00  0.00    +0.000 N 
ATOM     20  C   UNL     1       3.882 -11.112  -5.034  0.00  0.00    +0.000 C 
ATOM     21  O   UNL     1       3.840 -11.838  -4.044  0.00  0.00    +0.000 OA
ATOM     22  H   UNL     1       4.467  -9.299  -5.794  0.00  0.00    +0.000 HD
BRANCH  20  23
ATOM     23  C   UNL     1       3.659 -11.647  -6.392  0.00  0.00    +0.000 A 
ATOM     24  C   UNL     1       2.874 -12.777  -6.575  0.00  0.00    +0.000 A 
ATOM     25  S   UNL     1       2.703 -13.234  -8.212  0.00  0.00    +0.000 S 
ATOM     26  C   UNL     1       3.705 -11.958  -8.731  0.00  0.00    +0.000 A 
ATOM     27  N   UNL     1       4.004 -11.792 -10.050  0.00  0.00    +0.000 NA
ATOM     28  C   UNL     1       4.799 -10.802 -10.293  0.00  0.00    +0.000 A 
ATOM     29  N   UNL     1       5.309  -9.957  -9.345  0.00  0.00    +0.000 N 
ATOM     30  C   UNL     1       4.988 -10.047  -8.009  0.00  0.00    +0.000 A 
ATOM     31  O   UNL     1       5.388  -9.228  -7.202  0.00  0.00    +0.000 OA
ATOM     32  C   UNL     1       4.132 -11.177  -7.675  0.00  0.00    +0.000 A 
ATOM     33  H   UNL     1       5.902  -9.183  -9.606  0.00  0.00    +0.000 HD
ENDBRANCH  20  23
ENDBRANCH  18  19
ENDBRANCH   4  18
TORSDOF 7
