REMARK  Name = 
REMARK  8 active torsions:
REMARK  status: ('A' for Active; 'I' for Inactive)
REMARK    1  A    between atoms: C_1  and  N_2
REMARK    2  A    between atoms: C_4  and  C_5
REMARK    3  A    between atoms: N_7  and  C_8
REMARK    4  A    between atoms: C_8  and  C_9
REMARK    5  A    between atoms: C_12  and  C_13
REMARK    6  A    between atoms: C_13  and  S_14
REMARK    7  A    between atoms: S_14  and  N_15
REMARK    8  A    between atoms: C_21  and  O_22
REMARK                            x       y       z     vdW  Elec       q    Type
REMARK                         _______ _______ _______ _____ _____    ______ ____
ROOT
ATOM      1  C   UNL     1       4.898   2.486   1.165  0.00  0.00    +0.000 C 
ATOM      2  O   UNL     1       5.286   2.841   2.274  0.00  0.00    +0.000 OA
ATOM      3  N   UNL     1       5.411   2.986  -0.007  0.00  0.00    +0.000 N 
ATOM      4  H   UNL     1       5.085   2.628  -0.890  0.00  0.00    +0.000 HD
ENDROOT
BRANCH   1   8
ATOM      5  C   UNL     1       1.558  -0.713  -0.764  0.00  0.00    +0.000 C 
ATOM      6  N   UNL     1       2.356   0.039   0.178  0.00  0.00    +0.000 N 
ATOM      7  C   UNL     1       3.315   0.964  -0.154  0.00  0.00    +0.000 A 
ATOM      8  C   UNL     1       3.853   1.474   1.020  0.00  0.00    +0.000 A 
ATOM      9  C   UNL     1       3.178   0.811   2.100  0.00  0.00    +0.000 A 
ATOM     10  C   UNL     1       3.210   0.830   3.499  0.00  0.00    +0.000 A 
ATOM     11  N   UNL     1       2.390   0.037   4.211  0.00  0.00    +0.000 NA
ATOM     12  C   UNL     1       1.551  -0.760   3.531  0.00  0.00    +0.000 A 
ATOM     13  N   UNL     1       1.416  -0.879   2.198  0.00  0.00    +0.000 NA
ATOM     14  C   UNL     1       2.259  -0.067   1.537  0.00  0.00    +0.000 A 
BRANCH  10  15
ATOM     15  O   UNL     1       4.045   1.625   4.244  0.00  0.00    +0.000 OA
ATOM     16  H   UNL     1       4.581   2.159   3.622  0.00  0.00    +0.000 HD
ENDBRANCH  10  15
ENDBRANCH   1   8
BRANCH   3  17
ATOM     17  C   UNL     1       6.465   3.974  -0.021  0.00  0.00    +0.000 C 
BRANCH  17  18
ATOM     18  C   UNL     1       5.942   5.389   0.016  0.00  0.00    +0.000 A 
ATOM     19  C   UNL     1       5.725   6.021   1.247  0.00  0.00    +0.000 A 
ATOM     20  C   UNL     1       5.268   7.342   1.311  0.00  0.00    +0.000 A 
ATOM     21  C   UNL     1       5.011   8.067   0.139  0.00  0.00    +0.000 A 
ATOM     22  C   UNL     1       5.209   7.425  -1.093  0.00  0.00    +0.000 A 
ATOM     23  C   UNL     1       5.667   6.102  -1.156  0.00  0.00    +0.000 A 
BRANCH  21  24
ATOM     24  C   UNL     1       4.431   9.462   0.171  0.00  0.00    +0.000 C 
BRANCH  24  25
ATOM     25  S   UNL     1       5.536  10.671   0.915  0.00  0.00    +0.000 S 
ATOM     26  O   UNL     1       4.993  11.988   0.643  0.00  0.00    +0.000 OA
ATOM     27  O   UNL     1       5.887  10.268   2.258  0.00  0.00    +0.000 OA
BRANCH  25  28
ATOM     28  N   UNL     1       6.919  10.552  -0.004  0.00  0.00    +0.000 NA
ATOM     29  H   UNL     1       6.869  10.936  -0.946  0.00  0.00    +0.000 HD
ATOM     30  H   UNL     1       7.494   9.735   0.175  0.00  0.00    +0.000 HD
ENDBRANCH  25  28
ENDBRANCH  24  25
ENDBRANCH  21  24
ENDBRANCH  17  18
ENDBRANCH   3  17
TORSDOF 7
