REMARK  Name = 
REMARK  7 active torsions:
REMARK  status: ('A' for Active; 'I' for Inactive)
REMARK    1  A    between atoms: C_2  and  C_20
REMARK    2  A    between atoms: N_3  and  C_4
REMARK    3  A    between atoms: C_4  and  C_5
REMARK    4  A    between atoms: C_8  and  C_9
REMARK    5  A    between atoms: C_9  and  N_10
REMARK    6  A    between atoms: N_10  and  C_11
REMARK    7  A    between atoms: C_11  and  C_12
REMARK                            x       y       z     vdW  Elec       q    Type
REMARK                         _______ _______ _______ _____ _____    ______ ____
ROOT
ATOM      1  C   UNL     1       3.164  -3.662  -1.415  0.00  0.00    +0.000 C 
ATOM      2  C   UNL     1       2.622  -4.980  -0.842  0.00  0.00    +0.000 C 
ATOM      3  C   UNL     1       3.641  -6.115  -0.916  0.00  0.00    +0.000 C 
ATOM      4  C   UNL     1       4.982  -5.767  -0.249  0.00  0.00    +0.000 C 
ATOM      5  C   UNL     1       5.510  -4.405  -0.739  0.00  0.00    +0.000 C 
ATOM      6  C   UNL     1       4.473  -3.285  -0.710  0.00  0.00    +0.000 C 
ENDROOT
BRANCH   1   7
ATOM      7  C   UNL     1       3.343  -3.702  -2.945  0.00  0.00    +0.000 C 
BRANCH   7  10
ATOM      8  O   UNL     1       2.128  -6.063  -4.036  0.00  0.00    +0.000 OA
ATOM      9  C   UNL     1       1.574  -4.979  -4.139  0.00  0.00    +0.000 C 
ATOM     10  N   UNL     1       2.070  -3.811  -3.617  0.00  0.00    +0.000 N 
ATOM     11  H   UNL     1       1.565  -2.950  -3.770  0.00  0.00    +0.000 HD
BRANCH   9  12
ATOM     12  C   UNL     1       0.254  -4.837  -4.755  0.00  0.00    +0.000 A 
ATOM     13  C   UNL     1      -0.706  -5.825  -4.634  0.00  0.00    +0.000 A 
ATOM     14  S   UNL     1      -2.203  -5.392  -5.334  0.00  0.00    +0.000 S 
ATOM     15  C   UNL     1      -1.589  -3.894  -5.869  0.00  0.00    +0.000 A 
ATOM     16  N   UNL     1      -2.369  -3.006  -6.538  0.00  0.00    +0.000 NA
ATOM     17  C   UNL     1      -1.756  -1.930  -6.905  0.00  0.00    +0.000 A 
ATOM     18  N   UNL     1      -0.431  -1.664  -6.674  0.00  0.00    +0.000 N 
ATOM     19  C   UNL     1       0.389  -2.521  -5.980  0.00  0.00    +0.000 A 
ATOM     20  O   UNL     1       1.560  -2.230  -5.754  0.00  0.00    +0.000 OA
ATOM     21  C   UNL     1      -0.259  -3.738  -5.529  0.00  0.00    +0.000 A 
ATOM     22  H   UNL     1      -0.007  -0.805  -6.990  0.00  0.00    +0.000 HD
ENDBRANCH   9  12
ENDBRANCH   7  10
ENDBRANCH   1   7
BRANCH   4  23
ATOM     23  C   UNL     1       4.924  -5.842   1.297  0.00  0.00    +0.000 C 
BRANCH  23  24
ATOM     24  N   UNL     1       4.534  -7.146   1.849  0.00  0.00    +0.000 NA
ATOM     25  H   UNL     1       3.603  -7.400   1.525  0.00  0.00    +0.000 HD
BRANCH  24  26
ATOM     26  C   UNL     1       5.479  -8.223   1.528  0.00  0.00    +0.000 C 
BRANCH  26  27
ATOM     27  C   UNL     1       4.979  -9.592   2.044  0.00  0.00    +0.000 C 
ATOM     28  C   UNL     1       4.821  -9.648   3.570  0.00  0.00    +0.000 C 
ATOM     29  C   UNL     1       6.173  -9.654   4.281  0.00  0.00    +0.000 C 
ATOM     30  C   UNL     1       7.144 -10.677   3.687  0.00  0.00    +0.000 C 
ATOM     31  N   UNL     1       7.244 -10.590   2.229  0.00  0.00    +0.000 NA
ATOM     32  C   UNL     1       5.927 -10.722   1.604  0.00  0.00    +0.000 C 
ATOM     33  H   UNL     1       7.858 -11.329   1.888  0.00  0.00    +0.000 HD
ENDBRANCH  26  27
ENDBRANCH  24  26
ENDBRANCH  23  24
ENDBRANCH   4  23
TORSDOF 7
