REMARK  Name = 
REMARK  5 active torsions:
REMARK  status: ('A' for Active; 'I' for Inactive)
REMARK    1  A    between atoms: C_2  and  C_4
REMARK    2  A    between atoms: C_7  and  N_8
REMARK    3  A    between atoms: N_8  and  C_9
REMARK    4  A    between atoms: C_9  and  C_10
REMARK    5  A    between atoms: C_14  and  C_15
REMARK                            x       y       z     vdW  Elec       q    Type
REMARK                         _______ _______ _______ _____ _____    ______ ____
ROOT
ATOM      1  N   UNL     1       4.895   3.868   3.344  0.00  0.00    +0.000 N 
ATOM      2  H   UNL     1       5.786   3.463   3.072  0.00  0.00    +0.000 HD
ENDROOT
BRANCH   1   6
ATOM      3  C   UNL     1       1.845   2.763   0.826  0.00  0.00    +0.000 A 
ATOM      4  C   UNL     1       1.698   2.665   2.199  0.00  0.00    +0.000 A 
ATOM      5  N   UNL     1       2.698   2.979   3.065  0.00  0.00    +0.000 NA
ATOM      6  C   UNL     1       3.859   3.407   2.526  0.00  0.00    +0.000 A 
ATOM      7  C   UNL     1       3.987   3.492   1.131  0.00  0.00    +0.000 A 
ATOM      8  N   UNL     1       3.007   3.168   0.246  0.00  0.00    +0.000 NA
BRANCH   3  10
ATOM      9  N   UNL     1       0.941   2.547  -1.408  0.00  0.00    +0.000 N 
ATOM     10  C   UNL     1       0.697   2.444  -0.066  0.00  0.00    +0.000 C 
ATOM     11  O   UNL     1      -0.398   2.113   0.370  0.00  0.00    +0.000 OA
ATOM     12  H   UNL     1       0.197   2.360  -2.065  0.00  0.00    +0.000 HD
ATOM     13  H   UNL     1       1.856   2.836  -1.738  0.00  0.00    +0.000 HD
ENDBRANCH   3  10
ENDBRANCH   1   6
BRANCH   1  14
ATOM     14  C   UNL     1       4.668   3.783   4.780  0.00  0.00    +0.000 C 
BRANCH  14  15
ATOM     15  C   UNL     1       5.483   4.853   5.455  0.00  0.00    +0.000 A 
ATOM     16  C   UNL     1       4.953   6.129   5.620  0.00  0.00    +0.000 A 
ATOM     17  N   UNL     1       5.608   7.148   6.212  0.00  0.00    +0.000 NA
ATOM     18  C   UNL     1       6.867   6.890   6.640  0.00  0.00    +0.000 A 
ATOM     19  C   UNL     1       7.533   5.669   6.501  0.00  0.00    +0.000 A 
ATOM     20  C   UNL     1       6.793   4.635   5.901  0.00  0.00    +0.000 A 
BRANCH  19  21
ATOM     21  C   UNL     1       8.921   5.473   6.946  0.00  0.00    +0.000 A 
ATOM     22  C   UNL     1       9.873   6.494   6.978  0.00  0.00    +0.000 A 
ATOM     23  N   UNL     1      11.156   6.315   7.383  0.00  0.00    +0.000 NA
ATOM     24  C   UNL     1      11.468   5.058   7.759  0.00  0.00    +0.000 A 
ATOM     25  C   UNL     1      10.544   4.030   7.727  0.00  0.00    +0.000 A 
ATOM     26  N   UNL     1       9.265   4.210   7.318  0.00  0.00    +0.000 NA
ENDBRANCH  19  21
ENDBRANCH  14  15
ENDBRANCH   1  14
TORSDOF 5
