REMARK  Name = 
REMARK  8 active torsions:
REMARK  status: ('A' for Active; 'I' for Inactive)
REMARK    1  A    between atoms: C_1  and  C_2
REMARK    2  A    between atoms: C_2  and  C_3
REMARK    3  A    between atoms: C_2  and  C_14
REMARK    4  A    between atoms: C_3  and  N_4
REMARK    5  A    between atoms: N_4  and  C_5
REMARK    6  A    between atoms: C_8  and  C_9
REMARK    7  A    between atoms: C_18  and  O_19
REMARK    8  A    between atoms: O_19  and  C_20
REMARK                            x       y       z     vdW  Elec       q    Type
REMARK                         _______ _______ _______ _____ _____    ______ ____
ROOT
ATOM      1  C   UNL     1       2.988   0.606  -1.446  0.00  0.00    +0.000 C 
ENDROOT
BRANCH   1   3
ATOM      2  C   UNL     1       0.897  -0.010  -0.011  0.00  0.00    +0.000 C 
ATOM      3  C   UNL     1       2.350   0.339  -0.115  0.00  0.00    +0.000 C 
BRANCH   3   4
ATOM      4  C   UNL     1       2.915   1.091   1.023  0.00  0.00    +0.000 A 
ATOM      5  C   UNL     1       3.264   0.437   2.205  0.00  0.00    +0.000 A 
ATOM      6  C   UNL     1       3.824   1.159   3.263  0.00  0.00    +0.000 A 
ATOM      7  C   UNL     1       4.050   2.535   3.144  0.00  0.00    +0.000 A 
ATOM      8  C   UNL     1       3.744   3.188   1.955  0.00  0.00    +0.000 A 
ATOM      9  C   UNL     1       3.146   2.472   0.918  0.00  0.00    +0.000 A 
BRANCH   8  10
ATOM     10  O   UNL     1       3.920   4.513   1.702  0.00  0.00    +0.000 OA
BRANCH  10  11
ATOM     11  C   UNL     1       5.057   5.172   2.243  0.00  0.00    +0.000 C 
ATOM     12  F   UNL     1       5.944   4.348   2.838  0.00  0.00    +0.000 F 
ATOM     13  F   UNL     1       5.698   5.811   1.238  0.00  0.00    +0.000 F 
ATOM     14  F   UNL     1       4.650   6.097   3.138  0.00  0.00    +0.000 F 
ENDBRANCH  10  11
ENDBRANCH   8  10
ENDBRANCH   3   4
ENDBRANCH   1   3
BRANCH   1  15
ATOM     15  N   UNL     1       2.834  -0.524  -2.357  0.00  0.00    +0.000 N 
ATOM     16  H   UNL     1       1.870  -0.841  -2.423  0.00  0.00    +0.000 HD
BRANCH  15  17
ATOM     17  C   UNL     1       3.402  -0.350  -3.631  0.00  0.00    +0.000 A 
ATOM     18  C   UNL     1       4.570   0.357  -3.890  0.00  0.00    +0.000 A 
ATOM     19  N   UNL     1       5.148   0.494  -5.102  0.00  0.00    +0.000 NA
ATOM     20  C   UNL     1       4.530  -0.158  -6.111  0.00  0.00    +0.000 A 
ATOM     21  N   UNL     1       3.425  -0.917  -5.996  0.00  0.00    +0.000 NA
ATOM     22  C   UNL     1       2.907  -1.006  -4.751  0.00  0.00    +0.000 A 
BRANCH  20  23
ATOM     23  C   UNL     1       5.171  -0.020  -7.472  0.00  0.00    +0.000 C 
ATOM     24  N   UNL     1       6.320   0.741  -7.507  0.00  0.00    +0.000 N 
ATOM     25  O   UNL     1       4.733  -0.535  -8.495  0.00  0.00    +0.000 OA
ATOM     26  H   UNL     1       6.687   1.143  -6.652  0.00  0.00    +0.000 HD
ATOM     27  H   UNL     1       6.811   0.849  -8.383  0.00  0.00    +0.000 HD
ENDBRANCH  20  23
ENDBRANCH  15  17
ENDBRANCH   1  15
TORSDOF 7
