REMARK  Name = 
REMARK  7 active torsions:
REMARK  status: ('A' for Active; 'I' for Inactive)
REMARK    1  A    between atoms: C_1  and  C_2
REMARK    2  A    between atoms: C_2  and  C_3
REMARK    3  A    between atoms: C_2  and  C_14
REMARK    4  A    between atoms: C_3  and  N_4
REMARK    5  A    between atoms: C_8  and  C_9
REMARK    6  A    between atoms: C_18  and  N_19
REMARK    7  A    between atoms: N_19  and  C_20
REMARK                            x       y       z     vdW  Elec       q    Type
REMARK                         _______ _______ _______ _____ _____    ______ ____
ROOT
ATOM      1  C   UNL     1       0.926  -0.137  -0.074  0.00  0.00    +0.000 C 
ATOM      2  C   UNL     1       2.455  -0.091  -0.019  0.00  0.00    +0.000 C 
ENDROOT
BRANCH   2   3
ATOM      3  C   UNL     1       3.047  -1.467  -0.292  0.00  0.00    +0.000 A 
ATOM      4  C   UNL     1       3.910  -1.646  -1.369  0.00  0.00    +0.000 A 
ATOM      5  C   UNL     1       4.484  -2.895  -1.561  0.00  0.00    +0.000 A 
ATOM      6  C   UNL     1       4.177  -3.929  -0.682  0.00  0.00    +0.000 A 
ATOM      7  C   UNL     1       3.294  -3.693   0.363  0.00  0.00    +0.000 A 
ATOM      8  N   UNL     1       2.742  -2.476   0.569  0.00  0.00    +0.000 NA
BRANCH   7   9
ATOM      9  N   UNL     1       2.962  -4.687   1.293  0.00  0.00    +0.000 N 
ATOM     10  H   UNL     1       2.245  -4.297   1.900  0.00  0.00    +0.000 HD
BRANCH   9  11
ATOM     11  C   UNL     1       2.868  -6.092   1.042  0.00  0.00    +0.000 C 
ATOM     12  C   UNL     1       1.459  -6.534   0.592  0.00  0.00    +0.000 C 
ATOM     13  C   UNL     1       1.553  -7.695   1.600  0.00  0.00    +0.000 C 
ATOM     14  C   UNL     1       2.647  -6.903   2.339  0.00  0.00    +0.000 C 
ENDBRANCH   9  11
ENDBRANCH   7   9
ENDBRANCH   2   3
BRANCH   2  15
ATOM     15  C   UNL     1       2.985   0.429   1.331  0.00  0.00    +0.000 C 
BRANCH  15  16
ATOM     16  N   UNL     1       2.617   1.826   1.554  0.00  0.00    +0.000 N 
ATOM     17  C   UNL     1       3.036   2.465   2.710  0.00  0.00    +0.000 A 
ATOM     18  C   UNL     1       4.255   2.211   3.325  0.00  0.00    +0.000 A 
ATOM     19  C   UNL     1       4.637   2.958   4.441  0.00  0.00    +0.000 A 
ATOM     20  C   UNL     1       3.805   3.969   4.915  0.00  0.00    +0.000 A 
ATOM     21  C   UNL     1       2.607   4.155   4.246  0.00  0.00    +0.000 A 
ATOM     22  N   UNL     1       2.208   3.425   3.168  0.00  0.00    +0.000 NA
ATOM     23  H   UNL     1       1.634   2.059   1.437  0.00  0.00    +0.000 HD
BRANCH  20  24
ATOM     24  C   UNL     1       4.256   4.779   6.074  0.00  0.00    +0.000 C 
ATOM     25  N   UNL     1       3.462   5.789   6.529  0.00  0.00    +0.000 N 
ATOM     26  O   UNL     1       5.329   4.557   6.619  0.00  0.00    +0.000 OA
ATOM     27  H   UNL     1       2.575   6.073   6.147  0.00  0.00    +0.000 HD
ATOM     28  H   UNL     1       3.824   6.327   7.312  0.00  0.00    +0.000 HD
ENDBRANCH  20  24
ENDBRANCH  15  16
ENDBRANCH   2  15
TORSDOF 6
