REMARK  Name = 
REMARK  4 active torsions:
REMARK  status: ('A' for Active; 'I' for Inactive)
REMARK    1  A    between atoms: N_1  and  C_2
REMARK    2  A    between atoms: C_2  and  C_3
REMARK    3  A    between atoms: C_6  and  C_7
REMARK    4  A    between atoms: C_7  and  C_8
REMARK                            x       y       z     vdW  Elec       q    Type
REMARK                         _______ _______ _______ _____ _____    ______ ____
ROOT
ATOM      1  C   UNL     1       4.222   0.782  -5.509  0.00  0.00    +0.000 C 
ENDROOT
BRANCH   1   2
ATOM      2  C   UNL     1       4.316   2.235  -5.838  0.00  0.00    +0.000 A 
ATOM      3  N   UNL     1       3.285   2.868  -6.422  0.00  0.00    +0.000 NA
ATOM      4  N   UNL     1       3.715   4.136  -6.551  0.00  0.00    +0.000 N 
ATOM      5  C   UNL     1       4.989   4.339  -6.108  0.00  0.00    +0.000 A 
ATOM      6  C   UNL     1       5.784   5.480  -6.071  0.00  0.00    +0.000 A 
ATOM      7  F   UNL     1       5.329   6.657  -6.517  0.00  0.00    +0.000 F 
ATOM      8  C   UNL     1       7.074   5.371  -5.556  0.00  0.00    +0.000 A 
ATOM      9  C   UNL     1       7.550   4.141  -5.100  0.00  0.00    +0.000 A 
ATOM     10  C   UNL     1       6.739   2.997  -5.141  0.00  0.00    +0.000 A 
ATOM     11  C   UNL     1       5.428   3.105  -5.648  0.00  0.00    +0.000 A 
ATOM     12  H   UNL     1       3.090   4.822  -6.961  0.00  0.00    +0.000 HD
ENDBRANCH   1   2
BRANCH   1  16
ATOM     13  C   UNL     1       2.588   0.505  -1.576  0.00  0.00    +0.000 A 
ATOM     14  C   UNL     1       3.973   0.512  -1.717  0.00  0.00    +0.000 A 
ATOM     15  C   UNL     1       4.523   0.607  -2.994  0.00  0.00    +0.000 A 
ATOM     16  C   UNL     1       3.683   0.695  -4.107  0.00  0.00    +0.000 A 
ATOM     17  C   UNL     1       2.311   0.701  -3.866  0.00  0.00    +0.000 A 
ATOM     18  N   UNL     1       1.750   0.603  -2.638  0.00  0.00    +0.000 NA
BRANCH  13  19
ATOM     19  C   UNL     1       1.961   0.405  -0.202  0.00  0.00    +0.000 C 
BRANCH  19  20
ATOM     20  N   UNL     1       2.285   1.553   0.652  0.00  0.00    +0.000 NA
ATOM     21  H   UNL     1       1.713   1.498   1.493  0.00  0.00    +0.000 HD
ATOM     22  H   UNL     1       1.979   2.394   0.162  0.00  0.00    +0.000 HD
ENDBRANCH  19  20
ENDBRANCH  13  19
ENDBRANCH   1  16
TORSDOF 4
