REMARK  Name = 
REMARK  9 active torsions:
REMARK  status: ('A' for Active; 'I' for Inactive)
REMARK    1  A    between atoms: C_1  and  C_2
REMARK    2  A    between atoms: C_2  and  C_3
REMARK    3  A    between atoms: C_5  and  C_6
REMARK    4  A    between atoms: C_6  and  C_7
REMARK    5  A    between atoms: C_6  and  C_9
REMARK    6  A    between atoms: C_7  and  O_8
REMARK    7  A    between atoms: C_9  and  N_10
REMARK    8  A    between atoms: N_10  and  C_11
REMARK    9  A    between atoms: C_14  and  C_15
REMARK                            x       y       z     vdW  Elec       q    Type
REMARK                         _______ _______ _______ _____ _____    ______ ____
ROOT
ATOM      1  C   UNL     1       2.837   3.316   3.929  0.00  0.00    +0.000 C 
ENDROOT
BRANCH   1   4
ATOM      2  C   UNL     1       3.060   0.368   1.452  0.00  0.00    +0.000 A 
ATOM      3  C   UNL     1       2.777   1.626   1.993  0.00  0.00    +0.000 A 
ATOM      4  C   UNL     1       3.145   1.948   3.310  0.00  0.00    +0.000 A 
ATOM      5  C   UNL     1       3.841   0.980   4.034  0.00  0.00    +0.000 A 
ATOM      6  C   UNL     1       4.112  -0.237   3.425  0.00  0.00    +0.000 A 
ATOM      7  N   UNL     1       3.731  -0.561   2.168  0.00  0.00    +0.000 NA
BRANCH   2   9
ATOM      8  C   UNL     1       1.002   0.057   0.088  0.00  0.00    +0.000 C 
ATOM      9  C   UNL     1       2.550  -0.004   0.047  0.00  0.00    +0.000 C 
ATOM     10  C   UNL     1       3.115   0.980  -1.007  0.00  0.00    +0.000 C 
ATOM     11  C   UNL     1       2.784   0.551  -2.434  0.00  0.00    +0.000 C 
ATOM     12  O   UNL     1       3.245  -0.770  -2.692  0.00  0.00    +0.000 OA
ATOM     13  C   UNL     1       2.662  -1.738  -1.823  0.00  0.00    +0.000 C 
ATOM     14  C   UNL     1       2.994  -1.431  -0.367  0.00  0.00    +0.000 C 
ENDBRANCH   2   9
ENDBRANCH   1   4
BRANCH   1  15
ATOM     15  C   UNL     1       4.006   4.277   3.667  0.00  0.00    +0.000 C 
BRANCH  15  16
ATOM     16  O   UNL     1       4.137   4.582   2.283  0.00  0.00    +0.000 OA
ATOM     17  H   UNL     1       4.488   3.782   1.849  0.00  0.00    +0.000 HD
ENDBRANCH  15  16
ENDBRANCH   1  15
BRANCH   1  18
ATOM     18  C   UNL     1       1.480   3.875   3.438  0.00  0.00    +0.000 C 
BRANCH  18  19
ATOM     19  N   UNL     1       1.089   5.151   4.062  0.00  0.00    +0.000 N 
ATOM     20  H   UNL     1       1.823   5.854   3.955  0.00  0.00    +0.000 HD
BRANCH  19  21
ATOM     21  C   UNL     1      -0.121   5.690   3.559  0.00  0.00    +0.000 A 
ATOM     22  C   UNL     1      -0.304   7.077   3.530  0.00  0.00    +0.000 A 
ATOM     23  C   UNL     1      -1.500   7.621   3.046  0.00  0.00    +0.000 A 
ATOM     24  C   UNL     1      -2.497   6.752   2.635  0.00  0.00    +0.000 A 
ATOM     25  N   UNL     1      -2.396   5.400   2.702  0.00  0.00    +0.000 NA
ATOM     26  C   UNL     1      -1.227   4.917   3.183  0.00  0.00    +0.000 A 
BRANCH  24  27
ATOM     27  C   UNL     1      -3.779   7.280   2.069  0.00  0.00    +0.000 C 
ATOM     28  N   UNL     1      -4.678   6.324   1.680  0.00  0.00    +0.000 N 
ATOM     29  O   UNL     1      -4.011   8.477   1.951  0.00  0.00    +0.000 OA
ATOM     30  H   UNL     1      -4.441   5.344   1.797  0.00  0.00    +0.000 HD
ATOM     31  H   UNL     1      -5.564   6.596   1.281  0.00  0.00    +0.000 HD
ENDBRANCH  24  27
ENDBRANCH  19  21
ENDBRANCH  18  19
ENDBRANCH   1  18
TORSDOF 8
