REMARK  Name = 
REMARK  8 active torsions:
REMARK  status: ('A' for Active; 'I' for Inactive)
REMARK    1  A    between atoms: C_1  and  C_2
REMARK    2  A    between atoms: C_5  and  C_6
REMARK    3  A    between atoms: C_6  and  C_7
REMARK    4  A    between atoms: C_6  and  N_8
REMARK    5  A    between atoms: N_8  and  C_9
REMARK    6  A    between atoms: C_12  and  C_13
REMARK    7  A    between atoms: N_15  and  O_16
REMARK    8  A    between atoms: C_18  and  C_19
REMARK                            x       y       z     vdW  Elec       q    Type
REMARK                         _______ _______ _______ _____ _____    ______ ____
ROOT
ATOM      1  C   UNL     1      -5.194   1.688  -0.103  0.00  0.00    +0.000 A 
ATOM      2  N   UNL     1      -5.844   0.752  -0.831  0.00  0.00    +0.000 NA
ATOM      3  C   UNL     1      -7.135   0.999  -1.193  0.00  0.00    +0.000 A 
ATOM      4  C   UNL     1      -7.834   2.138  -0.842  0.00  0.00    +0.000 A 
ATOM      5  C   UNL     1      -7.174   3.072  -0.043  0.00  0.00    +0.000 A 
ATOM      6  C   UNL     1      -5.839   2.861   0.325  0.00  0.00    +0.000 A 
ATOM      7  C   UNL     1      -5.166   3.883   1.193  0.00  0.00    +0.000 C 
ENDROOT
BRANCH   4   8
ATOM      8  C   UNL     1      -9.227   2.393  -1.296  0.00  0.00    +0.000 C 
ATOM      9  N   UNL     1      -9.700   3.688  -1.287  0.00  0.00    +0.000 N 
ATOM     10  N   UNL     1      -9.961   1.396  -1.702  0.00  0.00    +0.000 NA
ATOM     11  H   UNL     1      -9.049   4.385  -1.624  0.00  0.00    +0.000 HD
ATOM     12  H   UNL     1     -10.586   3.721  -1.792  0.00  0.00    +0.000 HD
BRANCH  10  13
ATOM     13  O   UNL     1     -11.230   1.854  -2.103  0.00  0.00    +0.000 OA
ATOM     14  H   UNL     1     -11.712   1.017  -2.242  0.00  0.00    +0.000 HD
ENDBRANCH  10  13
ENDBRANCH   4   8
BRANCH   1  15
ATOM     15  N   UNL     1      -3.876   1.470   0.275  0.00  0.00    +0.000 N 
ATOM     16  H   UNL     1      -3.249   2.224   0.009  0.00  0.00    +0.000 HD
BRANCH  15  17
ATOM     17  C   UNL     1      -3.250   0.158   0.111  0.00  0.00    +0.000 C 
ATOM     18  C   UNL     1      -2.765  -0.088  -1.316  0.00  0.00    +0.000 C 
BRANCH  17  23
ATOM     19  C   UNL     1       0.880   0.479   4.125  0.00  0.00    +0.000 C 
ATOM     20  C   UNL     1      -0.087   0.248   3.008  0.00  0.00    +0.000 A 
ATOM     21  C   UNL     1      -1.029  -0.778   3.060  0.00  0.00    +0.000 A 
ATOM     22  C   UNL     1      -2.022  -0.856   2.085  0.00  0.00    +0.000 A 
ATOM     23  C   UNL     1      -2.057   0.103   1.075  0.00  0.00    +0.000 A 
ATOM     24  N   UNL     1      -1.106   1.075   0.969  0.00  0.00    +0.000 NA
ATOM     25  C   UNL     1      -0.157   1.124   1.931  0.00  0.00    +0.000 A 
ENDBRANCH  17  23
ENDBRANCH  15  17
ENDBRANCH   1  15
TORSDOF 5
