REMARK  Name = 
REMARK  6 active torsions:
REMARK  status: ('A' for Active; 'I' for Inactive)
REMARK    1  A    between atoms: C_2  and  C_4
REMARK    2  A    between atoms: N_8  and  C_9
REMARK    3  A    between atoms: C_9  and  C_10
REMARK    4  A    between atoms: C_14  and  C_15
REMARK    5  A    between atoms: C_19  and  C_20
REMARK    6  A    between atoms: C_20  and  O_21
REMARK                            x       y       z     vdW  Elec       q    Type
REMARK                         _______ _______ _______ _____ _____    ______ ____
ROOT
ATOM      1  C   UNL     1       5.081   4.558   3.852  0.00  0.00    +0.000 C 
ATOM      2  C   UNL     1       4.081   4.147   2.771  0.00  0.00    +0.000 C 
ATOM      3  C   UNL     1       5.393   3.448   2.860  0.00  0.00    +0.000 C 
ENDROOT
BRANCH   1   8
ATOM      4  C   UNL     1       6.525   2.568   8.451  0.00  0.00    +0.000 A 
ATOM      5  C   UNL     1       6.841   2.130   7.168  0.00  0.00    +0.000 A 
ATOM      6  C   UNL     1       6.233   2.731   6.068  0.00  0.00    +0.000 A 
ATOM      7  C   UNL     1       5.317   3.757   6.261  0.00  0.00    +0.000 A 
ATOM      8  N   UNL     1       4.596   4.345   5.224  0.00  0.00    +0.000 N 
ATOM      9  N   UNL     1       4.998   4.189   7.505  0.00  0.00    +0.000 NA
ATOM     10  C   UNL     1       5.596   3.589   8.565  0.00  0.00    +0.000 A 
ATOM     11  H   UNL     1       4.055   5.099   5.641  0.00  0.00    +0.000 HD
BRANCH   4  13
ATOM     12  N   UNL     1       8.321   1.349   9.533  0.00  0.00    +0.000 N 
ATOM     13  C   UNL     1       7.097   1.949   9.662  0.00  0.00    +0.000 C 
ATOM     14  O   UNL     1       6.513   1.977  10.737  0.00  0.00    +0.000 OA
ATOM     15  H   UNL     1       8.735   0.965  10.372  0.00  0.00    +0.000 HD
ATOM     16  H   UNL     1       8.926   1.504   8.740  0.00  0.00    +0.000 HD
ENDBRANCH   4  13
ENDBRANCH   1   8
BRANCH   1  17
ATOM     17  C   UNL     1       5.864   5.852   3.648  0.00  0.00    +0.000 A 
ATOM     18  C   UNL     1       7.255   5.899   3.837  0.00  0.00    +0.000 A 
ATOM     19  C   UNL     1       7.987   7.036   3.511  0.00  0.00    +0.000 A 
ATOM     20  C   UNL     1       7.343   8.157   2.988  0.00  0.00    +0.000 A 
ATOM     21  C   UNL     1       5.950   8.175   2.802  0.00  0.00    +0.000 A 
ATOM     22  C   UNL     1       5.237   7.018   3.172  0.00  0.00    +0.000 A 
BRANCH  21  23
ATOM     23  C   UNL     1       5.263   9.319   2.167  0.00  0.00    +0.000 A 
ATOM     24  C   UNL     1       5.849  10.055   1.139  0.00  0.00    +0.000 A 
ATOM     25  N   UNL     1       5.264  11.085   0.478  0.00  0.00    +0.000 NA
ATOM     26  C   UNL     1       4.008  11.400   0.847  0.00  0.00    +0.000 A 
ATOM     27  C   UNL     1       3.296  10.737   1.837  0.00  0.00    +0.000 A 
ATOM     28  C   UNL     1       3.956   9.702   2.519  0.00  0.00    +0.000 A 
BRANCH  27  29
ATOM     29  C   UNL     1       1.906  11.174   2.189  0.00  0.00    +0.000 C 
BRANCH  29  30
ATOM     30  O   UNL     1       1.109  10.085   2.637  0.00  0.00    +0.000 OA
ATOM     31  H   UNL     1       1.087   9.434   1.914  0.00  0.00    +0.000 HD
ENDBRANCH  29  30
ENDBRANCH  27  29
ENDBRANCH  21  23
ENDBRANCH   1  17
TORSDOF 6
