REMARK  Name = 
REMARK  4 active torsions:
REMARK  status: ('A' for Active; 'I' for Inactive)
REMARK    1  A    between atoms: C_2  and  C_4
REMARK    2  A    between atoms: C_7  and  O_8
REMARK    3  A    between atoms: O_8  and  C_9
REMARK    4  A    between atoms: C_9  and  C_10
REMARK                            x       y       z     vdW  Elec       q    Type
REMARK                         _______ _______ _______ _____ _____    ______ ____
ROOT
ATOM      1  C   UNL     1       2.848  -2.199   1.189  0.00  0.00    +0.000 A 
ATOM      2  C   UNL     1       3.820  -1.522   0.453  0.00  0.00    +0.000 A 
ATOM      3  C   UNL     1       4.678  -2.256  -0.358  0.00  0.00    +0.000 A 
ATOM      4  C   UNL     1       4.526  -3.636  -0.425  0.00  0.00    +0.000 A 
ATOM      5  N   UNL     1       3.600  -4.325   0.268  0.00  0.00    +0.000 NA
ATOM      6  C   UNL     1       2.789  -3.587   1.078  0.00  0.00    +0.000 A 
ENDROOT
BRANCH   1   8
ATOM      7  N   UNL     1       1.624  -0.193   1.821  0.00  0.00    +0.000 N 
ATOM      8  C   UNL     1       1.921  -1.499   2.104  0.00  0.00    +0.000 C 
ATOM      9  O   UNL     1       1.421  -2.069   3.064  0.00  0.00    +0.000 OA
ATOM     10  H   UNL     1       0.934   0.254   2.413  0.00  0.00    +0.000 HD
ATOM     11  H   UNL     1       1.819   0.236   0.928  0.00  0.00    +0.000 HD
ENDBRANCH   1   8
BRANCH   4  12
ATOM     12  O   UNL     1       5.439  -4.276  -1.238  0.00  0.00    +0.000 OA
BRANCH  12  13
ATOM     13  C   UNL     1       5.119  -5.588  -1.761  0.00  0.00    +0.000 C 
ATOM     14  C   UNL     1       5.091  -5.498  -3.291  0.00  0.00    +0.000 C 
ATOM     15  C   UNL     1       3.845  -5.838  -2.547  0.00  0.00    +0.000 C 
BRANCH  13  16
ATOM     16  C   UNL     1       5.842  -6.776  -1.118  0.00  0.00    +0.000 A 
ATOM     17  N   UNL     1       5.113  -7.811  -0.635  0.00  0.00    +0.000 NA
ATOM     18  C   UNL     1       5.781  -8.844  -0.087  0.00  0.00    +0.000 A 
ATOM     19  C   UNL     1       7.148  -8.906  -0.008  0.00  0.00    +0.000 A 
ATOM     20  C   UNL     1       7.813  -7.832  -0.540  0.00  0.00    +0.000 A 
ATOM     21  N   UNL     1       7.196  -6.773  -1.099  0.00  0.00    +0.000 NA
ENDBRANCH  13  16
ENDBRANCH  12  13
ENDBRANCH   4  12
TORSDOF 4
