REMARK  Name = 
REMARK  9 active torsions:
REMARK  status: ('A' for Active; 'I' for Inactive)
REMARK    1  A    between atoms: C_1  and  O_2
REMARK    2  A    between atoms: O_2  and  C_3
REMARK    3  A    between atoms: C_6  and  C_7
REMARK    4  A    between atoms: N_9  and  C_10
REMARK    5  A    between atoms: N_13  and  C_14
REMARK    6  A    between atoms: C_14  and  C_15
REMARK    7  A    between atoms: C_15  and  C_16
REMARK    8  A    between atoms: C_29  and  O_30
REMARK    9  A    between atoms: O_30  and  C_31
REMARK                            x       y       z     vdW  Elec       q    Type
REMARK                         _______ _______ _______ _____ _____    ______ ____
ROOT
ATOM      1  C   UNL     1       4.918   6.724  -2.963  0.00  0.00    +0.000 C 
ATOM      2  C   UNL     1       4.385   6.750  -4.386  0.00  0.00    +0.000 C 
ATOM      3  C   UNL     1       5.024   7.918  -5.107  0.00  0.00    +0.000 C 
ATOM      4  N   UNL     1       4.808   9.188  -4.421  0.00  0.00    +0.000 N 
ATOM      5  C   UNL     1       4.852   9.268  -3.032  0.00  0.00    +0.000 C 
ATOM      6  O   UNL     1       4.993  10.337  -2.430  0.00  0.00    +0.000 OA
ATOM      7  C   UNL     1       4.536   8.011  -2.249  0.00  0.00    +0.000 C 
ENDROOT
BRANCH   1  10
ATOM      8  C   UNL     1       5.090   4.338  -2.302  0.00  0.00    +0.000 C 
ATOM      9  O   UNL     1       6.135   4.200  -2.924  0.00  0.00    +0.000 OA
ATOM     10  N   UNL     1       4.420   5.551  -2.244  0.00  0.00    +0.000 N 
ATOM     11  H   UNL     1       3.456   5.565  -1.933  0.00  0.00    +0.000 HD
BRANCH   8  15
ATOM     12  C   UNL     1       3.443   1.127  -0.081  0.00  0.00    +0.000 A 
ATOM     13  C   UNL     1       3.197   2.411   0.357  0.00  0.00    +0.000 A 
ATOM     14  C   UNL     1       3.725   3.471  -0.384  0.00  0.00    +0.000 A 
ATOM     15  C   UNL     1       4.479   3.214  -1.541  0.00  0.00    +0.000 A 
ATOM     16  C   UNL     1       4.677   1.880  -1.893  0.00  0.00    +0.000 A 
ATOM     17  N   UNL     1       4.156   0.850  -1.184  0.00  0.00    +0.000 NA
BRANCH  12  19
ATOM     18  C   UNL     1       3.281  -1.187   0.112  0.00  0.00    +0.000 C 
ATOM     19  O   UNL     1       2.943   0.085   0.668  0.00  0.00    +0.000 OA
ENDBRANCH  12  19
BRANCH  16  20
ATOM     20  O   UNL     1       5.399   1.547  -3.018  0.00  0.00    +0.000 OA
ATOM     21  C   UNL     1       5.555   0.137  -3.184  0.00  0.00    +0.000 C 
ENDBRANCH  16  20
ENDBRANCH   8  15
ENDBRANCH   1  10
BRANCH   4  22
ATOM     22  C   UNL     1       5.037  10.421  -5.190  0.00  0.00    +0.000 C 
BRANCH  22  23
ATOM     23  C   UNL     1       4.141  10.592  -6.424  0.00  0.00    +0.000 C 
BRANCH  23  24
ATOM     24  C   UNL     1       2.647  10.606  -6.184  0.00  0.00    +0.000 A 
ATOM     25  C   UNL     1       1.997  10.601  -4.965  0.00  0.00    +0.000 A 
ATOM     26  S   UNL     1       0.291  10.598  -5.107  0.00  0.00    +0.000 S 
ATOM     27  C   UNL     1       0.374  10.641  -6.807  0.00  0.00    +0.000 A 
ATOM     28  N   UNL     1      -0.749  10.671  -7.574  0.00  0.00    +0.000 NA
ATOM     29  C   UNL     1      -0.521  10.717  -8.844  0.00  0.00    +0.000 A 
ATOM     30  N   UNL     1       0.726  10.730  -9.421  0.00  0.00    +0.000 N 
ATOM     31  C   UNL     1       1.892  10.692  -8.689  0.00  0.00    +0.000 A 
ATOM     32  O   UNL     1       2.992  10.699  -9.229  0.00  0.00    +0.000 OA
ATOM     33  C   UNL     1       1.680  10.646  -7.253  0.00  0.00    +0.000 A 
ATOM     34  H   UNL     1       0.834  10.763 -10.423  0.00  0.00    +0.000 HD
ENDBRANCH  23  24
ENDBRANCH  22  23
ENDBRANCH   4  22
TORSDOF 7
