REMARK  Name = 
REMARK  7 active torsions:
REMARK  status: ('A' for Active; 'I' for Inactive)
REMARK    1  A    between atoms: C_1  and  N_2
REMARK    2  A    between atoms: N_2  and  C_3
REMARK    3  A    between atoms: N_2  and  C_4
REMARK    4  A    between atoms: C_4  and  C_5
REMARK    5  A    between atoms: C_5  and  C_6
REMARK    6  A    between atoms: C_9  and  C_10
REMARK    7  A    between atoms: C_10  and  N_11
REMARK                            x       y       z     vdW  Elec       q    Type
REMARK                         _______ _______ _______ _____ _____    ______ ____
ROOT
ATOM      1  C   UNL     1       4.971  -2.834   0.481  0.00  0.00    +0.000 C 
ATOM      2  C   UNL     1       4.164  -3.818  -0.376  0.00  0.00    +0.000 C 
ATOM      3  C   UNL     1       4.706  -5.237  -0.258  0.00  0.00    +0.000 C 
ATOM      4  C   UNL     1       4.759  -5.739   1.193  0.00  0.00    +0.000 C 
ATOM      5  C   UNL     1       5.481  -4.721   2.095  0.00  0.00    +0.000 C 
ATOM      6  C   UNL     1       4.943  -3.295   1.944  0.00  0.00    +0.000 C 
ENDROOT
BRANCH   1   7
ATOM      7  C   UNL     1       4.418  -1.410   0.284  0.00  0.00    +0.000 C 
BRANCH   7   8
ATOM      8  C   UNL     1       5.186  -0.298   1.018  0.00  0.00    +0.000 C 
BRANCH   8  10
ATOM      9  C   UNL     1       6.868   0.090  -0.698  0.00  0.00    +0.000 C 
ATOM     10  N   UNL     1       6.625  -0.239   0.707  0.00  0.00    +0.000 NA
ATOM     11  C   UNL     1       7.283   0.749   1.566  0.00  0.00    +0.000 C 
ENDBRANCH   8  10
ENDBRANCH   7   8
ENDBRANCH   1   7
BRANCH   4  12
ATOM     12  C   UNL     1       5.460  -7.109   1.292  0.00  0.00    +0.000 C 
BRANCH  12  13
ATOM     13  N   UNL     1       4.872  -8.163   0.480  0.00  0.00    +0.000 N 
ATOM     14  N   UNL     1       5.312  -8.326  -0.786  0.00  0.00    +0.000 NA
ATOM     15  C   UNL     1       4.691  -9.429  -1.202  0.00  0.00    +0.000 A 
ATOM     16  C   UNL     1       3.871  -9.998  -0.209  0.00  0.00    +0.000 A 
ATOM     17  C   UNL     1       3.069 -11.150  -0.113  0.00  0.00    +0.000 A 
ATOM     18  C   UNL     1       2.403 -11.384   1.089  0.00  0.00    +0.000 A 
ATOM     19  F   UNL     1       1.664 -12.497   1.213  0.00  0.00    +0.000 F 
ATOM     20  C   UNL     1       2.489 -10.504   2.159  0.00  0.00    +0.000 A 
ATOM     21  C   UNL     1       3.272  -9.346   2.074  0.00  0.00    +0.000 A 
ATOM     22  C   UNL     1       3.975  -9.132   0.879  0.00  0.00    +0.000 A 
ENDBRANCH  12  13
ENDBRANCH   4  12
TORSDOF 5
