REMARK  Name = 
REMARK  9 active torsions:
REMARK  status: ('A' for Active; 'I' for Inactive)
REMARK    1  A    between atoms: N_1  and  C_2
REMARK    2  A    between atoms: C_2  and  C_3
REMARK    3  A    between atoms: C_3  and  C_4
REMARK    4  A    between atoms: C_4  and  N_5
REMARK    5  A    between atoms: C_4  and  C_18
REMARK    6  A    between atoms: C_6  and  C_8
REMARK    7  A    between atoms: C_21  and  N_22
REMARK    8  A    between atoms: N_22  and  C_23
REMARK    9  A    between atoms: C_23  and  C_24
REMARK                            x       y       z     vdW  Elec       q    Type
REMARK                         _______ _______ _______ _____ _____    ______ ____
ROOT
ATOM      1  C   UNL     1       4.480  -1.107   0.786  0.00  0.00    +0.000 C 
ENDROOT
BRANCH   1   2
ATOM      2  C   UNL     1       4.855  -2.368   1.545  0.00  0.00    +0.000 A 
ATOM      3  C   UNL     1       4.957  -3.578   0.841  0.00  0.00    +0.000 A 
ATOM      4  C   UNL     1       5.349  -4.757   1.485  0.00  0.00    +0.000 A 
ATOM      5  C   UNL     1       5.662  -4.757   2.846  0.00  0.00    +0.000 A 
ATOM      6  C   UNL     1       5.460  -3.576   3.565  0.00  0.00    +0.000 A 
ATOM      7  C   UNL     1       5.066  -2.394   2.928  0.00  0.00    +0.000 A 
BRANCH   5   8
ATOM      8  N   UNL     1       6.137  -5.873   3.538  0.00  0.00    +0.000 N 
ATOM      9  H   UNL     1       5.432  -6.255   4.164  0.00  0.00    +0.000 HD
BRANCH   8  10
ATOM     10  C   UNL     1       6.838  -6.909   2.790  0.00  0.00    +0.000 C 
BRANCH  10  11
ATOM     11  C   UNL     1       7.784  -7.652   3.704  0.00  0.00    +0.000 A 
ATOM     12  C   UNL     1       7.740  -9.049   3.805  0.00  0.00    +0.000 A 
ATOM     13  C   UNL     1       8.672  -9.732   4.590  0.00  0.00    +0.000 A 
ATOM     14  C   UNL     1       9.661  -9.025   5.278  0.00  0.00    +0.000 A 
ATOM     15  C   UNL     1       9.710  -7.636   5.190  0.00  0.00    +0.000 A 
ATOM     16  C   UNL     1       8.777  -6.953   4.408  0.00  0.00    +0.000 A 
ENDBRANCH  10  11
ENDBRANCH   8  10
ENDBRANCH   5   8
ENDBRANCH   1   2
BRANCH   1  17
ATOM     17  N   UNL     1       3.029  -1.009   0.746  0.00  0.00    +0.000 N 
ATOM     18  C   UNL     1       2.370  -0.483  -0.333  0.00  0.00    +0.000 C 
ATOM     19  O   UNL     1       2.962  -0.165  -1.362  0.00  0.00    +0.000 OA
ATOM     20  H   UNL     1       2.535  -1.123   1.629  0.00  0.00    +0.000 HD
BRANCH  18  21
ATOM     21  C   UNL     1       0.913  -0.365  -0.234  0.00  0.00    +0.000 A 
ATOM     22  C   UNL     1       0.155  -0.330  -1.397  0.00  0.00    +0.000 A 
ATOM     23  S   UNL     1      -1.518  -0.160  -1.120  0.00  0.00    +0.000 S 
ATOM     24  C   UNL     1      -1.283  -0.078   0.563  0.00  0.00    +0.000 A 
ATOM     25  N   UNL     1      -2.333   0.130   1.401  0.00  0.00    +0.000 NA
ATOM     26  C   UNL     1      -2.010   0.214   2.648  0.00  0.00    +0.000 A 
ATOM     27  N   UNL     1      -0.734   0.083   3.135  0.00  0.00    +0.000 N 
ATOM     28  C   UNL     1       0.349  -0.192   2.331  0.00  0.00    +0.000 A 
ATOM     29  O   UNL     1       1.460  -0.407   2.806  0.00  0.00    +0.000 OA
ATOM     30  C   UNL     1       0.048  -0.232   0.913  0.00  0.00    +0.000 A 
ATOM     31  H   UNL     1      -0.557   0.125   4.127  0.00  0.00    +0.000 HD
ENDBRANCH  18  21
ENDBRANCH   1  17
BRANCH   1  32
ATOM     32  C   UNL     1       5.077   0.213   1.317  0.00  0.00    +0.000 C 
BRANCH  32  33
ATOM     33  C   UNL     1       6.606   0.250   1.281  0.00  0.00    +0.000 C 
BRANCH  33  34
ATOM     34  N   UNL     1       7.081   1.548   1.760  0.00  0.00    +0.000 NA
ATOM     35  H   UNL     1       8.092   1.515   1.883  0.00  0.00    +0.000 HD
ATOM     36  H   UNL     1       6.686   1.746   2.678  0.00  0.00    +0.000 HD
ENDBRANCH  33  34
ENDBRANCH  32  33
ENDBRANCH   1  32
TORSDOF 9
