REMARK  Name = 
REMARK  5 active torsions:
REMARK  status: ('A' for Active; 'I' for Inactive)
REMARK    1  A    between atoms: C_2  and  C_18
REMARK    2  A    between atoms: N_3  and  C_4
REMARK    3  A    between atoms: C_4  and  C_5
REMARK    4  A    between atoms: C_8  and  C_9
REMARK    5  A    between atoms: C_9  and  C_10
REMARK                            x       y       z     vdW  Elec       q    Type
REMARK                         _______ _______ _______ _____ _____    ______ ____
ROOT
ATOM      1  O   UNL     1       0.423   2.178  -2.691  0.00  0.00    +0.000 OA
ATOM      2  C   UNL     1       0.153   1.035  -3.049  0.00  0.00    +0.000 C 
ATOM      3  N   UNL     1       1.010  -0.017  -2.874  0.00  0.00    +0.000 N 
ATOM      4  H   UNL     1       0.821  -0.893  -3.347  0.00  0.00    +0.000 HD
ENDROOT
BRANCH   2   5
ATOM      5  C   UNL     1      -1.147   0.715  -3.655  0.00  0.00    +0.000 A 
ATOM      6  C   UNL     1      -2.236   1.548  -3.435  0.00  0.00    +0.000 A 
ATOM      7  S   UNL     1      -3.664   1.023  -4.207  0.00  0.00    +0.000 S 
ATOM      8  C   UNL     1      -2.864  -0.310  -4.900  0.00  0.00    +0.000 A 
ATOM      9  N   UNL     1      -3.520  -1.167  -5.728  0.00  0.00    +0.000 NA
ATOM     10  C   UNL     1      -2.782  -2.104  -6.220  0.00  0.00    +0.000 A 
ATOM     11  N   UNL     1      -1.449  -2.273  -5.949  0.00  0.00    +0.000 N 
ATOM     12  C   UNL     1      -0.767  -1.485  -5.054  0.00  0.00    +0.000 A 
ATOM     13  O   UNL     1       0.382  -1.756  -4.721  0.00  0.00    +0.000 OA
ATOM     14  C   UNL     1      -1.536  -0.376  -4.518  0.00  0.00    +0.000 A 
ATOM     15  H   UNL     1      -0.935  -3.049  -6.338  0.00  0.00    +0.000 HD
ENDBRANCH   2   5
BRANCH   3  16
ATOM     16  C   UNL     1       2.356   0.148  -2.389  0.00  0.00    +0.000 C 
BRANCH  16  17
ATOM     17  C   UNL     1       3.332   0.299  -3.527  0.00  0.00    +0.000 A 
ATOM     18  C   UNL     1       3.593   1.565  -4.062  0.00  0.00    +0.000 A 
ATOM     19  C   UNL     1       4.505   1.719  -5.107  0.00  0.00    +0.000 A 
ATOM     20  C   UNL     1       5.182   0.611  -5.635  0.00  0.00    +0.000 A 
ATOM     21  C   UNL     1       4.896  -0.661  -5.121  0.00  0.00    +0.000 A 
ATOM     22  C   UNL     1       3.968  -0.817  -4.087  0.00  0.00    +0.000 A 
BRANCH  20  23
ATOM     23  C   UNL     1       6.193   0.785  -6.746  0.00  0.00    +0.000 C 
BRANCH  23  24
ATOM     24  C   UNL     1       7.621   1.040  -6.307  0.00  0.00    +0.000 A 
ATOM     25  C   UNL     1       7.949   2.143  -5.520  0.00  0.00    +0.000 A 
ATOM     26  C   UNL     1       9.289   2.415  -5.253  0.00  0.00    +0.000 A 
ATOM     27  C   UNL     1      10.269   1.581  -5.773  0.00  0.00    +0.000 A 
ATOM     28  C   UNL     1       9.864   0.495  -6.530  0.00  0.00    +0.000 A 
ATOM     29  N   UNL     1       8.572   0.211  -6.811  0.00  0.00    +0.000 NA
ENDBRANCH  23  24
ENDBRANCH  20  23
ENDBRANCH  16  17
ENDBRANCH   3  16
TORSDOF 5
