REMARK  Name = 
REMARK  10 active torsions:
REMARK  status: ('A' for Active; 'I' for Inactive)
REMARK    1  A    between atoms: C_1  and  O_2
REMARK    2  A    between atoms: O_2  and  C_3
REMARK    3  A    between atoms: C_10  and  C_11
REMARK    4  A    between atoms: N_13  and  C_14
REMARK    5  A    between atoms: C_14  and  C_15
REMARK    6  A    between atoms: C_18  and  C_19
REMARK    7  A    between atoms: C_19  and  N_20
REMARK    8  A    between atoms: N_20  and  C_21
REMARK    9  A    between atoms: C_21  and  C_22
REMARK   10  A    between atoms: C_21  and  C_23
REMARK                            x       y       z     vdW  Elec       q    Type
REMARK                         _______ _______ _______ _____ _____    ______ ____
ROOT
ATOM      1  C   UNL     1       1.847  -2.772  -2.060  0.00  0.00    +0.000 A 
ATOM      2  C   UNL     1       1.872  -4.152  -1.819  0.00  0.00    +0.000 A 
ATOM      3  C   UNL     1       0.860  -4.760  -1.070  0.00  0.00    +0.000 A 
ATOM      4  C   UNL     1      -0.202  -4.005  -0.552  0.00  0.00    +0.000 A 
ATOM      5  C   UNL     1      -0.256  -2.636  -0.844  0.00  0.00    +0.000 A 
ATOM      6  C   UNL     1       0.755  -2.027  -1.595  0.00  0.00    +0.000 A 
ENDROOT
BRANCH   1   7
ATOM      7  C   UNL     1       2.980  -2.099  -2.788  0.00  0.00    +0.000 C 
BRANCH   7  10
ATOM      8  C   UNL     1       3.705  -1.501  -5.044  0.00  0.00    +0.000 C 
ATOM      9  O   UNL     1       4.722  -0.979  -4.590  0.00  0.00    +0.000 OA
ATOM     10  N   UNL     1       2.778  -2.072  -4.215  0.00  0.00    +0.000 N 
ATOM     11  H   UNL     1       1.947  -2.511  -4.590  0.00  0.00    +0.000 HD
BRANCH   8  19
ATOM     12  C   UNL     1       1.144  -2.738  -6.989  0.00  0.00    +0.000 A 
ATOM     13  N   UNL     1       0.337  -3.183  -7.973  0.00  0.00    +0.000 NA
ATOM     14  C   UNL     1       0.712  -2.971  -9.238  0.00  0.00    +0.000 A 
ATOM     15  N   UNL     1       1.811  -2.348  -9.653  0.00  0.00    +0.000 NA
ATOM     16  C   UNL     1       2.594  -1.935  -8.642  0.00  0.00    +0.000 A 
ATOM     17  S   UNL     1       4.035  -1.108  -8.988  0.00  0.00    +0.000 S 
ATOM     18  C   UNL     1       4.407  -0.971  -7.337  0.00  0.00    +0.000 A 
ATOM     19  C   UNL     1       3.459  -1.543  -6.495  0.00  0.00    +0.000 A 
ATOM     20  C   UNL     1       2.361  -2.098  -7.279  0.00  0.00    +0.000 A 
BRANCH  12  22
ATOM     21  C   UNL     1      -0.666  -3.049  -5.548  0.00  0.00    +0.000 C 
ATOM     22  O   UNL     1       0.751  -2.950  -5.684  0.00  0.00    +0.000 OA
ENDBRANCH  12  22
ENDBRANCH   8  19
ENDBRANCH   7  10
ENDBRANCH   1   7
BRANCH   4  23
ATOM     23  C   UNL     1      -1.273  -4.661   0.293  0.00  0.00    +0.000 C 
BRANCH  23  24
ATOM     24  N   UNL     1      -0.708  -5.278   1.494  0.00  0.00    +0.000 NA
ATOM     25  H   UNL     1      -0.179  -4.567   2.001  0.00  0.00    +0.000 HD
BRANCH  24  26
ATOM     26  C   UNL     1      -1.726  -5.824   2.406  0.00  0.00    +0.000 C 
ATOM     27  C   UNL     1      -2.526  -6.973   1.773  0.00  0.00    +0.000 C 
BRANCH  26  28
ATOM     28  C   UNL     1      -1.070  -6.299   3.699  0.00  0.00    +0.000 A 
ATOM     29  C   UNL     1      -1.454  -5.753   4.933  0.00  0.00    +0.000 A 
ATOM     30  C   UNL     1      -0.870  -6.198   6.123  0.00  0.00    +0.000 A 
ATOM     31  C   UNL     1       0.105  -7.193   6.096  0.00  0.00    +0.000 A 
ATOM     32  C   UNL     1       0.501  -7.741   4.879  0.00  0.00    +0.000 A 
ATOM     33  C   UNL     1      -0.080  -7.297   3.689  0.00  0.00    +0.000 A 
ENDBRANCH  26  28
ENDBRANCH  24  26
ENDBRANCH  23  24
ENDBRANCH   4  23
TORSDOF 8
