REMARK  Name = 
REMARK  5 active torsions:
REMARK  status: ('A' for Active; 'I' for Inactive)
REMARK    1  A    between atoms: N_1  and  C_2
REMARK    2  A    between atoms: C_2  and  C_3
REMARK    3  A    between atoms: C_6  and  C_7
REMARK    4  A    between atoms: C_8  and  C_9
REMARK    5  A    between atoms: C_15  and  O_16
REMARK                            x       y       z     vdW  Elec       q    Type
REMARK                         _______ _______ _______ _____ _____    ______ ____
ROOT
ATOM      1  C   UNL     1       2.963   1.417   0.302  0.00  0.00    +0.000 A 
ATOM      2  C   UNL     1       2.159   2.549   0.099  0.00  0.00    +0.000 A 
ATOM      3  C   UNL     1       2.678   3.837   0.288  0.00  0.00    +0.000 A 
ATOM      4  C   UNL     1       4.008   4.012   0.681  0.00  0.00    +0.000 A 
ATOM      5  C   UNL     1       4.800   2.884   0.917  0.00  0.00    +0.000 A 
ATOM      6  C   UNL     1       4.283   1.601   0.735  0.00  0.00    +0.000 A 
ENDROOT
BRANCH   4   7
ATOM      7  C   UNL     1       4.529   5.344   0.808  0.00  0.00    +0.000 C 
ATOM      8  C   UNL     1       4.979   6.452   0.904  0.00  0.00    +0.000 C 
BRANCH   8   9
ATOM      9  C   UNL     1       5.525   7.763   1.033  0.00  0.00    +0.000 A 
ATOM     10  N   UNL     1       4.831   8.765   0.473  0.00  0.00    +0.000 NA
ATOM     11  C   UNL     1       5.341   9.995   0.669  0.00  0.00    +0.000 A 
ATOM     12  C   UNL     1       6.488  10.238   1.391  0.00  0.00    +0.000 A 
ATOM     13  C   UNL     1       7.117   9.126   1.906  0.00  0.00    +0.000 A 
ATOM     14  N   UNL     1       6.659   7.870   1.743  0.00  0.00    +0.000 NA
ENDBRANCH   8   9
ENDBRANCH   4   7
BRANCH   5  15
ATOM     15  O   UNL     1       6.106   2.953   1.322  0.00  0.00    +0.000 OA
ATOM     16  H   UNL     1       6.358   3.888   1.403  0.00  0.00    +0.000 HD
ENDBRANCH   5  15
BRANCH   1  17
ATOM     17  C   UNL     1       2.432   0.028   0.055  0.00  0.00    +0.000 C 
BRANCH  17  18
ATOM     18  N   UNL     1       2.091  -0.177  -1.350  0.00  0.00    +0.000 NA
ATOM     19  H   UNL     1       1.785  -1.139  -1.479  0.00  0.00    +0.000 HD
ATOM     20  H   UNL     1       2.938  -0.071  -1.908  0.00  0.00    +0.000 HD
ENDBRANCH  17  18
ENDBRANCH   1  17
TORSDOF 5
