REMARK  Name = 
REMARK  9 active torsions:
REMARK  status: ('A' for Active; 'I' for Inactive)
REMARK    1  A    between atoms: C_1  and  C_2
REMARK    2  A    between atoms: C_4  and  O_5
REMARK    3  A    between atoms: O_5  and  C_6
REMARK    4  A    between atoms: C_6  and  C_7
REMARK    5  A    between atoms: C_7  and  C_8
REMARK    6  A    between atoms: C_7  and  C_9
REMARK    7  A    between atoms: C_13  and  O_14
REMARK    8  A    between atoms: O_14  and  C_15
REMARK    9  A    between atoms: C_22  and  C_23
REMARK                            x       y       z     vdW  Elec       q    Type
REMARK                         _______ _______ _______ _____ _____    ______ ____
ROOT
ATOM      1  C   UNL     1      -1.109   3.580   0.043  0.00  0.00    +0.000 C 
ENDROOT
BRANCH   1   2
ATOM      2  C   UNL     1      -2.052   4.798  -0.001  0.00  0.00    +0.000 C 
ATOM      3  C   UNL     1      -2.981   4.754  -1.219  0.00  0.00    +0.000 C 
BRANCH   2   4
ATOM      4  C   UNL     1      -1.250   6.094   0.035  0.00  0.00    +0.000 A 
ATOM      5  C   UNL     1      -0.324   6.413  -0.970  0.00  0.00    +0.000 A 
ATOM      6  C   UNL     1       0.408   7.602  -0.917  0.00  0.00    +0.000 A 
ATOM      7  C   UNL     1       0.235   8.490   0.145  0.00  0.00    +0.000 A 
ATOM      8  C   UNL     1      -0.666   8.182   1.161  0.00  0.00    +0.000 A 
ATOM      9  C   UNL     1      -1.414   6.998   1.097  0.00  0.00    +0.000 A 
BRANCH   8  10
ATOM     10  O   UNL     1      -0.920   8.980   2.249  0.00  0.00    +0.000 OA
BRANCH  10  11
ATOM     11  C   UNL     1       0.099   9.915   2.673  0.00  0.00    +0.000 C 
ATOM     12  C   UNL     1       1.390   9.351   3.284  0.00  0.00    +0.000 C 
ATOM     13  O   UNL     1       1.248  10.178   4.465  0.00  0.00    +0.000 OA
ATOM     14  C   UNL     1      -0.103  10.520   4.071  0.00  0.00    +0.000 C 
ENDBRANCH  10  11
ENDBRANCH   8  10
ENDBRANCH   2   4
ENDBRANCH   1   2
BRANCH   1  15
ATOM     15  O   UNL     1      -1.844   2.352   0.133  0.00  0.00    +0.000 OA
BRANCH  15  19
ATOM     16  C   UNL     1       2.514  -0.016   0.126  0.00  0.00    +0.000 C 
ATOM     17  C   UNL     1       1.009  -0.064   0.158  0.00  0.00    +0.000 A 
ATOM     18  C   UNL     1       0.309   1.158   0.125  0.00  0.00    +0.000 A 
ATOM     19  C   UNL     1      -1.086   1.207   0.160  0.00  0.00    +0.000 A 
ATOM     20  C   UNL     1      -1.797   0.009   0.224  0.00  0.00    +0.000 A 
ATOM     21  C   UNL     1      -1.122  -1.218   0.257  0.00  0.00    +0.000 A 
ATOM     22  C   UNL     1       0.283  -1.268   0.233  0.00  0.00    +0.000 A 
BRANCH  22  23
ATOM     23  C   UNL     1       0.979  -2.594   0.260  0.00  0.00    +0.000 C 
ATOM     24  N   UNL     1       0.347  -3.624   0.902  0.00  0.00    +0.000 N 
ATOM     25  O   UNL     1       2.080  -2.778  -0.242  0.00  0.00    +0.000 OA
ATOM     26  H   UNL     1      -0.456  -3.498   1.500  0.00  0.00    +0.000 HD
ATOM     27  H   UNL     1       0.873  -4.485   0.990  0.00  0.00    +0.000 HD
ENDBRANCH  22  23
ENDBRANCH  15  19
ENDBRANCH   1  15
TORSDOF 7
