REMARK  Name = 
REMARK  5 active torsions:
REMARK  status: ('A' for Active; 'I' for Inactive)
REMARK    1  A    between atoms: N_1  and  C_2
REMARK    2  A    between atoms: C_2  and  C_3
REMARK    3  A    between atoms: C_3  and  C_4
REMARK    4  A    between atoms: C_8  and  C_9
REMARK    5  A    between atoms: C_9  and  N_10
REMARK                            x       y       z     vdW  Elec       q    Type
REMARK                         _______ _______ _______ _____ _____    ______ ____
ROOT
ATOM      1  C   UNL     1       4.439   0.711  -1.307  0.00  0.00    +0.000 A 
ATOM      2  C   UNL     1       5.084   1.862  -0.863  0.00  0.00    +0.000 A 
ATOM      3  C   UNL     1       6.471   1.908  -0.905  0.00  0.00    +0.000 A 
ATOM      4  C   UNL     1       7.180   0.809  -1.380  0.00  0.00    +0.000 A 
ATOM      5  C   UNL     1       6.473  -0.325  -1.774  0.00  0.00    +0.000 A 
ATOM      6  N   UNL     1       5.117  -0.382  -1.739  0.00  0.00    +0.000 NA
ENDROOT
BRANCH   1   7
ATOM      7  C   UNL     1       2.934   0.632  -1.311  0.00  0.00    +0.000 C 
BRANCH   7   8
ATOM      8  C   UNL     1       2.406   0.035  -0.007  0.00  0.00    +0.000 C 
BRANCH   8   9
ATOM      9  N   UNL     1       0.945  -0.016  -0.004  0.00  0.00    +0.000 NA
ATOM     10  H   UNL     1       0.626  -0.463   0.854  0.00  0.00    +0.000 HD
ATOM     11  H   UNL     1       0.623  -0.613  -0.766  0.00  0.00    +0.000 HD
ENDBRANCH   8   9
ENDBRANCH   7   8
ENDBRANCH   1   7
BRANCH   5  12
ATOM     12  C   UNL     1       7.197  -1.558  -2.252  0.00  0.00    +0.000 C 
BRANCH  12  13
ATOM     13  N   UNL     1       7.482  -1.498  -3.672  0.00  0.00    +0.000 N 
ATOM     14  C   UNL     1       6.538  -1.545  -4.663  0.00  0.00    +0.000 A 
ATOM     15  N   UNL     1       7.080  -1.464  -5.856  0.00  0.00    +0.000 NA
ATOM     16  C   UNL     1       8.431  -1.375  -5.631  0.00  0.00    +0.000 A 
ATOM     17  C   UNL     1       9.480  -1.248  -6.554  0.00  0.00    +0.000 A 
ATOM     18  C   UNL     1      10.795  -1.183  -6.079  0.00  0.00    +0.000 A 
ATOM     19  C   UNL     1      11.062  -1.261  -4.711  0.00  0.00    +0.000 A 
ATOM     20  C   UNL     1      10.030  -1.388  -3.773  0.00  0.00    +0.000 A 
ATOM     21  C   UNL     1       8.719  -1.424  -4.267  0.00  0.00    +0.000 A 
ENDBRANCH  12  13
ENDBRANCH   5  12
TORSDOF 5
