REMARK  Name = 
REMARK  8 active torsions:
REMARK  status: ('A' for Active; 'I' for Inactive)
REMARK    1  A    between atoms: C_1  and  O_2
REMARK    2  A    between atoms: O_2  and  C_3
REMARK    3  A    between atoms: C_3  and  C_4
REMARK    4  A    between atoms: C_4  and  N_5
REMARK    5  A    between atoms: C_4  and  C_18
REMARK    6  A    between atoms: C_6  and  C_8
REMARK    7  A    between atoms: C_21  and  O_22
REMARK    8  A    between atoms: O_22  and  C_23
REMARK                            x       y       z     vdW  Elec       q    Type
REMARK                         _______ _______ _______ _____ _____    ______ ____
ROOT
ATOM      1  C   UNL     1       4.453  -1.540  -0.087  0.00  0.00    +0.000 C 
ENDROOT
BRANCH   1   2
ATOM      2  C   UNL     1       5.131  -2.872  -0.385  0.00  0.00    +0.000 A 
ATOM      3  C   UNL     1       5.410  -3.783   0.632  0.00  0.00    +0.000 A 
ATOM      4  C   UNL     1       6.131  -4.932   0.338  0.00  0.00    +0.000 A 
ATOM      5  C   UNL     1       6.590  -5.140  -0.958  0.00  0.00    +0.000 A 
ATOM      6  C   UNL     1       6.197  -4.236  -1.931  0.00  0.00    +0.000 A 
ATOM      7  N   UNL     1       5.471  -3.119  -1.681  0.00  0.00    +0.000 NA
BRANCH   5   8
ATOM      8  O   UNL     1       7.367  -6.208  -1.329  0.00  0.00    +0.000 OA
BRANCH   8   9
ATOM      9  C   UNL     1       8.361  -6.602  -0.444  0.00  0.00    +0.000 A 
ATOM     10  C   UNL     1       8.743  -7.934  -0.453  0.00  0.00    +0.000 A 
ATOM     11  N   UNL     1       9.666  -8.434   0.408  0.00  0.00    +0.000 NA
ATOM     12  C   UNL     1      10.195  -7.535   1.270  0.00  0.00    +0.000 A 
ATOM     13  C   UNL     1       9.836  -6.198   1.262  0.00  0.00    +0.000 A 
ATOM     14  N   UNL     1       8.924  -5.700   0.398  0.00  0.00    +0.000 NA
ENDBRANCH   8   9
ENDBRANCH   5   8
ENDBRANCH   1   2
BRANCH   1  15
ATOM     15  N   UNL     1       2.999  -1.642  -0.139  0.00  0.00    +0.000 N 
ATOM     16  C   UNL     1       2.237  -2.296   0.793  0.00  0.00    +0.000 C 
ATOM     17  O   UNL     1       2.704  -2.727   1.842  0.00  0.00    +0.000 OA
ATOM     18  H   UNL     1       2.605  -1.457  -1.056  0.00  0.00    +0.000 HD
BRANCH  16  19
ATOM     19  C   UNL     1       0.807  -2.421   0.492  0.00  0.00    +0.000 A 
ATOM     20  C   UNL     1      -0.094  -2.644   1.525  0.00  0.00    +0.000 A 
ATOM     21  S   UNL     1      -1.709  -2.793   1.001  0.00  0.00    +0.000 S 
ATOM     22  C   UNL     1      -1.254  -2.619  -0.629  0.00  0.00    +0.000 A 
ATOM     23  N   UNL     1      -2.173  -2.715  -1.626  0.00  0.00    +0.000 NA
ATOM     24  C   UNL     1      -1.683  -2.605  -2.815  0.00  0.00    +0.000 A 
ATOM     25  N   UNL     1      -0.361  -2.378  -3.096  0.00  0.00    +0.000 N 
ATOM     26  C   UNL     1       0.585  -2.177  -2.120  0.00  0.00    +0.000 A 
ATOM     27  O   UNL     1       1.725  -1.810  -2.397  0.00  0.00    +0.000 OA
ATOM     28  C   UNL     1       0.103  -2.383  -0.766  0.00  0.00    +0.000 A 
ATOM     29  H   UNL     1      -0.050  -2.250  -4.049  0.00  0.00    +0.000 HD
ENDBRANCH  16  19
ENDBRANCH   1  15
BRANCH   1  30
ATOM     30  C   UNL     1       4.980  -0.839   1.185  0.00  0.00    +0.000 C 
BRANCH  30  32
ATOM     31  C   UNL     1       6.962  -0.132   2.261  0.00  0.00    +0.000 C 
ATOM     32  O   UNL     1       6.378  -0.558   1.041  0.00  0.00    +0.000 OA
ENDBRANCH  30  32
ENDBRANCH   1  30
TORSDOF 7
