REMARK  Name = 
REMARK  9 active torsions:
REMARK  status: ('A' for Active; 'I' for Inactive)
REMARK    1  A    between atoms: C_1  and  C_2
REMARK    2  A    between atoms: C_2  and  C_3
REMARK    3  A    between atoms: C_2  and  C_4
REMARK    4  A    between atoms: C_2  and  C_22
REMARK    5  A    between atoms: C_4  and  N_5
REMARK    6  A    between atoms: C_10  and  C_11
REMARK    7  A    between atoms: C_14  and  S_15
REMARK    8  A    between atoms: S_15  and  C_16
REMARK    9  A    between atoms: C_25  and  C_26
REMARK                            x       y       z     vdW  Elec       q    Type
REMARK                         _______ _______ _______ _____ _____    ______ ____
ROOT
ATOM      1  N   UNL     1       2.552   2.479  -0.853  0.00  0.00    +0.000 N 
ATOM      2  C   UNL     1       2.910   3.812  -0.708  0.00  0.00    +0.000 A 
ATOM      3  C   UNL     1       3.616   4.277   0.398  0.00  0.00    +0.000 A 
ATOM      4  C   UNL     1       3.950   5.619   0.498  0.00  0.00    +0.000 A 
ATOM      5  C   UNL     1       3.633   6.463  -0.551  0.00  0.00    +0.000 A 
ATOM      6  C   UNL     1       2.975   5.948  -1.667  0.00  0.00    +0.000 A 
ATOM      7  N   UNL     1       2.579   4.638  -1.724  0.00  0.00    +0.000 NA
ATOM      8  H   UNL     1       1.702   2.384  -1.399  0.00  0.00    +0.000 HD
ENDROOT
BRANCH   6   9
ATOM      9  C   UNL     1       2.730   6.795  -2.865  0.00  0.00    +0.000 A 
ATOM     10  C   UNL     1       2.093   6.314  -4.011  0.00  0.00    +0.000 A 
ATOM     11  C   UNL     1       1.967   7.143  -5.127  0.00  0.00    +0.000 A 
ATOM     12  C   UNL     1       2.483   8.432  -5.075  0.00  0.00    +0.000 A 
ATOM     13  C   UNL     1       3.109   8.852  -3.917  0.00  0.00    +0.000 A 
ATOM     14  N   UNL     1       3.221   8.069  -2.818  0.00  0.00    +0.000 NA
BRANCH  12  15
ATOM     15  S   UNL     1       2.449   9.490  -6.480  0.00  0.00    +0.000 S 
ATOM     16  C   UNL     1       0.910  10.358  -6.338  0.00  0.00    +0.000 C 
ATOM     17  O   UNL     1       3.522  10.456  -6.329  0.00  0.00    +0.000 OA
ATOM     18  O   UNL     1       2.377   8.644  -7.656  0.00  0.00    +0.000 OA
ENDBRANCH  12  15
ENDBRANCH   6   9
BRANCH   1  19
ATOM     19  C   UNL     1       2.873   1.504   0.175  0.00  0.00    +0.000 C 
BRANCH  19  21
ATOM     20  C   UNL     1       3.323  -0.419  -1.411  0.00  0.00    +0.000 C 
ATOM     21  C   UNL     1       2.502   0.037  -0.181  0.00  0.00    +0.000 C 
ATOM     22  C   UNL     1       2.968  -0.837   1.015  0.00  0.00    +0.000 C 
BRANCH  21  23
ATOM     23  C   UNL     1       0.990  -0.151  -0.375  0.00  0.00    +0.000 A 
ATOM     24  C   UNL     1       0.439  -0.658  -1.560  0.00  0.00    +0.000 A 
ATOM     25  C   UNL     1      -0.930  -0.881  -1.671  0.00  0.00    +0.000 A 
ATOM     26  C   UNL     1      -1.730  -0.582  -0.581  0.00  0.00    +0.000 A 
ATOM     27  N   UNL     1      -1.257  -0.062   0.583  0.00  0.00    +0.000 NA
ATOM     28  C   UNL     1       0.082   0.140   0.649  0.00  0.00    +0.000 A 
BRANCH  26  29
ATOM     29  C   UNL     1      -3.200  -0.865  -0.656  0.00  0.00    +0.000 C 
ATOM     30  N   UNL     1      -3.913  -0.549   0.468  0.00  0.00    +0.000 N 
ATOM     31  O   UNL     1      -3.729  -1.351  -1.640  0.00  0.00    +0.000 OA
ATOM     32  H   UNL     1      -3.432  -0.174   1.278  0.00  0.00    +0.000 HD
ATOM     33  H   UNL     1      -4.900  -0.750   0.499  0.00  0.00    +0.000 HD
ENDBRANCH  26  29
ENDBRANCH  21  23
ENDBRANCH  19  21
ENDBRANCH   1  19
TORSDOF 6
