REMARK  Name = 
REMARK  6 active torsions:
REMARK  status: ('A' for Active; 'I' for Inactive)
REMARK    1  A    between atoms: C_2  and  C_4
REMARK    2  A    between atoms: C_7  and  O_8
REMARK    3  A    between atoms: O_8  and  C_9
REMARK    4  A    between atoms: C_9  and  C_10
REMARK    5  A    between atoms: C_9  and  C_12
REMARK    6  A    between atoms: C_10  and  O_11
REMARK                            x       y       z     vdW  Elec       q    Type
REMARK                         _______ _______ _______ _____ _____    ______ ____
ROOT
ATOM      1  C   UNL     1       2.965  -0.754   1.238  0.00  0.00    +0.000 A 
ATOM      2  C   UNL     1       4.305  -0.369   1.172  0.00  0.00    +0.000 A 
ATOM      3  C   UNL     1       5.241  -1.031   1.965  0.00  0.00    +0.000 A 
ATOM      4  C   UNL     1       4.810  -2.068   2.781  0.00  0.00    +0.000 A 
ATOM      5  N   UNL     1       3.526  -2.469   2.867  0.00  0.00    +0.000 NA
ATOM      6  C   UNL     1       2.628  -1.789   2.104  0.00  0.00    +0.000 A 
ENDROOT
BRANCH   1   8
ATOM      7  N   UNL     1       2.245   0.529  -0.701  0.00  0.00    +0.000 N 
ATOM      8  C   UNL     1       1.894  -0.090   0.466  0.00  0.00    +0.000 C 
ATOM      9  O   UNL     1       0.730  -0.117   0.841  0.00  0.00    +0.000 OA
ATOM     10  H   UNL     1       1.484   0.902  -1.257  0.00  0.00    +0.000 HD
ATOM     11  H   UNL     1       3.129   0.377  -1.166  0.00  0.00    +0.000 HD
ENDBRANCH   1   8
BRANCH   4  12
ATOM     12  O   UNL     1       5.787  -2.693   3.525  0.00  0.00    +0.000 OA
BRANCH  12  13
ATOM     13  C   UNL     1       5.413  -3.962   4.089  0.00  0.00    +0.000 C 
BRANCH  13  14
ATOM     14  C   UNL     1       6.408  -4.337   5.190  0.00  0.00    +0.000 A 
ATOM     15  C   UNL     1       6.025  -5.233   6.208  0.00  0.00    +0.000 A 
ATOM     16  C   UNL     1       6.927  -5.605   7.208  0.00  0.00    +0.000 A 
ATOM     17  C   UNL     1       8.222  -5.095   7.207  0.00  0.00    +0.000 A 
ATOM     18  C   UNL     1       8.619  -4.212   6.207  0.00  0.00    +0.000 A 
ATOM     19  C   UNL     1       7.720  -3.838   5.203  0.00  0.00    +0.000 A 
ENDBRANCH  13  14
BRANCH  13  20
ATOM     20  C   UNL     1       5.390  -5.045   2.983  0.00  0.00    +0.000 C 
BRANCH  20  21
ATOM     21  O   UNL     1       6.611  -5.089   2.233  0.00  0.00    +0.000 OA
ATOM     22  H   UNL     1       6.786  -4.178   1.941  0.00  0.00    +0.000 HD
ENDBRANCH  20  21
ENDBRANCH  13  20
ENDBRANCH  12  13
ENDBRANCH   4  12
TORSDOF 6
