REMARK  Name = 
REMARK  5 active torsions:
REMARK  status: ('A' for Active; 'I' for Inactive)
REMARK    1  A    between atoms: C_2  and  C_5
REMARK    2  A    between atoms: C_7  and  N_8
REMARK    3  A    between atoms: N_8  and  C_9
REMARK    4  A    between atoms: C_9  and  C_10
REMARK    5  A    between atoms: C_17  and  C_18
REMARK                            x       y       z     vdW  Elec       q    Type
REMARK                         _______ _______ _______ _____ _____    ______ ____
ROOT
ATOM      1  C   UNL     1       2.841   1.275  -0.514  0.00  0.00    +0.000 A 
ATOM      2  C   UNL     1       2.160   2.351   0.018  0.00  0.00    +0.000 A 
ATOM      3  C   UNL     1       2.477   3.606  -0.457  0.00  0.00    +0.000 A 
ATOM      4  N   UNL     1       3.443   3.794  -1.366  0.00  0.00    +0.000 NA
ATOM      5  C   UNL     1       4.107   2.708  -1.804  0.00  0.00    +0.000 A 
ATOM      6  N   UNL     1       3.835   1.448  -1.420  0.00  0.00    +0.000 NA
ENDROOT
BRANCH   5   7
ATOM      7  C   UNL     1       5.207   2.906  -2.757  0.00  0.00    +0.000 A 
ATOM      8  C   UNL     1       5.637   4.183  -3.127  0.00  0.00    +0.000 A 
ATOM      9  N   UNL     1       6.650   4.448  -3.994  0.00  0.00    +0.000 NA
ATOM     10  C   UNL     1       7.279   3.379  -4.533  0.00  0.00    +0.000 A 
ATOM     11  C   UNL     1       6.942   2.069  -4.240  0.00  0.00    +0.000 A 
ATOM     12 CL   UNL     1       7.788   0.761  -4.962  0.00  0.00    +0.000 Cl
ATOM     13  C   UNL     1       5.900   1.833  -3.346  0.00  0.00    +0.000 A 
ENDBRANCH   5   7
BRANCH   1  15
ATOM     14  F   UNL     1       1.431  -0.168   0.808  0.00  0.00    +0.000 F 
ATOM     15  C   UNL     1       2.443  -0.134  -0.110  0.00  0.00    +0.000 C 
ATOM     16  F   UNL     1       3.467  -0.835   0.453  0.00  0.00    +0.000 F 
ATOM     17  F   UNL     1       2.003  -0.883  -1.161  0.00  0.00    +0.000 F 
ENDBRANCH   1  15
BRANCH   3  18
ATOM     18  N   UNL     1       1.708   4.671   0.005  0.00  0.00    +0.000 N 
ATOM     19  H   UNL     1       1.810   4.801   1.008  0.00  0.00    +0.000 HD
BRANCH  18  20
ATOM     20  C   UNL     1       1.763   5.922  -0.734  0.00  0.00    +0.000 C 
BRANCH  20  21
ATOM     21  C   UNL     1       0.532   6.723  -0.381  0.00  0.00    +0.000 A 
ATOM     22  C   UNL     1       0.615   8.044   0.062  0.00  0.00    +0.000 A 
ATOM     23  C   UNL     1      -0.560   8.720   0.364  0.00  0.00    +0.000 A 
ATOM     24  N   UNL     1      -1.792   8.178   0.259  0.00  0.00    +0.000 NA
ATOM     25  C   UNL     1      -1.857   6.903  -0.176  0.00  0.00    +0.000 A 
ATOM     26  C   UNL     1      -0.743   6.150  -0.509  0.00  0.00    +0.000 A 
ENDBRANCH  20  21
ENDBRANCH  18  20
ENDBRANCH   3  18
TORSDOF 5
