REMARK  Name = 
REMARK  6 active torsions:
REMARK  status: ('A' for Active; 'I' for Inactive)
REMARK    1  A    between atoms: C_2  and  C_25
REMARK    2  A    between atoms: N_3  and  C_4
REMARK    3  A    between atoms: C_4  and  C_5
REMARK    4  A    between atoms: C_8  and  C_9
REMARK    5  A    between atoms: C_9  and  N_10
REMARK    6  A    between atoms: C_11  and  C_13
REMARK                            x       y       z     vdW  Elec       q    Type
REMARK                         _______ _______ _______ _____ _____    ______ ____
ROOT
ATOM      1  C   UNL     1       3.292   2.305  -2.917  0.00  0.00    +0.000 A 
ATOM      2  C   UNL     1       3.124   3.689  -3.062  0.00  0.00    +0.000 A 
ATOM      3  C   UNL     1       3.975   4.429  -3.890  0.00  0.00    +0.000 A 
ATOM      4  C   UNL     1       5.000   3.797  -4.606  0.00  0.00    +0.000 A 
ATOM      5  C   UNL     1       5.181   2.417  -4.444  0.00  0.00    +0.000 A 
ATOM      6  C   UNL     1       4.329   1.677  -3.617  0.00  0.00    +0.000 A 
ENDROOT
BRANCH   1   7
ATOM      7  C   UNL     1       2.377   1.509  -2.026  0.00  0.00    +0.000 C 
BRANCH   7  10
ATOM      8  O   UNL     1       0.369   0.051  -0.845  0.00  0.00    +0.000 OA
ATOM      9  C   UNL     1       0.258   0.274  -2.051  0.00  0.00    +0.000 C 
ATOM     10  N   UNL     1       1.224   1.002  -2.727  0.00  0.00    +0.000 N 
ATOM     11  H   UNL     1       1.112   1.161  -3.724  0.00  0.00    +0.000 HD
BRANCH   9  12
ATOM     12  C   UNL     1      -0.859  -0.182  -2.866  0.00  0.00    +0.000 A 
ATOM     13  N   UNL     1      -0.972   0.046  -4.161  0.00  0.00    +0.000 NA
ATOM     14  N   UNL     1      -2.133  -0.499  -4.679  0.00  0.00    +0.000 NA
ATOM     15  C   UNL     1      -2.840  -1.110  -3.754  0.00  0.00    +0.000 A 
ATOM     16  S   UNL     1      -2.155  -1.077  -2.185  0.00  0.00    +0.000 S 
ENDBRANCH   9  12
ENDBRANCH   7  10
ENDBRANCH   1   7
BRANCH   4  17
ATOM     17  C   UNL     1       5.913   4.581  -5.515  0.00  0.00    +0.000 C 
BRANCH  17  18
ATOM     18  N   UNL     1       7.077   5.058  -4.814  0.00  0.00    +0.000 N 
ATOM     19  C   UNL     1       8.009   5.847  -5.439  0.00  0.00    +0.000 C 
ATOM     20  O   UNL     1       7.877   6.219  -6.601  0.00  0.00    +0.000 OA
ATOM     21  H   UNL     1       7.328   4.573  -3.959  0.00  0.00    +0.000 HD
BRANCH  19  22
ATOM     22  C   UNL     1       9.150   6.280  -4.620  0.00  0.00    +0.000 A 
ATOM     23  C   UNL     1       9.841   7.438  -4.958  0.00  0.00    +0.000 A 
ATOM     24  S   UNL     1      11.097   7.826  -3.872  0.00  0.00    +0.000 S 
ATOM     25  C   UNL     1      10.798   6.432  -2.943  0.00  0.00    +0.000 A 
ATOM     26  N   UNL     1      11.557   6.141  -1.853  0.00  0.00    +0.000 NA
ATOM     27  C   UNL     1      11.242   5.036  -1.263  0.00  0.00    +0.000 A 
ATOM     28  N   UNL     1      10.234   4.198  -1.662  0.00  0.00    +0.000 N 
ATOM     29  C   UNL     1       9.420   4.468  -2.737  0.00  0.00    +0.000 A 
ATOM     30  O   UNL     1       8.494   3.721  -3.036  0.00  0.00    +0.000 OA
ATOM     31  C   UNL     1       9.742   5.691  -3.444  0.00  0.00    +0.000 A 
ATOM     32  H   UNL     1      10.031   3.352  -1.150  0.00  0.00    +0.000 HD
ENDBRANCH  19  22
ENDBRANCH  17  18
ENDBRANCH   4  17
TORSDOF 6
