REMARK  Name = 
REMARK  7 active torsions:
REMARK  status: ('A' for Active; 'I' for Inactive)
REMARK    1  A    between atoms: C_2  and  C_22
REMARK    2  A    between atoms: N_3  and  C_4
REMARK    3  A    between atoms: C_4  and  C_5
REMARK    4  A    between atoms: C_8  and  C_9
REMARK    5  A    between atoms: C_9  and  C_10
REMARK    6  A    between atoms: C_10  and  O_11
REMARK    7  A    between atoms: C_10  and  C_12
REMARK                            x       y       z     vdW  Elec       q    Type
REMARK                         _______ _______ _______ _____ _____    ______ ____
ROOT
ATOM      1  C   UNL     1       3.252  -3.264   1.561  0.00  0.00    +0.000 A 
ATOM      2  C   UNL     1       4.413  -2.895   2.251  0.00  0.00    +0.000 A 
ATOM      3  C   UNL     1       5.279  -3.868   2.757  0.00  0.00    +0.000 A 
ATOM      4  C   UNL     1       5.004  -5.230   2.588  0.00  0.00    +0.000 A 
ATOM      5  C   UNL     1       3.863  -5.598   1.861  0.00  0.00    +0.000 A 
ATOM      6  C   UNL     1       2.999  -4.625   1.348  0.00  0.00    +0.000 A 
ENDROOT
BRANCH   1   7
ATOM      7  C   UNL     1       2.307  -2.207   1.052  0.00  0.00    +0.000 C 
BRANCH   7  10
ATOM      8  O   UNL     1       3.789   0.123   0.490  0.00  0.00    +0.000 OA
ATOM      9  C   UNL     1       3.452  -0.606  -0.439  0.00  0.00    +0.000 C 
ATOM     10  N   UNL     1       2.693  -1.732  -0.252  0.00  0.00    +0.000 N 
ATOM     11  H   UNL     1       2.570  -2.384  -1.019  0.00  0.00    +0.000 HD
BRANCH   9  12
ATOM     12  C   UNL     1       3.805  -0.282  -1.828  0.00  0.00    +0.000 A 
ATOM     13  C   UNL     1       4.135   1.023  -2.168  0.00  0.00    +0.000 A 
ATOM     14  S   UNL     1       4.536   1.220  -3.814  0.00  0.00    +0.000 S 
ATOM     15  C   UNL     1       4.321  -0.438  -4.121  0.00  0.00    +0.000 A 
ATOM     16  N   UNL     1       4.558  -0.957  -5.354  0.00  0.00    +0.000 NA
ATOM     17  C   UNL     1       4.396  -2.235  -5.438  0.00  0.00    +0.000 A 
ATOM     18  N   UNL     1       4.001  -3.042  -4.402  0.00  0.00    +0.000 N 
ATOM     19  C   UNL     1       3.669  -2.552  -3.163  0.00  0.00    +0.000 A 
ATOM     20  O   UNL     1       3.164  -3.272  -2.310  0.00  0.00    +0.000 OA
ATOM     21  C   UNL     1       3.901  -1.127  -2.997  0.00  0.00    +0.000 A 
ATOM     22  H   UNL     1       3.854  -4.029  -4.543  0.00  0.00    +0.000 HD
ENDBRANCH   9  12
ENDBRANCH   7  10
ENDBRANCH   1   7
BRANCH   4  23
ATOM     23  C   UNL     1       5.927  -6.284   3.164  0.00  0.00    +0.000 C 
BRANCH  23  24
ATOM     24  C   UNL     1       6.029  -6.238   4.704  0.00  0.00    +0.000 C 
BRANCH  24  25
ATOM     25  C   UNL     1       7.164  -7.167   5.209  0.00  0.00    +0.000 C 
ATOM     26  O   UNL     1       7.791  -7.883   4.425  0.00  0.00    +0.000 OA
ATOM     27  N   UNL     1       7.473  -7.129   6.571  0.00  0.00    +0.000 N 
ATOM     28  C   UNL     1       8.616  -7.886   7.076  0.00  0.00    +0.000 C 
ATOM     29  C   UNL     1       8.171  -8.950   8.079  0.00  0.00    +0.000 C 
ATOM     30  C   UNL     1       7.294  -8.349   9.179  0.00  0.00    +0.000 C 
ATOM     31  C   UNL     1       6.141  -7.539   8.584  0.00  0.00    +0.000 C 
ATOM     32  C   UNL     1       6.666  -6.485   7.609  0.00  0.00    +0.000 C 
ENDBRANCH  24  25
BRANCH  24  33
ATOM     33  O   UNL     1       4.765  -6.580   5.276  0.00  0.00    +0.000 OA
ATOM     34  H   UNL     1       4.488  -7.424   4.885  0.00  0.00    +0.000 HD
ENDBRANCH  24  33
ENDBRANCH  23  24
ENDBRANCH   4  23
TORSDOF 7
