REMARK  Name = 
REMARK  8 active torsions:
REMARK  status: ('A' for Active; 'I' for Inactive)
REMARK    1  A    between atoms: C_1  and  C_2
REMARK    2  A    between atoms: C_2  and  N_3
REMARK    3  A    between atoms: C_2  and  C_17
REMARK    4  A    between atoms: C_4  and  C_6
REMARK    5  A    between atoms: N_12  and  C_13
REMARK    6  A    between atoms: C_20  and  O_21
REMARK    7  A    between atoms: O_21  and  C_22
REMARK    8  A    between atoms: C_22  and  C_23
REMARK                            x       y       z     vdW  Elec       q    Type
REMARK                         _______ _______ _______ _____ _____    ______ ____
ROOT
ATOM      1  C   UNL     1       3.264   0.354  -1.332  0.00  0.00    +0.000 C 
ATOM      2  C   UNL     1       2.595   0.019   0.003  0.00  0.00    +0.000 C 
ENDROOT
BRANCH   2   3
ATOM      3  C   UNL     1       3.012   1.017   1.078  0.00  0.00    +0.000 A 
ATOM      4  C   UNL     1       3.120   0.622   2.410  0.00  0.00    +0.000 A 
ATOM      5  C   UNL     1       3.428   1.582   3.376  0.00  0.00    +0.000 A 
ATOM      6  C   UNL     1       3.593   2.911   3.003  0.00  0.00    +0.000 A 
ATOM      7  C   UNL     1       3.482   3.213   1.655  0.00  0.00    +0.000 A 
ATOM      8  N   UNL     1       3.174   2.311   0.699  0.00  0.00    +0.000 NA
BRANCH   6   9
ATOM      9  O   UNL     1       3.841   3.805   4.004  0.00  0.00    +0.000 OA
BRANCH   9  10
ATOM     10  C   UNL     1       3.531   5.165   3.685  0.00  0.00    +0.000 C 
BRANCH  10  11
ATOM     11  C   UNL     1       3.365   5.945   4.962  0.00  0.00    +0.000 A 
ATOM     12  C   UNL     1       4.450   6.129   5.828  0.00  0.00    +0.000 A 
ATOM     13  C   UNL     1       4.292   6.852   7.011  0.00  0.00    +0.000 A 
ATOM     14  C   UNL     1       3.050   7.396   7.337  0.00  0.00    +0.000 A 
ATOM     15  C   UNL     1       1.965   7.221   6.479  0.00  0.00    +0.000 A 
ATOM     16  C   UNL     1       2.122   6.499   5.298  0.00  0.00    +0.000 A 
ENDBRANCH  10  11
ENDBRANCH   9  10
ENDBRANCH   6   9
ENDBRANCH   2   3
BRANCH   2  17
ATOM     17  N   UNL     1       1.150   0.053  -0.127  0.00  0.00    +0.000 N 
ATOM     18  C   UNL     1       0.384  -0.999  -0.553  0.00  0.00    +0.000 C 
ATOM     19  O   UNL     1       0.854  -2.107  -0.792  0.00  0.00    +0.000 OA
ATOM     20  H   UNL     1       0.768   0.990  -0.178  0.00  0.00    +0.000 HD
BRANCH  18  21
ATOM     21  C   UNL     1      -1.062  -0.739  -0.599  0.00  0.00    +0.000 A 
ATOM     22  C   UNL     1      -1.976  -1.774  -0.458  0.00  0.00    +0.000 A 
ATOM     23  S   UNL     1      -3.596  -1.235  -0.365  0.00  0.00    +0.000 S 
ATOM     24  C   UNL     1      -3.129   0.389  -0.565  0.00  0.00    +0.000 A 
ATOM     25  N   UNL     1      -4.037   1.399  -0.533  0.00  0.00    +0.000 NA
ATOM     26  C   UNL     1      -3.533   2.579  -0.704  0.00  0.00    +0.000 A 
ATOM     27  N   UNL     1      -2.203   2.854  -0.939  0.00  0.00    +0.000 N 
ATOM     28  C   UNL     1      -1.736   4.211  -1.130  0.00  0.00    +0.000 C 
ATOM     29  C   UNL     1      -1.257   1.842  -1.017  0.00  0.00    +0.000 A 
ATOM     30  O   UNL     1      -0.077   2.052  -1.277  0.00  0.00    +0.000 OA
ATOM     31  C   UNL     1      -1.768   0.511  -0.748  0.00  0.00    +0.000 A 
ENDBRANCH  18  21
ENDBRANCH   2  17
TORSDOF 6
