REMARK  Name = 
REMARK  7 active torsions:
REMARK  status: ('A' for Active; 'I' for Inactive)
REMARK    1  A    between atoms: C_2  and  C_19
REMARK    2  A    between atoms: N_3  and  C_4
REMARK    3  A    between atoms: C_4  and  C_5
REMARK    4  A    between atoms: C_8  and  C_9
REMARK    5  A    between atoms: C_9  and  N_10
REMARK    6  A    between atoms: N_10  and  C_11
REMARK    7  A    between atoms: C_11  and  C_12
REMARK                            x       y       z     vdW  Elec       q    Type
REMARK                         _______ _______ _______ _____ _____    ______ ____
ROOT
ATOM      1  C   UNL     1       2.177   2.032   1.482  0.00  0.00    +0.000 C 
ENDROOT
BRANCH   1   2
ATOM      2  C   UNL     1       3.089   3.008   2.177  0.00  0.00    +0.000 A 
ATOM      3  C   UNL     1       2.916   4.383   1.985  0.00  0.00    +0.000 A 
ATOM      4  C   UNL     1       3.714   5.301   2.668  0.00  0.00    +0.000 A 
ATOM      5  C   UNL     1       4.699   4.871   3.569  0.00  0.00    +0.000 A 
ATOM      6  C   UNL     1       4.906   3.492   3.719  0.00  0.00    +0.000 A 
ATOM      7  C   UNL     1       4.114   2.570   3.026  0.00  0.00    +0.000 A 
BRANCH   5   8
ATOM      8  C   UNL     1       5.572   5.856   4.322  0.00  0.00    +0.000 C 
BRANCH   8   9
ATOM      9  N   UNL     1       4.862   7.098   4.617  0.00  0.00    +0.000 NA
ATOM     10  H   UNL     1       4.063   6.882   5.215  0.00  0.00    +0.000 HD
BRANCH   9  11
ATOM     11  C   UNL     1       5.701   8.069   5.327  0.00  0.00    +0.000 C 
BRANCH  11  12
ATOM     12  C   UNL     1       4.877   9.344   5.583  0.00  0.00    +0.000 C 
ATOM     13  C   UNL     1       5.631  10.420   6.343  0.00  0.00    +0.000 C 
ATOM     14  C   UNL     1       4.506  11.314   6.833  0.00  0.00    +0.000 C 
ATOM     15  C   UNL     1       3.328  10.370   7.041  0.00  0.00    +0.000 C 
ATOM     16  N   UNL     1       3.708   9.088   6.446  0.00  0.00    +0.000 NA
ATOM     17  H   UNL     1       2.947   8.717   5.877  0.00  0.00    +0.000 HD
ENDBRANCH  11  12
ENDBRANCH   9  11
ENDBRANCH   8   9
ENDBRANCH   5   8
ENDBRANCH   1   2
BRANCH   1  20
ATOM     18  O   UNL     1       1.310   3.256  -0.899  0.00  0.00    +0.000 OA
ATOM     19  C   UNL     1       2.166   2.378  -0.959  0.00  0.00    +0.000 C 
ATOM     20  N   UNL     1       2.625   1.716   0.150  0.00  0.00    +0.000 N 
ATOM     21  H   UNL     1       3.443   1.121   0.078  0.00  0.00    +0.000 HD
BRANCH  19  22
ATOM     22  C   UNL     1       2.711   1.934  -2.247  0.00  0.00    +0.000 A 
ATOM     23  C   UNL     1       1.974   2.129  -3.411  0.00  0.00    +0.000 A 
ATOM     24  S   UNL     1       2.756   1.561  -4.816  0.00  0.00    +0.000 S 
ATOM     25  C   UNL     1       4.119   1.068  -3.924  0.00  0.00    +0.000 A 
ATOM     26  N   UNL     1       5.199   0.520  -4.543  0.00  0.00    +0.000 NA
ATOM     27  C   UNL     1       6.182   0.233  -3.753  0.00  0.00    +0.000 A 
ATOM     28  N   UNL     1       6.172   0.434  -2.393  0.00  0.00    +0.000 N 
ATOM     29  C   UNL     1       5.067   0.895  -1.718  0.00  0.00    +0.000 A 
ATOM     30  O   UNL     1       5.032   0.900  -0.491  0.00  0.00    +0.000 OA
ATOM     31  C   UNL     1       3.964   1.298  -2.569  0.00  0.00    +0.000 A 
ATOM     32  H   UNL     1       6.951   0.147  -1.825  0.00  0.00    +0.000 HD
ENDBRANCH  19  22
ENDBRANCH   1  20
TORSDOF 7
