REMARK  Name = 
REMARK  9 active torsions:
REMARK  status: ('A' for Active; 'I' for Inactive)
REMARK    1  A    between atoms: N_1  and  C_2
REMARK    2  A    between atoms: C_2  and  C_3
REMARK    3  A    between atoms: C_3  and  N_4
REMARK    4  A    between atoms: C_3  and  C_26
REMARK    5  A    between atoms: N_4  and  C_5
REMARK    6  A    between atoms: C_5  and  C_6
REMARK    7  A    between atoms: C_9  and  C_10
REMARK    8  A    between atoms: C_10  and  N_11
REMARK    9  A    between atoms: C_12  and  C_14
REMARK                            x       y       z     vdW  Elec       q    Type
REMARK                         _______ _______ _______ _____ _____    ______ ____
ROOT
ATOM      1  C   UNL     1       0.503  -3.455  -1.913  0.00  0.00    +0.000 A 
ATOM      2  C   UNL     1       0.912  -4.790  -1.811  0.00  0.00    +0.000 A 
ATOM      3  C   UNL     1       0.558  -5.716  -2.795  0.00  0.00    +0.000 A 
ATOM      4  C   UNL     1      -0.214  -5.325  -3.897  0.00  0.00    +0.000 A 
ATOM      5  C   UNL     1      -0.684  -4.008  -3.961  0.00  0.00    +0.000 A 
ATOM      6  C   UNL     1      -0.322  -3.081  -2.984  0.00  0.00    +0.000 A 
ENDROOT
BRANCH   1   7
ATOM      7  C   UNL     1       0.912  -2.430  -0.879  0.00  0.00    +0.000 C 
BRANCH   7   8
ATOM      8  N   UNL     1       2.367  -2.263  -0.807  0.00  0.00    +0.000 NA
ATOM      9  H   UNL     1       2.760  -3.140  -0.464  0.00  0.00    +0.000 HD
BRANCH   8  10
ATOM     10  C   UNL     1       2.788  -1.218   0.155  0.00  0.00    +0.000 C 
BRANCH  10  11
ATOM     11  C   UNL     1       2.285   0.165  -0.239  0.00  0.00    +0.000 A 
ATOM     12  C   UNL     1       2.975   0.906  -1.212  0.00  0.00    +0.000 A 
ATOM     13  C   UNL     1       2.483   2.138  -1.650  0.00  0.00    +0.000 A 
ATOM     14  C   UNL     1       1.290   2.639  -1.133  0.00  0.00    +0.000 A 
ATOM     15  C   UNL     1       0.595   1.919  -0.166  0.00  0.00    +0.000 A 
ATOM     16  C   UNL     1       1.093   0.696   0.281  0.00  0.00    +0.000 A 
ENDBRANCH  10  11
BRANCH  10  17
ATOM     17  C   UNL     1       2.499  -1.599   1.644  0.00  0.00    +0.000 C 
BRANCH  17  18
ATOM     18  N   UNL     1       3.018  -2.920   2.034  0.00  0.00    +0.000 NA
ATOM     19  H   UNL     1       2.747  -3.094   3.003  0.00  0.00    +0.000 HD
ATOM     20  H   UNL     1       4.038  -2.886   2.039  0.00  0.00    +0.000 HD
ENDBRANCH  17  18
ENDBRANCH  10  17
ENDBRANCH   8  10
ENDBRANCH   7   8
ENDBRANCH   1   7
BRANCH   4  21
ATOM     21  C   UNL     1      -0.549  -6.304  -4.990  0.00  0.00    +0.000 C 
BRANCH  21  22
ATOM     22  N   UNL     1      -1.764  -7.014  -4.693  0.00  0.00    +0.000 N 
ATOM     23  C   UNL     1      -2.262  -7.972  -5.547  0.00  0.00    +0.000 C 
ATOM     24  O   UNL     1      -1.723  -8.266  -6.606  0.00  0.00    +0.000 OA
ATOM     25  H   UNL     1      -2.307  -6.722  -3.894  0.00  0.00    +0.000 HD
BRANCH  23  26
ATOM     26  C   UNL     1      -3.478  -8.618  -5.059  0.00  0.00    +0.000 A 
ATOM     27  C   UNL     1      -3.761  -8.811  -3.709  0.00  0.00    +0.000 A 
ATOM     28  N   UNL     1      -4.958  -9.459  -3.600  0.00  0.00    +0.000 N 
ATOM     29  C   UNL     1      -5.462  -9.693  -4.844  0.00  0.00    +0.000 A 
ATOM     30  N   UNL     1      -6.636 -10.301  -5.062  0.00  0.00    +0.000 NA
ATOM     31  C   UNL     1      -6.915 -10.408  -6.371  0.00  0.00    +0.000 A 
ATOM     32  N   UNL     1      -6.165  -9.987  -7.401  0.00  0.00    +0.000 NA
ATOM     33  C   UNL     1      -4.997  -9.389  -7.104  0.00  0.00    +0.000 A 
ATOM     34 CL   UNL     1      -4.092  -8.822  -8.417  0.00  0.00    +0.000 Cl
ATOM     35  C   UNL     1      -4.572  -9.198  -5.792  0.00  0.00    +0.000 A 
ATOM     36  H   UNL     1      -5.416  -9.743  -2.746  0.00  0.00    +0.000 HD
ENDBRANCH  23  26
ENDBRANCH  21  22
ENDBRANCH   4  21
TORSDOF 9
