REMARK  Name = 
REMARK  12 active torsions:
REMARK  status: ('A' for Active; 'I' for Inactive)
REMARK    1  A    between atoms: N_1  and  C_2
REMARK    2  A    between atoms: C_2  and  C_3
REMARK    3  A    between atoms: C_3  and  C_4
REMARK    4  A    between atoms: C_4  and  C_5
REMARK    5  A    between atoms: C_5  and  C_6
REMARK    6  A    between atoms: C_6  and  C_7
REMARK    7  A    between atoms: C_7  and  C_8
REMARK    8  A    between atoms: C_8  and  N_9
REMARK    9  A    between atoms: N_9  and  C_10
REMARK   10  A    between atoms: C_10  and  C_11
REMARK   11  A    between atoms: C_14  and  C_15
REMARK   12  A    between atoms: C_15  and  N_16
REMARK                            x       y       z     vdW  Elec       q    Type
REMARK                         _______ _______ _______ _____ _____    ______ ____
ROOT
ATOM      1  C   UNL     1      11.065   5.424  -4.723  0.00  0.00    +0.000 A 
ATOM      2  C   UNL     1      10.705   6.756  -4.511  0.00  0.00    +0.000 A 
ATOM      3  C   UNL     1      11.000   7.696  -5.491  0.00  0.00    +0.000 A 
ATOM      4  C   UNL     1      11.649   7.292  -6.658  0.00  0.00    +0.000 A 
ATOM      5  C   UNL     1      12.027   5.959  -6.756  0.00  0.00    +0.000 A 
ATOM      6  N   UNL     1      11.751   5.022  -5.822  0.00  0.00    +0.000 NA
ENDROOT
BRANCH   1   7
ATOM      7  C   UNL     1      10.612   4.358  -3.742  0.00  0.00    +0.000 C 
BRANCH   7   8
ATOM      8  N   UNL     1       9.147   4.253  -3.717  0.00  0.00    +0.000 NA
ATOM      9  H   UNL     1       8.744   5.157  -3.480  0.00  0.00    +0.000 HD
BRANCH   8  10
ATOM     10  C   UNL     1       8.686   3.244  -2.776  0.00  0.00    +0.000 C 
BRANCH  10  11
ATOM     11  C   UNL     1       7.157   3.236  -2.798  0.00  0.00    +0.000 C 
BRANCH  11  12
ATOM     12  C   UNL     1       6.601   2.192  -1.837  0.00  0.00    +0.000 C 
BRANCH  12  13
ATOM     13  C   UNL     1       5.073   2.180  -1.859  0.00  0.00    +0.000 C 
BRANCH  13  14
ATOM     14  C   UNL     1       4.529   1.131  -0.893  0.00  0.00    +0.000 C 
BRANCH  14  15
ATOM     15  C   UNL     1       3.002   1.102  -0.903  0.00  0.00    +0.000 C 
BRANCH  15  16
ATOM     16  C   UNL     1       2.474   0.047   0.067  0.00  0.00    +0.000 C 
BRANCH  16  17
ATOM     17  N   UNL     1       1.017   0.030   0.050  0.00  0.00    +0.000 NA
ATOM     18  H   UNL     1       0.681  -0.718   0.655  0.00  0.00    +0.000 HD
ATOM     19  H   UNL     1       0.688  -0.192  -0.889  0.00  0.00    +0.000 HD
ENDBRANCH  16  17
ENDBRANCH  15  16
ENDBRANCH  14  15
ENDBRANCH  13  14
ENDBRANCH  12  13
ENDBRANCH  11  12
ENDBRANCH  10  11
ENDBRANCH   8  10
ENDBRANCH   7   8
ENDBRANCH   1   7
BRANCH   4  20
ATOM     20  C   UNL     1      11.900   8.258  -7.779  0.00  0.00    +0.000 C 
BRANCH  20  21
ATOM     21  N   UNL     1      13.154   8.948  -7.573  0.00  0.00    +0.000 N 
ATOM     22  C   UNL     1      13.440   9.842  -8.596  0.00  0.00    +0.000 A 
ATOM     23  N   UNL     1      12.443  10.497  -9.211  0.00  0.00    +0.000 NA
ATOM     24  C   UNL     1      12.780  11.337 -10.207  0.00  0.00    +0.000 A 
ATOM     25  C   UNL     1      14.071  11.541 -10.614  0.00  0.00    +0.000 A 
ATOM     26  C   UNL     1      15.020  10.826  -9.929  0.00  0.00    +0.000 A 
ATOM     27  N   UNL     1      14.730   9.970  -8.927  0.00  0.00    +0.000 NA
ATOM     28  H   UNL     1      13.971   8.355  -7.476  0.00  0.00    +0.000 HD
ENDBRANCH  20  21
ENDBRANCH   4  20
TORSDOF 12
