REMARK  Name = 
REMARK  5 active torsions:
REMARK  status: ('A' for Active; 'I' for Inactive)
REMARK    1  A    between atoms: C_2  and  C_4
REMARK    2  A    between atoms: C_7  and  O_8
REMARK    3  A    between atoms: O_8  and  C_9
REMARK    4  A    between atoms: C_9  and  C_10
REMARK    5  A    between atoms: C_14  and  C_15
REMARK                            x       y       z     vdW  Elec       q    Type
REMARK                         _______ _______ _______ _____ _____    ______ ____
ROOT
ATOM      1  C   UNL     1       5.100   0.909   5.744  0.00  0.00    +0.000 C 
ENDROOT
BRANCH   1   2
ATOM      2  C   UNL     1       6.086   1.413   6.770  0.00  0.00    +0.000 A 
ATOM      3  C   UNL     1       6.897   0.518   7.468  0.00  0.00    +0.000 A 
ATOM      4  C   UNL     1       7.752   1.018   8.435  0.00  0.00    +0.000 A 
ATOM      5  N   UNL     1       7.839   2.326   8.759  0.00  0.00    +0.000 NA
ATOM      6  C   UNL     1       7.030   3.197   8.106  0.00  0.00    +0.000 A 
ATOM      7  C   UNL     1       6.154   2.768   7.108  0.00  0.00    +0.000 A 
BRANCH   6   8
ATOM      8  C   UNL     1       7.130   4.607   8.516  0.00  0.00    +0.000 A 
ATOM      9  C   UNL     1       6.049   5.499   8.436  0.00  0.00    +0.000 A 
ATOM     10  C   UNL     1       6.196   6.832   8.816  0.00  0.00    +0.000 A 
ATOM     11  C   UNL     1       7.431   7.249   9.277  0.00  0.00    +0.000 A 
ATOM     12  N   UNL     1       8.499   6.435   9.386  0.00  0.00    +0.000 NA
ATOM     13  C   UNL     1       8.320   5.140   9.011  0.00  0.00    +0.000 A 
ENDBRANCH   6   8
ENDBRANCH   1   2
BRANCH   1  14
ATOM     14  O   UNL     1       4.911   1.885   4.713  0.00  0.00    +0.000 OA
BRANCH  14  18
ATOM     15  C   UNL     1       2.163   0.721   1.879  0.00  0.00    +0.000 A 
ATOM     16  C   UNL     1       2.780   1.969   1.770  0.00  0.00    +0.000 A 
ATOM     17  C   UNL     1       3.708   2.355   2.739  0.00  0.00    +0.000 A 
ATOM     18  C   UNL     1       3.984   1.477   3.777  0.00  0.00    +0.000 A 
ATOM     19  N   UNL     1       3.396   0.271   3.911  0.00  0.00    +0.000 NA
ATOM     20  C   UNL     1       2.491  -0.078   2.965  0.00  0.00    +0.000 A 
BRANCH  15  22
ATOM     21  N   UNL     1       1.240   0.675  -0.369  0.00  0.00    +0.000 N 
ATOM     22  C   UNL     1       1.167   0.213   0.915  0.00  0.00    +0.000 C 
ATOM     23  O   UNL     1       0.334  -0.621   1.241  0.00  0.00    +0.000 OA
ATOM     24  H   UNL     1       0.624   0.227  -1.036  0.00  0.00    +0.000 HD
ATOM     25  H   UNL     1       2.053   1.151  -0.732  0.00  0.00    +0.000 HD
ENDBRANCH  15  22
ENDBRANCH  14  18
ENDBRANCH   1  14
TORSDOF 5
