REMARK  Name = 
REMARK  5 active torsions:
REMARK  status: ('A' for Active; 'I' for Inactive)
REMARK    1  A    between atoms: N_1  and  C_2
REMARK    2  A    between atoms: C_2  and  C_3
REMARK    3  A    between atoms: C_6  and  C_7
REMARK    4  A    between atoms: C_7  and  N_8
REMARK    5  A    between atoms: C_12  and  C_13
REMARK                            x       y       z     vdW  Elec       q    Type
REMARK                         _______ _______ _______ _____ _____    ______ ____
ROOT
ATOM      1  N   UNL     1       4.707   3.477  -4.892  0.00  0.00    +0.000 N 
ATOM      2  C   UNL     1       5.122   4.345  -5.887  0.00  0.00    +0.000 A 
ATOM      3  C   UNL     1       5.409   5.701  -5.691  0.00  0.00    +0.000 A 
ATOM      4  N   UNL     1       5.912   6.533  -6.642  0.00  0.00    +0.000 NA
ATOM      5  C   UNL     1       6.147   5.932  -7.839  0.00  0.00    +0.000 A 
ATOM      6  C   UNL     1       5.862   4.595  -8.060  0.00  0.00    +0.000 A 
ATOM      7  N   UNL     1       5.340   3.785  -7.096  0.00  0.00    +0.000 NA
ATOM      8  H   UNL     1       4.372   2.618  -5.325  0.00  0.00    +0.000 HD
ENDROOT
BRANCH   5   9
ATOM      9  C   UNL     1       6.763   6.758  -8.913  0.00  0.00    +0.000 C 
ATOM     10  N   UNL     1       7.029   8.065  -8.601  0.00  0.00    +0.000 N 
ATOM     11  O   UNL     1       7.033   6.295 -10.016  0.00  0.00    +0.000 OA
ATOM     12  H   UNL     1       6.828   8.425  -7.676  0.00  0.00    +0.000 HD
ATOM     13  H   UNL     1       7.479   8.654  -9.288  0.00  0.00    +0.000 HD
ENDBRANCH   5   9
BRANCH   1  14
ATOM     14  C   UNL     1       3.920   3.968  -3.773  0.00  0.00    +0.000 C 
BRANCH  14  18
ATOM     15  C   UNL     1       3.152   0.988  -0.890  0.00  0.00    +0.000 A 
ATOM     16  C   UNL     1       2.118   1.629  -1.565  0.00  0.00    +0.000 A 
ATOM     17  N   UNL     1       2.326   2.579  -2.511  0.00  0.00    +0.000 NA
ATOM     18  C   UNL     1       3.625   2.872  -2.777  0.00  0.00    +0.000 A 
ATOM     19  C   UNL     1       4.660   2.221  -2.112  0.00  0.00    +0.000 A 
ATOM     20  N   UNL     1       4.451   1.276  -1.162  0.00  0.00    +0.000 NA
BRANCH  15  21
ATOM     21  C   UNL     1       2.858  -0.022   0.191  0.00  0.00    +0.000 C 
BRANCH  21  22
ATOM     22  N   UNL     1       2.050  -1.151  -0.278  0.00  0.00    +0.000 NA
ATOM     23  H   UNL     1       1.979  -1.834   0.476  0.00  0.00    +0.000 HD
ATOM     24  H   UNL     1       2.563  -1.621  -1.025  0.00  0.00    +0.000 HD
ENDBRANCH  21  22
ENDBRANCH  15  21
ENDBRANCH  14  18
ENDBRANCH   1  14
TORSDOF 5
