REMARK  Name = 
REMARK  9 active torsions:
REMARK  status: ('A' for Active; 'I' for Inactive)
REMARK    1  A    between atoms: C_1  and  C_2
REMARK    2  A    between atoms: C_5  and  O_6
REMARK    3  A    between atoms: O_6  and  C_7
REMARK    4  A    between atoms: C_9  and  C_10
REMARK    5  A    between atoms: C_10  and  C_11
REMARK    6  A    between atoms: C_10  and  C_12
REMARK    7  A    between atoms: C_10  and  C_13
REMARK    8  A    between atoms: C_13  and  N_14
REMARK    9  A    between atoms: C_18  and  C_19
REMARK                            x       y       z     vdW  Elec       q    Type
REMARK                         _______ _______ _______ _____ _____    ______ ____
ROOT
ATOM      1  C   UNL     1      -1.827   2.895  -0.426  0.00  0.00    +0.000 C 
ATOM      2  C   UNL     1      -1.166   2.600  -1.790  0.00  0.00    +0.000 C 
ATOM      3  C   UNL     1      -2.555   1.629   0.071  0.00  0.00    +0.000 C 
ENDROOT
BRANCH   1   6
ATOM      4  C   UNL     1      -0.232   4.483   2.740  0.00  0.00    +0.000 A 
ATOM      5  C   UNL     1      -1.119   4.121   1.719  0.00  0.00    +0.000 A 
ATOM      6  C   UNL     1      -0.774   3.263   0.657  0.00  0.00    +0.000 A 
ATOM      7  C   UNL     1       0.524   2.728   0.683  0.00  0.00    +0.000 A 
ATOM      8  C   UNL     1       1.408   3.058   1.718  0.00  0.00    +0.000 A 
ATOM      9  F   UNL     1       2.637   2.520   1.711  0.00  0.00    +0.000 F 
ATOM     10  C   UNL     1       1.038   3.923   2.744  0.00  0.00    +0.000 A 
ATOM     11  F   UNL     1       1.910   4.212   3.721  0.00  0.00    +0.000 F 
BRANCH   4  12
ATOM     12  O   UNL     1      -0.586   5.360   3.747  0.00  0.00    +0.000 OA
BRANCH  12  17
ATOM     13  C   UNL     1      -1.195   7.620   5.735  0.00  0.00    +0.000 C 
ATOM     14  C   UNL     1      -2.036   7.372   4.505  0.00  0.00    +0.000 C 
ATOM     15  O   UNL     1      -3.237   6.619   4.833  0.00  0.00    +0.000 OA
ATOM     16  C   UNL     1      -3.095   5.868   3.606  0.00  0.00    +0.000 C 
ATOM     17  C   UNL     1      -1.630   6.328   3.438  0.00  0.00    +0.000 C 
ENDBRANCH  12  17
ENDBRANCH   4  12
ENDBRANCH   1   6
BRANCH   1  18
ATOM     18  C   UNL     1      -2.863   4.060  -0.623  0.00  0.00    +0.000 C 
BRANCH  18  19
ATOM     19  N   UNL     1      -3.892   3.801  -1.642  0.00  0.00    +0.000 N 
ATOM     20  C   UNL     1      -4.825   4.860  -1.747  0.00  0.00    +0.000 A 
ATOM     21  C   UNL     1      -5.907   4.745  -2.634  0.00  0.00    +0.000 A 
ATOM     22  N   UNL     1      -6.863   5.697  -2.805  0.00  0.00    +0.000 NA
ATOM     23  C   UNL     1      -6.683   6.814  -2.046  0.00  0.00    +0.000 A 
ATOM     24  C   UNL     1      -5.615   6.954  -1.176  0.00  0.00    +0.000 A 
ATOM     25  N   UNL     1      -4.674   5.985  -1.014  0.00  0.00    +0.000 NA
ATOM     26  H   UNL     1      -4.412   2.949  -1.446  0.00  0.00    +0.000 HD
BRANCH  23  27
ATOM     27  C   UNL     1      -7.684   7.909  -2.165  0.00  0.00    +0.000 C 
ATOM     28  N   UNL     1      -8.707   7.689  -3.045  0.00  0.00    +0.000 N 
ATOM     29  O   UNL     1      -7.600   8.942  -1.513  0.00  0.00    +0.000 OA
ATOM     30  H   UNL     1      -8.748   6.825  -3.574  0.00  0.00    +0.000 HD
ATOM     31  H   UNL     1      -9.417   8.397  -3.171  0.00  0.00    +0.000 HD
ENDBRANCH  23  27
ENDBRANCH  18  19
ENDBRANCH   1  18
TORSDOF 6
