REMARK  Name = 
REMARK  6 active torsions:
REMARK  status: ('A' for Active; 'I' for Inactive)
REMARK    1  A    between atoms: C_1  and  C_2
REMARK    2  A    between atoms: C_2  and  C_3
REMARK    3  A    between atoms: C_2  and  C_4
REMARK    4  A    between atoms: C_2  and  C_18
REMARK    5  A    between atoms: C_5  and  C_6
REMARK    6  A    between atoms: C_8  and  C_9
REMARK                            x       y       z     vdW  Elec       q    Type
REMARK                         _______ _______ _______ _____ _____    ______ ____
ROOT
ATOM      1  C   UNL     1       3.019  -1.417  -0.495  0.00  0.00    +0.000 C 
ATOM      2  C   UNL     1       2.744  -2.651  -0.029  0.00  0.00    +0.000 C 
ENDROOT
BRANCH   2   3
ATOM      3  C   UNL     1       3.277  -3.871  -0.657  0.00  0.00    +0.000 A 
ATOM      4  C   UNL     1       3.012  -5.125  -0.110  0.00  0.00    +0.000 A 
ATOM      5  C   UNL     1       3.528  -6.281  -0.721  0.00  0.00    +0.000 A 
ATOM      6  C   UNL     1       4.298  -6.098  -1.878  0.00  0.00    +0.000 A 
ATOM      7  C   UNL     1       4.521  -4.818  -2.353  0.00  0.00    +0.000 A 
ATOM      8  N   UNL     1       4.028  -3.712  -1.770  0.00  0.00    +0.000 NA
BRANCH   5   9
ATOM      9  C   UNL     1       3.274  -7.631  -0.173  0.00  0.00    +0.000 A 
ATOM     10  C   UNL     1       2.077  -7.970   0.474  0.00  0.00    +0.000 A 
ATOM     11  C   UNL     1       1.872  -9.258   0.971  0.00  0.00    +0.000 A 
ATOM     12  C   UNL     1       2.875 -10.195   0.802  0.00  0.00    +0.000 A 
ATOM     13  N   UNL     1       4.045  -9.928   0.191  0.00  0.00    +0.000 NA
ATOM     14  C   UNL     1       4.214  -8.664  -0.270  0.00  0.00    +0.000 A 
ENDBRANCH   5   9
ENDBRANCH   2   3
BRANCH   1  16
ATOM     15  C   UNL     1       3.684   0.411   1.003  0.00  0.00    +0.000 C 
ATOM     16  C   UNL     1       2.556  -0.078   0.067  0.00  0.00    +0.000 C 
ATOM     17  C   UNL     1       2.479   0.929  -1.111  0.00  0.00    +0.000 C 
BRANCH  16  18
ATOM     18  C   UNL     1       1.172  -0.137   0.743  0.00  0.00    +0.000 A 
ATOM     19  C   UNL     1       0.967   0.224   2.087  0.00  0.00    +0.000 A 
ATOM     20  C   UNL     1      -0.311   0.205   2.658  0.00  0.00    +0.000 A 
ATOM     21  C   UNL     1      -1.408  -0.178   1.894  0.00  0.00    +0.000 A 
ATOM     22 CL   UNL     1      -2.979  -0.180   2.594  0.00  0.00    +0.000 Cl
ATOM     23  C   UNL     1      -1.237  -0.557   0.568  0.00  0.00    +0.000 A 
ATOM     24  C   UNL     1       0.041  -0.540   0.000  0.00  0.00    +0.000 A 
ENDBRANCH  16  18
ENDBRANCH   1  16
TORSDOF 4
