REMARK  Name = 
REMARK  5 active torsions:
REMARK  status: ('A' for Active; 'I' for Inactive)
REMARK    1  A    between atoms: C_1  and  N_2
REMARK    2  A    between atoms: C_3  and  C_5
REMARK    3  A    between atoms: N_9  and  C_10
REMARK    4  A    between atoms: C_10  and  C_11
REMARK    5  A    between atoms: C_10  and  C_12
REMARK                            x       y       z     vdW  Elec       q    Type
REMARK                         _______ _______ _______ _____ _____    ______ ____
ROOT
ATOM      1  C   UNL     1       9.379  -5.914  -1.639  0.00  0.00    +0.000 A 
ATOM      2  C   UNL     1       9.272  -4.734  -2.368  0.00  0.00    +0.000 A 
ATOM      3  C   UNL     1       9.190  -3.516  -1.691  0.00  0.00    +0.000 A 
ATOM      4  C   UNL     1       9.219  -3.491  -0.301  0.00  0.00    +0.000 A 
ATOM      5  N   UNL     1       9.081  -2.339   0.438  0.00  0.00    +0.000 N 
ATOM      6  N   UNL     1       9.311  -4.629   0.417  0.00  0.00    +0.000 NA
ATOM      7  C   UNL     1       9.377  -5.810  -0.257  0.00  0.00    +0.000 A 
ATOM      8  H   UNL     1       9.156  -2.557   1.425  0.00  0.00    +0.000 HD
ENDROOT
BRANCH   1  11
ATOM      9  C   UNL     1      10.036  -8.528  -4.295  0.00  0.00    +0.000 C 
ATOM     10  N   UNL     1       9.958  -7.292  -3.557  0.00  0.00    +0.000 N 
ATOM     11  C   UNL     1       9.443  -7.251  -2.277  0.00  0.00    +0.000 C 
ATOM     12  O   UNL     1       9.062  -8.242  -1.670  0.00  0.00    +0.000 OA
ATOM     13  H   UNL     1      10.387  -6.472  -3.961  0.00  0.00    +0.000 HD
ENDBRANCH   1  11
BRANCH   5  14
ATOM     14  C   UNL     1       9.635  -1.052   0.015  0.00  0.00    +0.000 C 
ATOM     15  C   UNL     1      11.142  -0.985   0.266  0.00  0.00    +0.000 C 
BRANCH  14  16
ATOM     16  C   UNL     1       8.877   0.080   0.709  0.00  0.00    +0.000 A 
ATOM     17  C   UNL     1       8.978   0.296   2.086  0.00  0.00    +0.000 A 
ATOM     18  C   UNL     1       8.205   1.295   2.673  0.00  0.00    +0.000 A 
ATOM     19  C   UNL     1       7.348   2.048   1.882  0.00  0.00    +0.000 A 
ATOM     20  C   UNL     1       7.312   1.783   0.525  0.00  0.00    +0.000 A 
ATOM     21  N   UNL     1       8.058   0.831  -0.076  0.00  0.00    +0.000 NA
ENDBRANCH  14  16
ENDBRANCH   5  14
TORSDOF 3
