REMARK  Name = 
REMARK  9 active torsions:
REMARK  status: ('A' for Active; 'I' for Inactive)
REMARK    1  A    between atoms: C_1  and  O_2
REMARK    2  A    between atoms: O_2  and  C_3
REMARK    3  A    between atoms: C_10  and  C_11
REMARK    4  A    between atoms: N_13  and  C_14
REMARK    5  A    between atoms: C_14  and  C_15
REMARK    6  A    between atoms: C_18  and  C_19
REMARK    7  A    between atoms: C_19  and  O_20
REMARK    8  A    between atoms: O_20  and  C_21
REMARK    9  A    between atoms: C_21  and  C_22
REMARK                            x       y       z     vdW  Elec       q    Type
REMARK                         _______ _______ _______ _____ _____    ______ ____
ROOT
ATOM      1  C   UNL     1       3.374  -3.124   0.877  0.00  0.00    +0.000 C 
ENDROOT
BRANCH   1   2
ATOM      2  C   UNL     1       2.340  -2.760   1.898  0.00  0.00    +0.000 A 
ATOM      3  C   UNL     1       1.461  -3.710   2.425  0.00  0.00    +0.000 A 
ATOM      4  C   UNL     1       0.512  -3.325   3.368  0.00  0.00    +0.000 A 
ATOM      5  C   UNL     1       0.473  -1.996   3.782  0.00  0.00    +0.000 A 
ATOM      6  N   UNL     1       1.347  -1.067   3.322  0.00  0.00    +0.000 NA
ATOM      7  C   UNL     1       2.248  -1.465   2.394  0.00  0.00    +0.000 A 
BRANCH   5   8
ATOM      8  C   UNL     1      -0.523  -1.554   4.830  0.00  0.00    +0.000 C 
BRANCH   8   9
ATOM      9  O   UNL     1      -0.395  -2.297   6.046  0.00  0.00    +0.000 OA
BRANCH   9  10
ATOM     10  C   UNL     1       0.831  -2.018   6.721  0.00  0.00    +0.000 C 
BRANCH  10  11
ATOM     11  C   UNL     1       0.849  -2.791   8.010  0.00  0.00    +0.000 A 
ATOM     12  C   UNL     1       0.683  -4.178   8.008  0.00  0.00    +0.000 A 
ATOM     13  C   UNL     1       0.724  -4.859   9.216  0.00  0.00    +0.000 A 
ATOM     14  N   UNL     1       0.927  -4.255  10.407  0.00  0.00    +0.000 NA
ATOM     15  C   UNL     1       1.086  -2.915  10.388  0.00  0.00    +0.000 A 
ATOM     16  C   UNL     1       1.056  -2.150   9.233  0.00  0.00    +0.000 A 
ENDBRANCH  10  11
ENDBRANCH   9  10
ENDBRANCH   8   9
ENDBRANCH   5   8
ENDBRANCH   1   2
BRANCH   1  19
ATOM     17  C   UNL     1       5.695  -3.929   0.777  0.00  0.00    +0.000 C 
ATOM     18  O   UNL     1       5.676  -3.919  -0.451  0.00  0.00    +0.000 OA
ATOM     19  N   UNL     1       4.602  -3.541   1.505  0.00  0.00    +0.000 N 
ATOM     20  H   UNL     1       4.632  -3.570   2.515  0.00  0.00    +0.000 HD
BRANCH  17  28
ATOM     21  C   UNL     1       6.455  -4.077   4.131  0.00  0.00    +0.000 A 
ATOM     22  N   UNL     1       6.973  -4.308   5.353  0.00  0.00    +0.000 NA
ATOM     23  C   UNL     1       8.184  -4.869   5.424  0.00  0.00    +0.000 A 
ATOM     24  N   UNL     1       8.967  -5.219   4.407  0.00  0.00    +0.000 NA
ATOM     25  C   UNL     1       8.407  -4.982   3.208  0.00  0.00    +0.000 A 
ATOM     26  S   UNL     1       9.268  -5.354   1.793  0.00  0.00    +0.000 S 
ATOM     27  C   UNL     1       7.984  -4.830   0.813  0.00  0.00    +0.000 A 
ATOM     28  C   UNL     1       6.881  -4.374   1.529  0.00  0.00    +0.000 A 
ATOM     29  C   UNL     1       7.152  -4.435   2.962  0.00  0.00    +0.000 A 
BRANCH  21  31
ATOM     30  C   UNL     1       4.873  -2.725   5.203  0.00  0.00    +0.000 C 
ATOM     31  O   UNL     1       5.199  -3.512   4.056  0.00  0.00    +0.000 OA
ENDBRANCH  21  31
ENDBRANCH  17  28
ENDBRANCH   1  19
TORSDOF 8
