REMARK  Name = 
REMARK  4 active torsions:
REMARK  status: ('A' for Active; 'I' for Inactive)
REMARK    1  A    between atoms: C_2  and  C_4
REMARK    2  A    between atoms: N_8  and  C_9
REMARK    3  A    between atoms: C_9  and  C_10
REMARK    4  A    between atoms: C_14  and  C_15
REMARK                            x       y       z     vdW  Elec       q    Type
REMARK                         _______ _______ _______ _____ _____    ______ ____
ROOT
ATOM      1  C   UNL     1       7.777   2.364  -0.367  0.00  0.00    +0.000 A 
ATOM      2  C   UNL     1       7.115   3.511   0.054  0.00  0.00    +0.000 A 
ATOM      3  C   UNL     1       6.217   4.135  -0.812  0.00  0.00    +0.000 A 
ATOM      4  C   UNL     1       6.003   3.613  -2.083  0.00  0.00    +0.000 A 
ATOM      5  N   UNL     1       5.069   4.100  -2.963  0.00  0.00    +0.000 N 
ATOM      6  N   UNL     1       6.670   2.523  -2.514  0.00  0.00    +0.000 NA
ATOM      7  C   UNL     1       7.545   1.927  -1.662  0.00  0.00    +0.000 A 
ATOM      8  H   UNL     1       5.139   3.620  -3.853  0.00  0.00    +0.000 HD
ENDROOT
BRANCH   1  10
ATOM      9  N   UNL     1       8.474   1.679   1.852  0.00  0.00    +0.000 N 
ATOM     10  C   UNL     1       8.694   1.607   0.504  0.00  0.00    +0.000 C 
ATOM     11  O   UNL     1       9.588   0.908   0.042  0.00  0.00    +0.000 OA
ATOM     12  H   UNL     1       9.032   1.066   2.433  0.00  0.00    +0.000 HD
ATOM     13  H   UNL     1       7.607   2.026   2.243  0.00  0.00    +0.000 HD
ENDBRANCH   1  10
BRANCH   5  14
ATOM     14  C   UNL     1       4.629   5.476  -3.005  0.00  0.00    +0.000 C 
BRANCH  14  15
ATOM     15  C   UNL     1       5.489   6.406  -3.834  0.00  0.00    +0.000 A 
ATOM     16  C   UNL     1       5.097   7.752  -3.909  0.00  0.00    +0.000 A 
ATOM     17  C   UNL     1       5.826   8.665  -4.664  0.00  0.00    +0.000 A 
ATOM     18  C   UNL     1       6.968   8.248  -5.346  0.00  0.00    +0.000 A 
ATOM     19  C   UNL     1       7.423   6.919  -5.275  0.00  0.00    +0.000 A 
ATOM     20  C   UNL     1       6.649   6.009  -4.524  0.00  0.00    +0.000 A 
BRANCH  19  21
ATOM     21  C   UNL     1       8.695   6.510  -5.919  0.00  0.00    +0.000 A 
ATOM     22  C   UNL     1       9.793   7.383  -5.965  0.00  0.00    +0.000 A 
ATOM     23  C   UNL     1      10.984   6.961  -6.535  0.00  0.00    +0.000 A 
ATOM     24  N   UNL     1      11.170   5.736  -7.061  0.00  0.00    +0.000 NA
ATOM     25  C   UNL     1      10.114   4.900  -7.013  0.00  0.00    +0.000 A 
ATOM     26  C   UNL     1       8.880   5.236  -6.471  0.00  0.00    +0.000 A 
ENDBRANCH  19  21
ENDBRANCH  14  15
ENDBRANCH   5  14
TORSDOF 4
