REMARK  Name = 
REMARK  6 active torsions:
REMARK  status: ('A' for Active; 'I' for Inactive)
REMARK    1  A    between atoms: C_2  and  C_3
REMARK    2  A    between atoms: C_7  and  O_8
REMARK    3  A    between atoms: O_8  and  C_9
REMARK    4  A    between atoms: C_9  and  C_10
REMARK    5  A    between atoms: C_14  and  N_15
REMARK    6  A    between atoms: C_18  and  O_19
REMARK                            x       y       z     vdW  Elec       q    Type
REMARK                         _______ _______ _______ _____ _____    ______ ____
ROOT
ATOM      1  C   UNL     1      -3.024   3.970   0.265  0.00  0.00    +0.000 A 
ATOM      2  C   UNL     1      -3.812   4.277  -0.850  0.00  0.00    +0.000 A 
ATOM      3  C   UNL     1      -5.189   4.446  -0.728  0.00  0.00    +0.000 A 
ATOM      4  C   UNL     1      -5.810   4.275   0.512  0.00  0.00    +0.000 A 
ATOM      5  C   UNL     1      -5.074   3.995   1.667  0.00  0.00    +0.000 A 
ATOM      6  C   UNL     1      -3.681   3.919   1.511  0.00  0.00    +0.000 A 
ENDROOT
BRANCH   5   7
ATOM      7  N   UNL     1      -5.664   3.779   2.898  0.00  0.00    +0.000 N 
ATOM      8  C   UNL     1      -5.075   2.864   3.881  0.00  0.00    +0.000 C 
ATOM      9  C   UNL     1      -4.868   3.613   5.192  0.00  0.00    +0.000 C 
ATOM     10  C   UNL     1      -6.165   4.270   5.665  0.00  0.00    +0.000 C 
ATOM     11  C   UNL     1      -6.828   5.103   4.568  0.00  0.00    +0.000 C 
ATOM     12  C   UNL     1      -6.969   4.333   3.255  0.00  0.00    +0.000 C 
BRANCH  10  13
ATOM     13  O   UNL     1      -7.071   3.283   6.161  0.00  0.00    +0.000 OA
ATOM     14  H   UNL     1      -7.306   2.678   5.439  0.00  0.00    +0.000 HD
ENDBRANCH  10  13
ENDBRANCH   5   7
BRANCH   1  15
ATOM     15  C   UNL     1      -1.546   3.603   0.151  0.00  0.00    +0.000 C 
ATOM     16  C   UNL     1      -1.034   2.497   1.076  0.00  0.00    +0.000 C 
ATOM     17  C   UNL     1      -1.169   2.233  -0.384  0.00  0.00    +0.000 C 
BRANCH  15  18
ATOM     18  O   UNL     1      -0.576   4.673  -0.012  0.00  0.00    +0.000 OA
BRANCH  18  23
ATOM     19  C   UNL     1      -0.578   7.414  -2.401  0.00  0.00    +0.000 A 
ATOM     20  C   UNL     1      -0.627   6.689  -3.585  0.00  0.00    +0.000 A 
ATOM     21  N   UNL     1      -0.631   5.337  -3.639  0.00  0.00    +0.000 NA
ATOM     22  C   UNL     1      -0.600   4.685  -2.452  0.00  0.00    +0.000 A 
ATOM     23  C   UNL     1      -0.592   5.321  -1.217  0.00  0.00    +0.000 A 
ATOM     24  C   UNL     1      -0.550   6.711  -1.197  0.00  0.00    +0.000 A 
BRANCH  19  26
ATOM     25  N   UNL     1      -0.550  10.001  -2.461  0.00  0.00    +0.000 NA
ATOM     26  C   UNL     1      -0.561   8.839  -2.428  0.00  0.00    +0.000 C 
ENDBRANCH  19  26
ENDBRANCH  18  23
ENDBRANCH  15  18
ENDBRANCH   1  15
TORSDOF 6
