REMARK  Name = 
REMARK  7 active torsions:
REMARK  status: ('A' for Active; 'I' for Inactive)
REMARK    1  A    between atoms: C_2  and  C_19
REMARK    2  A    between atoms: N_3  and  C_4
REMARK    3  A    between atoms: C_4  and  C_5
REMARK    4  A    between atoms: C_8  and  C_9
REMARK    5  A    between atoms: C_9  and  O_10
REMARK    6  A    between atoms: C_9  and  C_11
REMARK    7  A    between atoms: C_11  and  C_12
REMARK                            x       y       z     vdW  Elec       q    Type
REMARK                         _______ _______ _______ _____ _____    ______ ____
ROOT
ATOM      1  C   UNL     1       2.018  -1.368   2.338  0.00  0.00    +0.000 C 
ENDROOT
BRANCH   1   2
ATOM      2  C   UNL     1       2.968  -2.120   3.253  0.00  0.00    +0.000 A 
ATOM      3  N   UNL     1       3.922  -1.412   3.896  0.00  0.00    +0.000 NA
ATOM      4  C   UNL     1       4.784  -2.121   4.661  0.00  0.00    +0.000 A 
ATOM      5  C   UNL     1       4.766  -3.498   4.783  0.00  0.00    +0.000 A 
ATOM      6  C   UNL     1       3.771  -4.113   4.054  0.00  0.00    +0.000 A 
ATOM      7  N   UNL     1       2.873  -3.461   3.289  0.00  0.00    +0.000 NA
BRANCH   5   8
ATOM      8  C   UNL     1       5.732  -4.221   5.679  0.00  0.00    +0.000 C 
BRANCH   8   9
ATOM      9  O   UNL     1       5.120  -4.329   6.972  0.00  0.00    +0.000 OA
ATOM     10  H   UNL     1       4.338  -4.901   6.890  0.00  0.00    +0.000 HD
ENDBRANCH   8   9
BRANCH   8  11
ATOM     11  C   UNL     1       6.181  -5.621   5.222  0.00  0.00    +0.000 C 
BRANCH  11  12
ATOM     12  C   UNL     1       6.942  -5.604   3.946  0.00  0.00    +0.000 A 
ATOM     13  C   UNL     1       6.648  -6.218   2.747  0.00  0.00    +0.000 A 
ATOM     14  N   UNL     1       7.671  -5.874   1.907  0.00  0.00    +0.000 N 
ATOM     15  C   UNL     1       8.535  -5.087   2.613  0.00  0.00    +0.000 A 
ATOM     16  N   UNL     1       8.121  -4.905   3.846  0.00  0.00    +0.000 NA
ATOM     17  H   UNL     1       7.776  -6.149   0.940  0.00  0.00    +0.000 HD
ENDBRANCH  11  12
ENDBRANCH   8  11
ENDBRANCH   5   8
ENDBRANCH   1   2
BRANCH   1  20
ATOM     18  O   UNL     1       1.445  -2.936   0.012  0.00  0.00    +0.000 OA
ATOM     19  C   UNL     1       2.354  -2.118   0.008  0.00  0.00    +0.000 C 
ATOM     20  N   UNL     1       2.589  -1.212   1.019  0.00  0.00    +0.000 N 
ATOM     21  H   UNL     1       3.477  -0.732   1.009  0.00  0.00    +0.000 HD
BRANCH  19  22
ATOM     22  C   UNL     1       3.412  -2.116  -0.985  0.00  0.00    +0.000 A 
ATOM     23  C   UNL     1       3.967  -3.279  -1.492  0.00  0.00    +0.000 A 
ATOM     24  S   UNL     1       5.492  -2.988  -2.222  0.00  0.00    +0.000 S 
ATOM     25  C   UNL     1       5.348  -1.305  -1.984  0.00  0.00    +0.000 A 
ATOM     26  N   UNL     1       6.363  -0.439  -2.249  0.00  0.00    +0.000 NA
ATOM     27  C   UNL     1       6.060   0.803  -2.054  0.00  0.00    +0.000 A 
ATOM     28  N   UNL     1       4.822   1.265  -1.672  0.00  0.00    +0.000 N 
ATOM     29  C   UNL     1       3.762   0.430  -1.414  0.00  0.00    +0.000 A 
ATOM     30  O   UNL     1       2.643   0.860  -1.158  0.00  0.00    +0.000 OA
ATOM     31  C   UNL     1       4.105  -0.974  -1.491  0.00  0.00    +0.000 A 
ATOM     32  H   UNL     1       4.631   2.254  -1.618  0.00  0.00    +0.000 HD
ENDBRANCH  19  22
ENDBRANCH   1  20
TORSDOF 7
