REMARK  Name = 
REMARK  7 active torsions:
REMARK  status: ('A' for Active; 'I' for Inactive)
REMARK    1  A    between atoms: C_1  and  N_2
REMARK    2  A    between atoms: C_8  and  C_9
REMARK    3  A    between atoms: N_11  and  C_12
REMARK    4  A    between atoms: C_12  and  C_13
REMARK    5  A    between atoms: C_16  and  C_17
REMARK    6  A    between atoms: C_17  and  N_18
REMARK    7  A    between atoms: N_18  and  C_19
REMARK                            x       y       z     vdW  Elec       q    Type
REMARK                         _______ _______ _______ _____ _____    ______ ____
ROOT
ATOM      1  C   UNL     1       6.139  -5.905  -0.024  0.00  0.00    +0.000 C 
ENDROOT
BRANCH   1   2
ATOM      2  C   UNL     1       7.433  -6.662   0.004  0.00  0.00    +0.000 A 
ATOM      3  C   UNL     1       7.452  -8.057  -0.007  0.00  0.00    +0.000 A 
ATOM      4  C   UNL     1       8.667  -8.735   0.013  0.00  0.00    +0.000 A 
ATOM      5  C   UNL     1       9.851  -8.002   0.031  0.00  0.00    +0.000 A 
ATOM      6  N   UNL     1       9.859  -6.642   0.053  0.00  0.00    +0.000 NA
ATOM      7  C   UNL     1       8.661  -6.011   0.027  0.00  0.00    +0.000 A 
BRANCH   5   8
ATOM      8  C   UNL     1      11.191  -8.715   0.004  0.00  0.00    +0.000 C 
BRANCH   8   9
ATOM      9  N   UNL     1      11.757  -8.914   1.335  0.00  0.00    +0.000 N 
ATOM     10  H   UNL     1      11.650  -8.089   1.920  0.00  0.00    +0.000 HD
BRANCH   9  11
ATOM     11  C   UNL     1      11.419 -10.079   2.033  0.00  0.00    +0.000 A 
ATOM     12  N   UNL     1      10.708 -11.046   1.404  0.00  0.00    +0.000 NA
ATOM     13  C   UNL     1      10.475 -12.205   2.063  0.00  0.00    +0.000 A 
ATOM     14  C   UNL     1      10.931 -12.475   3.341  0.00  0.00    +0.000 A 
ATOM     15  C   UNL     1      11.663 -11.490   3.989  0.00  0.00    +0.000 A 
ATOM     16  C   UNL     1      11.910 -10.282   3.335  0.00  0.00    +0.000 A 
ATOM     17 CL   UNL     1      12.828  -9.074   4.164  0.00  0.00    +0.000 Cl
ENDBRANCH   9  11
ENDBRANCH   8   9
ENDBRANCH   5   8
ENDBRANCH   1   2
BRANCH   1  20
ATOM     18  C   UNL     1       4.854  -6.460  -2.062  0.00  0.00    +0.000 C 
ATOM     19  O   UNL     1       4.522  -7.567  -1.646  0.00  0.00    +0.000 OA
ATOM     20  N   UNL     1       5.696  -5.630  -1.368  0.00  0.00    +0.000 N 
ATOM     21  H   UNL     1       5.819  -4.678  -1.693  0.00  0.00    +0.000 HD
BRANCH  18  29
ATOM     22  C   UNL     1       4.201  -0.916  -3.246  0.00  0.00    +0.000 C 
ATOM     23  N   UNL     1       4.047  -2.210  -3.876  0.00  0.00    +0.000 N 
ATOM     24  C   UNL     1       3.621  -2.312  -5.185  0.00  0.00    +0.000 A 
ATOM     25  N   UNL     1       3.459  -3.417  -5.837  0.00  0.00    +0.000 NA
ATOM     26  C   UNL     1       3.740  -4.538  -5.125  0.00  0.00    +0.000 A 
ATOM     27  S   UNL     1       3.539  -6.084  -5.808  0.00  0.00    +0.000 S 
ATOM     28  C   UNL     1       4.033  -6.848  -4.365  0.00  0.00    +0.000 A 
ATOM     29  C   UNL     1       4.391  -5.959  -3.362  0.00  0.00    +0.000 A 
ATOM     30  C   UNL     1       4.195  -4.602  -3.822  0.00  0.00    +0.000 A 
ATOM     31  C   UNL     1       4.380  -3.337  -3.131  0.00  0.00    +0.000 A 
ATOM     32  O   UNL     1       4.828  -3.267  -1.989  0.00  0.00    +0.000 OA
ENDBRANCH  18  29
ENDBRANCH   1  20
TORSDOF 6
