REMARK  Name = 
REMARK  9 active torsions:
REMARK  status: ('A' for Active; 'I' for Inactive)
REMARK    1  A    between atoms: N_1  and  C_2
REMARK    2  A    between atoms: C_2  and  C_3
REMARK    3  A    between atoms: C_2  and  C_19
REMARK    4  A    between atoms: C_3  and  N_4
REMARK    5  A    between atoms: C_7  and  C_8
REMARK    6  A    between atoms: C_8  and  O_9
REMARK    7  A    between atoms: O_9  and  C_10
REMARK    8  A    between atoms: C_10  and  C_11
REMARK    9  A    between atoms: C_19  and  C_21
REMARK                            x       y       z     vdW  Elec       q    Type
REMARK                         _______ _______ _______ _____ _____    ______ ____
ROOT
ATOM      1  C   UNL     1       2.437   0.004  -0.151  0.00  0.00    +0.000 C 
ENDROOT
BRANCH   1   2
ATOM      2  N   UNL     1       2.974  -0.961   0.842  0.00  0.00    +0.000 NA
ATOM      3  H   UNL     1       3.990  -0.895   0.862  0.00  0.00    +0.000 HD
ATOM      4  H   UNL     1       2.770  -1.904   0.501  0.00  0.00    +0.000 HD
ENDBRANCH   1   2
BRANCH   1   5
ATOM      5  C   UNL     1       2.882  -0.362  -1.580  0.00  0.00    +0.000 C 
ATOM      6  O   UNL     1       3.227  -1.513  -1.848  0.00  0.00    +0.000 OA
BRANCH   5   7
ATOM      7  C   UNL     1       2.946   0.707  -2.595  0.00  0.00    +0.000 A 
ATOM      8  C   UNL     1       3.152   2.045  -2.287  0.00  0.00    +0.000 A 
ATOM      9  S   UNL     1       3.306   3.043  -3.664  0.00  0.00    +0.000 S 
ATOM     10  C   UNL     1       3.099   1.721  -4.711  0.00  0.00    +0.000 A 
ATOM     11  N   UNL     1       3.158   1.882  -6.060  0.00  0.00    +0.000 NA
ATOM     12  C   UNL     1       3.002   0.791  -6.731  0.00  0.00    +0.000 A 
ATOM     13  N   UNL     1       2.765  -0.442  -6.178  0.00  0.00    +0.000 N 
ATOM     14  C   UNL     1       2.574  -0.632  -4.827  0.00  0.00    +0.000 A 
ATOM     15  O   UNL     1       2.120  -1.684  -4.396  0.00  0.00    +0.000 OA
ATOM     16  C   UNL     1       2.861   0.541  -4.025  0.00  0.00    +0.000 A 
ATOM     17  H   UNL     1       2.571  -1.241  -6.763  0.00  0.00    +0.000 HD
ENDBRANCH   5   7
ENDBRANCH   1   5
BRANCH   1  18
ATOM     18  C   UNL     1       0.891   0.100  -0.103  0.00  0.00    +0.000 C 
BRANCH  18  19
ATOM     19  N   UNL     1       0.366   0.480   1.225  0.00  0.00    +0.000 NA
ATOM     20  C   UNL     1       0.849   1.799   1.646  0.00  0.00    +0.000 C 
ATOM     21  C   UNL     1       0.354   2.164   3.038  0.00  0.00    +0.000 C 
ATOM     22  C   UNL     1      -1.163   2.076   3.142  0.00  0.00    +0.000 C 
ATOM     23  C   UNL     1      -1.631   0.695   2.663  0.00  0.00    +0.000 C 
ATOM     24  C   UNL     1      -1.097   0.363   1.268  0.00  0.00    +0.000 C 
BRANCH  22  25
ATOM     25  C   UNL     1      -1.851   3.216   2.370  0.00  0.00    +0.000 C 
BRANCH  25  26
ATOM     26  O   UNL     1      -3.273   3.139   2.455  0.00  0.00    +0.000 OA
BRANCH  26  27
ATOM     27  C   UNL     1      -3.758   3.355   3.776  0.00  0.00    +0.000 C 
BRANCH  27  28
ATOM     28  C   UNL     1      -5.253   3.260   3.769  0.00  0.00    +0.000 A 
ATOM     29  C   UNL     1      -5.887   2.093   3.335  0.00  0.00    +0.000 A 
ATOM     30  C   UNL     1      -7.266   2.022   3.409  0.00  0.00    +0.000 A 
ATOM     31  N   UNL     1      -8.043   3.022   3.879  0.00  0.00    +0.000 NA
ATOM     32  C   UNL     1      -7.408   4.142   4.285  0.00  0.00    +0.000 A 
ATOM     33  C   UNL     1      -6.035   4.309   4.252  0.00  0.00    +0.000 A 
ENDBRANCH  27  28
ENDBRANCH  26  27
ENDBRANCH  25  26
ENDBRANCH  22  25
ENDBRANCH  18  19
ENDBRANCH   1  18
TORSDOF 9
