REMARK  Name = 
REMARK  11 active torsions:
REMARK  status: ('A' for Active; 'I' for Inactive)
REMARK    1  A    between atoms: C_1  and  O_2
REMARK    2  A    between atoms: O_2  and  C_3
REMARK    3  A    between atoms: C_10  and  C_11
REMARK    4  A    between atoms: N_13  and  C_14
REMARK    5  A    between atoms: C_14  and  C_15
REMARK    6  A    between atoms: C_18  and  C_19
REMARK    7  A    between atoms: C_19  and  N_20
REMARK    8  A    between atoms: N_20  and  CA_21
REMARK    9  A    between atoms: CA_21  and  C_22
REMARK   10  A    between atoms: CA_21  and  C_24
REMARK   11  A    between atoms: C_22  and  O_23
REMARK                            x       y       z     vdW  Elec       q    Type
REMARK                         _______ _______ _______ _____ _____    ______ ____
ROOT
ATOM      1  C   UNL     1      -5.161   4.646  -0.961  0.00  0.00    +0.000 A 
ATOM      2  C   UNL     1      -4.534   5.189   0.168  0.00  0.00    +0.000 A 
ATOM      3  C   UNL     1      -4.442   4.453   1.354  0.00  0.00    +0.000 A 
ATOM      4  C   UNL     1      -4.970   3.157   1.434  0.00  0.00    +0.000 A 
ATOM      5  C   UNL     1      -5.566   2.602   0.294  0.00  0.00    +0.000 A 
ATOM      6  C   UNL     1      -5.656   3.338  -0.893  0.00  0.00    +0.000 A 
ENDROOT
BRANCH   1   7
ATOM      7  C   UNL     1      -5.258   5.435  -2.242  0.00  0.00    +0.000 C 
BRANCH   7  10
ATOM      8  C   UNL     1      -3.945   5.827  -4.284  0.00  0.00    +0.000 C 
ATOM      9  O   UNL     1      -4.775   6.633  -4.701  0.00  0.00    +0.000 OA
ATOM     10  N   UNL     1      -4.113   5.196  -3.084  0.00  0.00    +0.000 N 
ATOM     11  H   UNL     1      -3.450   4.496  -2.780  0.00  0.00    +0.000 HD
BRANCH   8  19
ATOM     12  C   UNL     1      -1.207   3.835  -3.672  0.00  0.00    +0.000 A 
ATOM     13  N   UNL     1      -0.049   3.145  -3.693  0.00  0.00    +0.000 NA
ATOM     14  C   UNL     1       0.731   3.258  -4.771  0.00  0.00    +0.000 A 
ATOM     15  N   UNL     1       0.495   3.993  -5.853  0.00  0.00    +0.000 NA
ATOM     16  C   UNL     1      -0.670   4.661  -5.794  0.00  0.00    +0.000 A 
ATOM     17  S   UNL     1      -1.131   5.650  -7.095  0.00  0.00    +0.000 S 
ATOM     18  C   UNL     1      -2.573   6.089  -6.310  0.00  0.00    +0.000 A 
ATOM     19  C   UNL     1      -2.736   5.502  -5.060  0.00  0.00    +0.000 A 
ATOM     20  C   UNL     1      -1.592   4.644  -4.755  0.00  0.00    +0.000 A 
BRANCH  12  22
ATOM     21  C   UNL     1      -1.340   3.276  -1.401  0.00  0.00    +0.000 C 
ATOM     22  O   UNL     1      -2.033   3.683  -2.578  0.00  0.00    +0.000 OA
ENDBRANCH  12  22
ENDBRANCH   8  19
ENDBRANCH   7  10
ENDBRANCH   1   7
BRANCH   4  23
ATOM     23  C   UNL     1      -4.863   2.362   2.717  0.00  0.00    +0.000 C 
BRANCH  23  24
ATOM     24  N   UNL     1      -5.578   3.021   3.827  0.00  0.00    +0.000 NA
ATOM     25  H   UNL     1      -6.544   3.144   3.522  0.00  0.00    +0.000 HD
BRANCH  24  26
ATOM     26  CA  UNL     1      -5.580   2.137   5.028  0.00  0.00    +0.000 C 
BRANCH  26  27
ATOM     27  C   UNL     1      -4.181   1.886   5.587  0.00  0.00    +0.000 A 
ATOM     28  C   UNL     1      -3.412   2.904   6.153  0.00  0.00    +0.000 A 
ATOM     29  C   UNL     1      -2.102   2.632   6.543  0.00  0.00    +0.000 A 
ATOM     30  C   UNL     1      -1.584   1.359   6.351  0.00  0.00    +0.000 A 
ATOM     31  C   UNL     1      -2.405   0.403   5.780  0.00  0.00    +0.000 A 
ATOM     32  N   UNL     1      -3.680   0.635   5.395  0.00  0.00    +0.000 NA
ENDBRANCH  26  27
BRANCH  26  33
ATOM     33  C   UNL     1      -6.577   2.668   6.091  0.00  0.00    +0.000 C 
BRANCH  33  34
ATOM     34  O   UNL     1      -6.294   4.001   6.516  0.00  0.00    +0.000 OA
ATOM     35  H   UNL     1      -6.076   4.495   5.704  0.00  0.00    +0.000 HD
ENDBRANCH  33  34
ENDBRANCH  26  33
ENDBRANCH  24  26
ENDBRANCH  23  24
ENDBRANCH   4  23
TORSDOF 10
