REMARK  Name = 
REMARK  7 active torsions:
REMARK  status: ('A' for Active; 'I' for Inactive)
REMARK    1  A    between atoms: C_1  and  C_2
REMARK    2  A    between atoms: C_2  and  C_3
REMARK    3  A    between atoms: C_2  and  C_24
REMARK    4  A    between atoms: C_3  and  N_4
REMARK    5  A    between atoms: C_7  and  C_8
REMARK    6  A    between atoms: C_8  and  N_9
REMARK    7  A    between atoms: C_10  and  C_12
REMARK                            x       y       z     vdW  Elec       q    Type
REMARK                         _______ _______ _______ _____ _____    ______ ____
ROOT
ATOM      1  C   UNL     1      -1.725  -2.563  -2.782  0.00  0.00    +0.000 C 
ENDROOT
BRANCH   1   5
ATOM      2  N   UNL     1       0.489  -0.008  -1.311  0.00  0.00    +0.000 NA
ATOM      3  C   UNL     1       0.958  -1.212  -2.013  0.00  0.00    +0.000 C 
ATOM      4  C   UNL     1       0.391  -1.287  -3.427  0.00  0.00    +0.000 C 
ATOM      5  C   UNL     1      -1.139  -1.292  -3.417  0.00  0.00    +0.000 C 
ATOM      6  C   UNL     1      -1.609  -0.038  -2.665  0.00  0.00    +0.000 C 
ATOM      7  C   UNL     1      -0.979   0.074  -1.271  0.00  0.00    +0.000 C 
BRANCH   2   8
ATOM      8  C   UNL     1       1.025   0.053   0.070  0.00  0.00    +0.000 C 
BRANCH   8  10
ATOM      9  C   UNL     1       3.186   1.176  -0.667  0.00  0.00    +0.000 C 
ATOM     10  C   UNL     1       2.569   0.053   0.173  0.00  0.00    +0.000 C 
BRANCH  10  11
ATOM     11  C   UNL     1       2.977   0.093   1.637  0.00  0.00    +0.000 A 
ATOM     12  C   UNL     1       3.141  -1.110   2.328  0.00  0.00    +0.000 A 
ATOM     13  C   UNL     1       3.445  -1.078   3.685  0.00  0.00    +0.000 A 
ATOM     14  C   UNL     1       3.585   0.148   4.318  0.00  0.00    +0.000 A 
ATOM     15  C   UNL     1       3.411   1.296   3.563  0.00  0.00    +0.000 A 
ATOM     16  N   UNL     1       3.101   1.296   2.247  0.00  0.00    +0.000 NA
ENDBRANCH  10  11
ENDBRANCH   8  10
ENDBRANCH   2   8
ENDBRANCH   1   5
BRANCH   1  17
ATOM     17  N   UNL     1      -1.300  -3.769  -3.462  0.00  0.00    +0.000 N 
ATOM     18  C   UNL     1      -0.628  -4.772  -2.805  0.00  0.00    +0.000 C 
ATOM     19  O   UNL     1      -0.325  -4.697  -1.614  0.00  0.00    +0.000 OA
ATOM     20  H   UNL     1      -1.396  -3.810  -4.474  0.00  0.00    +0.000 HD
BRANCH  18  21
ATOM     21  C   UNL     1      -0.337  -5.977  -3.573  0.00  0.00    +0.000 A 
ATOM     22  C   UNL     1      -0.233  -7.203  -2.926  0.00  0.00    +0.000 A 
ATOM     23  S   UNL     1       0.095  -8.500  -3.984  0.00  0.00    +0.000 S 
ATOM     24  C   UNL     1       0.161  -7.456  -5.322  0.00  0.00    +0.000 A 
ATOM     25  N   UNL     1       0.441  -7.906  -6.574  0.00  0.00    +0.000 NA
ATOM     26  N   UNL     1       0.519  -7.084  -7.520  0.00  0.00    +0.000 NA
ATOM     27  N   UNL     1       0.299  -5.757  -7.274  0.00  0.00    +0.000 N 
ATOM     28  C   UNL     1      -0.029  -5.201  -6.061  0.00  0.00    +0.000 A 
ATOM     29  O   UNL     1      -0.259  -4.003  -5.932  0.00  0.00    +0.000 OA
ATOM     30  C   UNL     1      -0.090  -6.149  -4.977  0.00  0.00    +0.000 A 
ATOM     31  H   UNL     1       0.372  -5.143  -8.076  0.00  0.00    +0.000 HD
ENDBRANCH  18  21
ENDBRANCH   1  17
TORSDOF 6
