REMARK  Name = 
REMARK  7 active torsions:
REMARK  status: ('A' for Active; 'I' for Inactive)
REMARK    1  A    between atoms: N_1  and  C_2
REMARK    2  A    between atoms: C_2  and  C_3
REMARK    3  A    between atoms: C_6  and  O_7
REMARK    4  A    between atoms: O_7  and  C_8
REMARK    5  A    between atoms: C_8  and  C_9
REMARK    6  A    between atoms: N_13  and  C_14
REMARK    7  A    between atoms: C_14  and  C_15
REMARK                            x       y       z     vdW  Elec       q    Type
REMARK                         _______ _______ _______ _____ _____    ______ ____
ROOT
ATOM      1  O   UNL     1       6.929  -1.734   7.309  0.00  0.00    +0.000 OA
ENDROOT
BRANCH   1   5
ATOM      2  C   UNL     1      10.168   0.195   8.972  0.00  0.00    +0.000 A 
ATOM      3  C   UNL     1       9.089  -0.076   9.812  0.00  0.00    +0.000 A 
ATOM      4  C   UNL     1       7.973  -0.738   9.299  0.00  0.00    +0.000 A 
ATOM      5  C   UNL     1       7.952  -1.108   7.961  0.00  0.00    +0.000 A 
ATOM      6  C   UNL     1       9.079  -0.816   7.200  0.00  0.00    +0.000 A 
ATOM      7  N   UNL     1      10.181  -0.177   7.669  0.00  0.00    +0.000 NA
BRANCH   2   8
ATOM      8  C   UNL     1      11.370   0.947   9.498  0.00  0.00    +0.000 C 
BRANCH   8   9
ATOM      9  N   UNL     1      12.005   0.286  10.643  0.00  0.00    +0.000 NA
ATOM     10  H   UNL     1      12.861   0.790  10.868  0.00  0.00    +0.000 HD
ATOM     11  H   UNL     1      12.301  -0.643  10.339  0.00  0.00    +0.000 HD
ENDBRANCH   8   9
ENDBRANCH   2   8
ENDBRANCH   1   5
BRANCH   1  12
ATOM     12  C   UNL     1       5.756  -2.014   8.075  0.00  0.00    +0.000 C 
BRANCH  12  13
ATOM     13  C   UNL     1       4.722  -2.699   7.175  0.00  0.00    +0.000 C 
ATOM     14  C   UNL     1       5.277  -4.007   6.598  0.00  0.00    +0.000 C 
ATOM     15  C   UNL     1       4.198  -4.752   5.828  0.00  0.00    +0.000 C 
ATOM     16  C   UNL     1       2.938  -4.942   6.670  0.00  0.00    +0.000 C 
ATOM     17  N   UNL     1       2.410  -3.653   7.150  0.00  0.00    +0.000 NA
ATOM     18  C   UNL     1       3.422  -2.951   7.962  0.00  0.00    +0.000 C 
BRANCH  17  19
ATOM     19  C   UNL     1       1.171  -3.839   7.950  0.00  0.00    +0.000 C 
BRANCH  19  20
ATOM     20  C   UNL     1      -0.041  -4.459   7.235  0.00  0.00    +0.000 C 
ATOM     21  F   UNL     1       0.193  -5.756   6.911  0.00  0.00    +0.000 F 
ATOM     22  F   UNL     1      -1.096  -4.479   8.095  0.00  0.00    +0.000 F 
ENDBRANCH  19  20
ENDBRANCH  17  19
ENDBRANCH  12  13
ENDBRANCH   1  12
TORSDOF 7
