REMARK  Name = 
REMARK  6 active torsions:
REMARK  status: ('A' for Active; 'I' for Inactive)
REMARK    1  A    between atoms: C_1  and  N_2
REMARK    2  A    between atoms: C_8  and  C_9
REMARK    3  A    between atoms: C_9  and  C_10
REMARK    4  A    between atoms: C_10  and  N_11
REMARK    5  A    between atoms: N_11  and  C_12
REMARK    6  A    between atoms: C_15  and  C_16
REMARK                            x       y       z     vdW  Elec       q    Type
REMARK                         _______ _______ _______ _____ _____    ______ ____
ROOT
ATOM      1  C   UNL     1       2.047  -1.194  -1.109  0.00  0.00    +0.000 C 
ATOM      2  N   UNL     1       0.916  -0.338  -0.763  0.00  0.00    +0.000 NA
ATOM      3  C   UNL     1      -0.292  -0.728  -1.539  0.00  0.00    +0.000 C 
ATOM      4  C   UNL     1      -1.565   0.061  -1.129  0.00  0.00    +0.000 C 
ATOM      5  N   UNL     1      -1.750  -0.133   0.310  0.00  0.00    +0.000 N 
ATOM      6  C   UNL     1      -3.018  -0.035   0.847  0.00  0.00    +0.000 A 
ATOM      7  C   UNL     1      -3.263  -0.649   2.078  0.00  0.00    +0.000 A 
ATOM      8  C   UNL     1      -4.539  -0.654   2.644  0.00  0.00    +0.000 A 
ATOM      9  C   UNL     1      -5.553  -0.021   1.929  0.00  0.00    +0.000 A 
ATOM     10  C   UNL     1      -5.243   0.561   0.710  0.00  0.00    +0.000 A 
ATOM     11  N   UNL     1      -4.011   0.556   0.156  0.00  0.00    +0.000 NA
ATOM     12  C   UNL     1      -0.621   0.366   1.102  0.00  0.00    +0.000 C 
ATOM     13  C   UNL     1       0.635  -0.430   0.690  0.00  0.00    +0.000 C 
ENDROOT
BRANCH   8  14
ATOM     14  C   UNL     1      -4.723  -1.357   3.970  0.00  0.00    +0.000 C 
BRANCH  14  15
ATOM     15  C   UNL     1      -6.151  -1.319   4.509  0.00  0.00    +0.000 C 
BRANCH  15  16
ATOM     16  N   UNL     1      -6.262  -1.973   5.812  0.00  0.00    +0.000 N 
ATOM     17  H   UNL     1      -5.555  -1.655   6.472  0.00  0.00    +0.000 HD
BRANCH  16  18
ATOM     18  C   UNL     1      -7.544  -1.975   6.393  0.00  0.00    +0.000 A 
ATOM     19  C   UNL     1      -8.722  -2.016   5.637  0.00  0.00    +0.000 A 
ATOM     20  C   UNL     1      -9.977  -2.096   6.246  0.00  0.00    +0.000 A 
ATOM     21  C   UNL     1     -10.074  -2.162   7.634  0.00  0.00    +0.000 A 
ATOM     22  C   UNL     1      -8.911  -2.145   8.405  0.00  0.00    +0.000 A 
ATOM     23  C   UNL     1      -7.658  -2.067   7.786  0.00  0.00    +0.000 A 
BRANCH  21  24
ATOM     24  C   UNL     1     -11.358  -2.273   8.257  0.00  0.00    +0.000 C 
ATOM     25  N   UNL     1     -12.400  -2.366   8.754  0.00  0.00    +0.000 NA
ENDBRANCH  21  24
ENDBRANCH  16  18
ENDBRANCH  15  16
ENDBRANCH  14  15
ENDBRANCH   8  14
TORSDOF 5
