REMARK  Name = 
REMARK  5 active torsions:
REMARK  status: ('A' for Active; 'I' for Inactive)
REMARK    1  A    between atoms: C_2  and  C_5
REMARK    2  A    between atoms: C_9  and  N_10
REMARK    3  A    between atoms: N_10  and  C_11
REMARK    4  A    between atoms: C_11  and  C_12
REMARK    5  A    between atoms: C_17  and  N_18
REMARK                            x       y       z     vdW  Elec       q    Type
REMARK                         _______ _______ _______ _____ _____    ______ ____
ROOT
ATOM      1  C   UNL     1       2.711  -5.883  -1.551  0.00  0.00    +0.000 C 
ENDROOT
BRANCH   1   2
ATOM      2  C   UNL     1       2.147  -7.063  -0.783  0.00  0.00    +0.000 A 
ATOM      3  C   UNL     1       2.508  -8.378  -1.162  0.00  0.00    +0.000 A 
ATOM      4  C   UNL     1       2.087  -9.474  -0.429  0.00  0.00    +0.000 A 
ATOM      5  C   UNL     1       1.303  -9.231   0.669  0.00  0.00    +0.000 A 
ATOM      6  N   UNL     1       0.905  -7.997   1.042  0.00  0.00    +0.000 NA
ATOM      7  C   UNL     1       1.287  -6.905   0.327  0.00  0.00    +0.000 A 
BRANCH   7   8
ATOM      8  N   UNL     1       0.756  -5.707   0.776  0.00  0.00    +0.000 N 
ATOM      9  C   UNL     1       0.536  -5.552   2.221  0.00  0.00    +0.000 C 
ATOM     10  C   UNL     1      -0.853  -4.976   2.513  0.00  0.00    +0.000 C 
ATOM     11  C   UNL     1      -1.092  -3.692   1.732  0.00  0.00    +0.000 C 
ATOM     12  C   UNL     1      -0.922  -3.962   0.250  0.00  0.00    +0.000 C 
ATOM     13  C   UNL     1       0.441  -4.566  -0.072  0.00  0.00    +0.000 C 
ENDBRANCH   7   8
ENDBRANCH   1   2
BRANCH   1  14
ATOM     14  N   UNL     1       3.702  -6.226  -2.555  0.00  0.00    +0.000 N 
ATOM     15  H   UNL     1       4.448  -6.860  -2.280  0.00  0.00    +0.000 HD
BRANCH  14  20
ATOM     16  C   UNL     1       5.908  -4.886  -4.990  0.00  0.00    +0.000 A 
ATOM     17  C   UNL     1       5.322  -3.683  -5.375  0.00  0.00    +0.000 A 
ATOM     18  C   UNL     1       4.136  -3.297  -4.764  0.00  0.00    +0.000 A 
ATOM     19  C   UNL     1       3.563  -4.126  -3.803  0.00  0.00    +0.000 A 
ATOM     20  C   UNL     1       4.201  -5.307  -3.445  0.00  0.00    +0.000 A 
ATOM     21  N   UNL     1       5.358  -5.677  -4.024  0.00  0.00    +0.000 NA
BRANCH  16  23
ATOM     22  F   UNL     1       7.661  -4.482  -6.598  0.00  0.00    +0.000 F 
ATOM     23  C   UNL     1       7.180  -5.364  -5.672  0.00  0.00    +0.000 C 
ATOM     24  F   UNL     1       7.018  -6.539  -6.346  0.00  0.00    +0.000 F 
ATOM     25  F   UNL     1       8.211  -5.568  -4.801  0.00  0.00    +0.000 F 
ENDBRANCH  16  23
ENDBRANCH  14  20
ENDBRANCH   1  14
TORSDOF 5
