REMARK  Name = 
REMARK  6 active torsions:
REMARK  status: ('A' for Active; 'I' for Inactive)
REMARK    1  A    between atoms: N_1  and  C_2
REMARK    2  A    between atoms: C_2  and  C_3
REMARK    3  A    between atoms: C_6  and  O_7
REMARK    4  A    between atoms: O_7  and  C_8
REMARK    5  A    between atoms: C_8  and  C_9
REMARK    6  A    between atoms: C_12  and  C_13
REMARK                            x       y       z     vdW  Elec       q    Type
REMARK                         _______ _______ _______ _____ _____    ______ ____
ROOT
ATOM      1  O   UNL     1       4.374   5.412   0.320  0.00  0.00    +0.000 OA
ENDROOT
BRANCH   1   5
ATOM      2  C   UNL     1       2.948   1.487   0.030  0.00  0.00    +0.000 A 
ATOM      3  C   UNL     1       2.165   2.535  -0.473  0.00  0.00    +0.000 A 
ATOM      4  C   UNL     1       2.602   3.862  -0.396  0.00  0.00    +0.000 A 
ATOM      5  C   UNL     1       3.833   4.163   0.183  0.00  0.00    +0.000 A 
ATOM      6  C   UNL     1       4.621   3.123   0.684  0.00  0.00    +0.000 A 
ATOM      7  C   UNL     1       4.185   1.796   0.609  0.00  0.00    +0.000 A 
BRANCH   2   8
ATOM      8  C   UNL     1       2.452   0.064  -0.019  0.00  0.00    +0.000 C 
BRANCH   8   9
ATOM      9  N   UNL     1       2.253  -0.401  -1.386  0.00  0.00    +0.000 NA
ATOM     10  H   UNL     1       1.908  -1.358  -1.363  0.00  0.00    +0.000 HD
ATOM     11  H   UNL     1       3.157  -0.434  -1.856  0.00  0.00    +0.000 HD
ENDBRANCH   8   9
ENDBRANCH   2   8
ENDBRANCH   1   5
BRANCH   1  12
ATOM     12  C   UNL     1       3.586   6.508  -0.154  0.00  0.00    +0.000 C 
BRANCH  12  13
ATOM     13  C   UNL     1       4.285   7.829   0.093  0.00  0.00    +0.000 A 
ATOM     14  C   UNL     1       5.128   8.003   1.188  0.00  0.00    +0.000 A 
ATOM     15  C   UNL     1       5.715   9.248   1.399  0.00  0.00    +0.000 A 
ATOM     16  C   UNL     1       5.441  10.300   0.521  0.00  0.00    +0.000 A 
ATOM     17  C   UNL     1       4.579  10.048  -0.531  0.00  0.00    +0.000 A 
ATOM     18  N   UNL     1       3.995   8.847  -0.759  0.00  0.00    +0.000 NA
BRANCH  16  19
ATOM     19  C   UNL     1       6.039  11.662   0.687  0.00  0.00    +0.000 C 
ATOM     20  F   UNL     1       6.866  11.766   1.766  0.00  0.00    +0.000 F 
ATOM     21  F   UNL     1       6.784  12.041  -0.388  0.00  0.00    +0.000 F 
ATOM     22  F   UNL     1       5.097  12.631   0.848  0.00  0.00    +0.000 F 
ENDBRANCH  16  19
ENDBRANCH  12  13
ENDBRANCH   1  12
TORSDOF 6
