REMARK  Name = 
REMARK  4 active torsions:
REMARK  status: ('A' for Active; 'I' for Inactive)
REMARK    1  A    between atoms: C_2  and  C_3
REMARK    2  A    between atoms: C_7  and  C_8
REMARK    3  A    between atoms: C_8  and  C_9
REMARK    4  A    between atoms: C_13  and  C_14
REMARK                            x       y       z     vdW  Elec       q    Type
REMARK                         _______ _______ _______ _____ _____    ______ ____
ROOT
ATOM      1  C   UNL     1      -3.563   1.530   0.649  0.00  0.00    +0.000 A 
ATOM      2  C   UNL     1      -4.360   0.697  -0.137  0.00  0.00    +0.000 A 
ATOM      3  C   UNL     1      -5.029  -0.353   0.468  0.00  0.00    +0.000 A 
ATOM      4  C   UNL     1      -4.973  -0.480   1.850  0.00  0.00    +0.000 A 
ATOM      5  C   UNL     1      -4.327   0.504   2.596  0.00  0.00    +0.000 A 
ATOM      6  N   UNL     1      -3.622   1.496   2.002  0.00  0.00    +0.000 NA
ENDROOT
BRANCH   5   7
ATOM      7  C   UNL     1      -4.372   0.549   4.067  0.00  0.00    +0.000 A 
ATOM      8  C   UNL     1      -4.344  -0.616   4.852  0.00  0.00    +0.000 A 
ATOM      9  C   UNL     1      -4.459  -0.551   6.244  0.00  0.00    +0.000 A 
ATOM     10  C   UNL     1      -4.594   0.682   6.878  0.00  0.00    +0.000 A 
ATOM     11  C   UNL     1      -4.598   1.852   6.125  0.00  0.00    +0.000 A 
ATOM     12  C   UNL     1      -4.483   1.783   4.735  0.00  0.00    +0.000 A 
ENDBRANCH   5   7
BRANCH   1  13
ATOM     13  C   UNL     1      -2.398   2.269  -0.009  0.00  0.00    +0.000 C 
ATOM     14  C   UNL     1      -0.997   2.135   0.591  0.00  0.00    +0.000 C 
ATOM     15  C   UNL     1      -1.367   1.283  -0.576  0.00  0.00    +0.000 C 
BRANCH  13  20
ATOM     16  C   UNL     1      -2.917   5.123  -2.545  0.00  0.00    +0.000 A 
ATOM     17  C   UNL     1      -3.454   6.072  -1.688  0.00  0.00    +0.000 A 
ATOM     18  N   UNL     1      -3.606   5.880  -0.362  0.00  0.00    +0.000 NA
ATOM     19  C   UNL     1      -3.226   4.666   0.118  0.00  0.00    +0.000 A 
ATOM     20  C   UNL     1      -2.716   3.611  -0.651  0.00  0.00    +0.000 A 
ATOM     21  C   UNL     1      -2.549   3.881  -2.013  0.00  0.00    +0.000 A 
BRANCH  16  23
ATOM     22  N   UNL     1      -2.632   5.632  -5.069  0.00  0.00    +0.000 NA
ATOM     23  C   UNL     1      -2.759   5.406  -3.934  0.00  0.00    +0.000 C 
ENDBRANCH  16  23
ENDBRANCH  13  20
ENDBRANCH   1  13
TORSDOF 4
