REMARK  Name = 
REMARK  10 active torsions:
REMARK  status: ('A' for Active; 'I' for Inactive)
REMARK    1  A    between atoms: C_2  and  C_3
REMARK    2  A    between atoms: C_3  and  C_4
REMARK    3  A    between atoms: C_4  and  N_5
REMARK    4  A    between atoms: C_4  and  C_22
REMARK    5  A    between atoms: C_6  and  C_8
REMARK    6  A    between atoms: N_14  and  C_15
REMARK    7  A    between atoms: C_15  and  C_16
REMARK    8  A    between atoms: C_16  and  O_18
REMARK    9  A    between atoms: C_25  and  O_26
REMARK   10  A    between atoms: O_26  and  C_27
REMARK                            x       y       z     vdW  Elec       q    Type
REMARK                         _______ _______ _______ _____ _____    ______ ____
ROOT
ATOM      1  N   UNL     1       3.910   0.118   0.119  0.00  0.00    +0.000 N 
ATOM      2  C   UNL     1       2.627  -0.358   0.246  0.00  0.00    +0.000 C 
ATOM      3  O   UNL     1       1.635   0.349   0.109  0.00  0.00    +0.000 OA
ATOM      4  H   UNL     1       4.636  -0.577  -0.018  0.00  0.00    +0.000 HD
ENDROOT
BRANCH   2   5
ATOM      5  C   UNL     1       2.512  -1.774   0.612  0.00  0.00    +0.000 A 
ATOM      6  C   UNL     1       1.474  -2.229   1.410  0.00  0.00    +0.000 A 
ATOM      7  S   UNL     1       1.557  -3.906   1.733  0.00  0.00    +0.000 S 
ATOM      8  C   UNL     1       2.938  -4.086   0.755  0.00  0.00    +0.000 A 
ATOM      9  N   UNL     1       3.516  -5.298   0.552  0.00  0.00    +0.000 NA
ATOM     10  C   UNL     1       4.528  -5.289  -0.253  0.00  0.00    +0.000 A 
ATOM     11  N   UNL     1       5.021  -4.170  -0.898  0.00  0.00    +0.000 N 
ATOM     12  C   UNL     1       4.484  -2.911  -0.672  0.00  0.00    +0.000 A 
ATOM     13  O   UNL     1       4.926  -1.901  -1.210  0.00  0.00    +0.000 OA
ATOM     14  C   UNL     1       3.343  -2.883   0.217  0.00  0.00    +0.000 A 
BRANCH  11  15
ATOM     15  C   UNL     1       6.201  -4.253  -1.751  0.00  0.00    +0.000 C 
BRANCH  15  16
ATOM     16  C   UNL     1       5.884  -4.331  -3.240  0.00  0.00    +0.000 C 
ATOM     17  O   UNL     1       6.760  -4.381  -4.094  0.00  0.00    +0.000 OA
BRANCH  16  18
ATOM     18  O   UNL     1       4.575  -4.384  -3.567  0.00  0.00    +0.000 OA
ATOM     19  H   UNL     1       3.952  -4.320  -2.821  0.00  0.00    +0.000 HD
ENDBRANCH  16  18
ENDBRANCH  15  16
ENDBRANCH  11  15
ENDBRANCH   2   5
BRANCH   1  20
ATOM     20  C   UNL     1       4.246   1.435  -0.431  0.00  0.00    +0.000 C 
BRANCH  20  21
ATOM     21  C   UNL     1       5.771   1.471  -0.601  0.00  0.00    +0.000 A 
ATOM     22  C   UNL     1       6.330   0.982  -1.793  0.00  0.00    +0.000 A 
ATOM     23  C   UNL     1       7.714   0.854  -1.946  0.00  0.00    +0.000 A 
ATOM     24  C   UNL     1       8.583   1.263  -0.932  0.00  0.00    +0.000 A 
ATOM     25  C   UNL     1       8.042   1.762   0.254  0.00  0.00    +0.000 A 
ATOM     26  C   UNL     1       6.651   1.856   0.423  0.00  0.00    +0.000 A 
BRANCH  24  27
ATOM     27  O   UNL     1       9.957   1.133  -0.971  0.00  0.00    +0.000 OA
BRANCH  27  28
ATOM     28  C   UNL     1      10.588   1.102  -2.209  0.00  0.00    +0.000 A 
ATOM     29  C   UNL     1      11.706   0.288  -2.334  0.00  0.00    +0.000 A 
ATOM     30  C   UNL     1      12.309   0.189  -3.586  0.00  0.00    +0.000 A 
ATOM     31  C   UNL     1      11.786   0.910  -4.655  0.00  0.00    +0.000 A 
ATOM     32  C   UNL     1      10.699   1.734  -4.420  0.00  0.00    +0.000 A 
ATOM     33  N   UNL     1      10.103   1.860  -3.218  0.00  0.00    +0.000 NA
ENDBRANCH  27  28
ENDBRANCH  24  27
ENDBRANCH  20  21
BRANCH  20  34
ATOM     34  C   UNL     1       3.659   2.585   0.406  0.00  0.00    +0.000 C 
BRANCH  34  36
ATOM     35  N   UNL     1       4.098   4.929  -0.693  0.00  0.00    +0.000 NA
ATOM     36  C   UNL     1       3.911   3.890  -0.214  0.00  0.00    +0.000 C 
ENDBRANCH  34  36
ENDBRANCH  20  34
ENDBRANCH   1  20
TORSDOF 10
