REMARK  Name = 
REMARK  9 active torsions:
REMARK  status: ('A' for Active; 'I' for Inactive)
REMARK    1  A    between atoms: C_1  and  O_2
REMARK    2  A    between atoms: O_2  and  C_3
REMARK    3  A    between atoms: C_10  and  C_11
REMARK    4  A    between atoms: N_13  and  C_14
REMARK    5  A    between atoms: C_14  and  C_15
REMARK    6  A    between atoms: C_18  and  C_19
REMARK    7  A    between atoms: C_19  and  S_20
REMARK    8  A    between atoms: S_20  and  C_21
REMARK    9  A    between atoms: C_21  and  C_22
REMARK                            x       y       z     vdW  Elec       q    Type
REMARK                         _______ _______ _______ _____ _____    ______ ____
ROOT
ATOM      1  C   UNL     1       2.598   3.141  -1.060  0.00  0.00    +0.000 C 
ENDROOT
BRANCH   1   2
ATOM      2  C   UNL     1       1.375   2.613  -1.771  0.00  0.00    +0.000 A 
ATOM      3  C   UNL     1       1.327   1.287  -2.219  0.00  0.00    +0.000 A 
ATOM      4  C   UNL     1       0.159   0.765  -2.789  0.00  0.00    +0.000 A 
ATOM      5  C   UNL     1      -0.995   1.553  -2.922  0.00  0.00    +0.000 A 
ATOM      6  C   UNL     1      -0.915   2.904  -2.551  0.00  0.00    +0.000 A 
ATOM      7  C   UNL     1       0.257   3.428  -1.987  0.00  0.00    +0.000 A 
BRANCH   5   8
ATOM      8  C   UNL     1      -2.288   0.966  -3.453  0.00  0.00    +0.000 C 
BRANCH   8   9
ATOM      9  S   UNL     1      -2.894  -0.424  -2.424  0.00  0.00    +0.000 S 
BRANCH   9  10
ATOM     10  C   UNL     1      -4.421  -0.829  -3.328  0.00  0.00    +0.000 C 
BRANCH  10  11
ATOM     11  C   UNL     1      -5.162  -1.989  -2.702  0.00  0.00    +0.000 A 
ATOM     12  C   UNL     1      -6.137  -1.769  -1.713  0.00  0.00    +0.000 A 
ATOM     13  C   UNL     1      -6.842  -2.840  -1.148  0.00  0.00    +0.000 A 
ATOM     14  C   UNL     1      -6.577  -4.144  -1.561  0.00  0.00    +0.000 A 
ATOM     15  C   UNL     1      -5.602  -4.366  -2.524  0.00  0.00    +0.000 A 
ATOM     16  F   UNL     1      -5.343  -5.621  -2.918  0.00  0.00    +0.000 F 
ATOM     17  C   UNL     1      -4.893  -3.310  -3.093  0.00  0.00    +0.000 A 
ENDBRANCH  10  11
ENDBRANCH   9  10
ENDBRANCH   8   9
ENDBRANCH   5   8
ENDBRANCH   1   2
BRANCH   1  20
ATOM     18  C   UNL     1       4.752   4.226  -1.555  0.00  0.00    +0.000 C 
ATOM     19  O   UNL     1       5.078   4.190  -0.370  0.00  0.00    +0.000 OA
ATOM     20  N   UNL     1       3.542   3.735  -1.972  0.00  0.00    +0.000 N 
ATOM     21  H   UNL     1       3.271   3.803  -2.942  0.00  0.00    +0.000 HD
BRANCH  18  29
ATOM     22  C   UNL     1       4.528   4.542  -4.971  0.00  0.00    +0.000 A 
ATOM     23  N   UNL     1       4.682   4.813  -6.282  0.00  0.00    +0.000 NA
ATOM     24  C   UNL     1       5.799   5.438  -6.664  0.00  0.00    +0.000 A 
ATOM     25  N   UNL     1       6.804   5.832  -5.888  0.00  0.00    +0.000 NA
ATOM     26  C   UNL     1       6.604   5.555  -4.590  0.00  0.00    +0.000 A 
ATOM     27  S   UNL     1       7.786   5.981  -3.447  0.00  0.00    +0.000 S 
ATOM     28  C   UNL     1       6.855   5.349  -2.171  0.00  0.00    +0.000 A 
ATOM     29  C   UNL     1       5.641   4.805  -2.577  0.00  0.00    +0.000 A 
ATOM     30  C   UNL     1       5.499   4.923  -4.027  0.00  0.00    +0.000 A 
BRANCH  22  32
ATOM     31  C   UNL     1       2.766   3.135  -5.601  0.00  0.00    +0.000 C 
ATOM     32  O   UNL     1       3.371   3.910  -4.571  0.00  0.00    +0.000 OA
ENDBRANCH  22  32
ENDBRANCH  18  29
ENDBRANCH   1  20
TORSDOF 8
