REMARK  Name = 
REMARK  7 active torsions:
REMARK  status: ('A' for Active; 'I' for Inactive)
REMARK    1  A    between atoms: N_1  and  C_2
REMARK    2  A    between atoms: C_2  and  C_3
REMARK    3  A    between atoms: C_2  and  C_24
REMARK    4  A    between atoms: C_3  and  C_4
REMARK    5  A    between atoms: C_7  and  C_8
REMARK    6  A    between atoms: C_8  and  N_9
REMARK    7  A    between atoms: C_10  and  C_12
REMARK                            x       y       z     vdW  Elec       q    Type
REMARK                         _______ _______ _______ _____ _____    ______ ____
ROOT
ATOM      1  C   UNL     1       0.528  -0.573   1.369  0.00  0.00    +0.000 A 
ATOM      2  C   UNL     1       1.324  -0.935   2.456  0.00  0.00    +0.000 A 
ATOM      3  C   UNL     1       0.745  -1.488   3.599  0.00  0.00    +0.000 A 
ATOM      4  C   UNL     1      -0.636  -1.643   3.650  0.00  0.00    +0.000 A 
ATOM      5  N   UNL     1      -1.438  -1.310   2.609  0.00  0.00    +0.000 NA
ATOM      6  C   UNL     1      -0.842  -0.789   1.508  0.00  0.00    +0.000 A 
ENDROOT
BRANCH   1   7
ATOM      7  C   UNL     1       1.053   0.092   0.113  0.00  0.00    +0.000 C 
BRANCH   7   8
ATOM      8  C   UNL     1       2.558  -0.074  -0.230  0.00  0.00    +0.000 C 
BRANCH   8   9
ATOM      9  C   UNL     1       2.961   0.683  -1.489  0.00  0.00    +0.000 A 
ATOM     10  C   UNL     1       3.984   1.644  -1.430  0.00  0.00    +0.000 A 
ATOM     11  C   UNL     1       4.429   2.287  -2.587  0.00  0.00    +0.000 A 
ATOM     12  C   UNL     1       3.862   1.977  -3.821  0.00  0.00    +0.000 A 
ATOM     13  C   UNL     1       2.840   1.034  -3.898  0.00  0.00    +0.000 A 
ATOM     14  C   UNL     1       2.389   0.394  -2.741  0.00  0.00    +0.000 A 
ENDBRANCH   8   9
BRANCH   8  15
ATOM     15  N   UNL     1       2.963  -1.480  -0.362  0.00  0.00    +0.000 NA
ATOM     16  H   UNL     1       3.964  -1.508  -0.559  0.00  0.00    +0.000 HD
ATOM     17  H   UNL     1       2.514  -1.885  -1.181  0.00  0.00    +0.000 HD
ENDBRANCH   8  15
ENDBRANCH   7   8
ENDBRANCH   1   7
BRANCH   4  18
ATOM     18  C   UNL     1      -1.295  -2.177   4.900  0.00  0.00    +0.000 C 
BRANCH  18  19
ATOM     19  N   UNL     1      -1.413  -3.618   4.905  0.00  0.00    +0.000 N 
ATOM     20  C   UNL     1      -0.527  -4.425   5.569  0.00  0.00    +0.000 C 
ATOM     21  O   UNL     1       0.434  -3.966   6.180  0.00  0.00    +0.000 OA
ATOM     22  H   UNL     1      -2.081  -4.014   4.251  0.00  0.00    +0.000 HD
BRANCH  20  23
ATOM     23  C   UNL     1      -0.815  -5.867   5.574  0.00  0.00    +0.000 A 
ATOM     24  C   UNL     1      -0.232  -6.672   6.546  0.00  0.00    +0.000 A 
ATOM     25  S   UNL     1      -0.679  -8.313   6.442  0.00  0.00    +0.000 S 
ATOM     26  C   UNL     1      -1.642  -8.017   5.070  0.00  0.00    +0.000 A 
ATOM     27  N   UNL     1      -2.301  -9.033   4.451  0.00  0.00    +0.000 NA
ATOM     28  C   UNL     1      -2.966  -8.675   3.404  0.00  0.00    +0.000 A 
ATOM     29  N   UNL     1      -3.042  -7.392   2.928  0.00  0.00    +0.000 N 
ATOM     30  C   UNL     1      -2.443  -6.325   3.555  0.00  0.00    +0.000 A 
ATOM     31  O   UNL     1      -2.615  -5.178   3.162  0.00  0.00    +0.000 OA
ATOM     32  C   UNL     1      -1.643  -6.679   4.715  0.00  0.00    +0.000 A 
ATOM     33  H   UNL     1      -3.602  -7.172   2.118  0.00  0.00    +0.000 HD
ENDBRANCH  20  23
ENDBRANCH  18  19
ENDBRANCH   4  18
TORSDOF 7
