REMARK  Name = 
REMARK  7 active torsions:
REMARK  status: ('A' for Active; 'I' for Inactive)
REMARK    1  A    between atoms: N_1  and  CA_2
REMARK    2  A    between atoms: CA_2  and  C_3
REMARK    3  A    between atoms: CA_2  and  C_5
REMARK    4  A    between atoms: C_3  and  O_4
REMARK    5  A    between atoms: C_8  and  O_9
REMARK    6  A    between atoms: O_9  and  C_10
REMARK    7  A    between atoms: C_10  and  C_11
REMARK                            x       y       z     vdW  Elec       q    Type
REMARK                         _______ _______ _______ _____ _____    ______ ____
ROOT
ATOM      1  C   UNL     1       2.854   1.245  -0.772  0.00  0.00    +0.000 A 
ATOM      2  C   UNL     1       2.303   2.504  -0.495  0.00  0.00    +0.000 A 
ATOM      3  C   UNL     1       2.738   3.638  -1.194  0.00  0.00    +0.000 A 
ATOM      4  C   UNL     1       3.735   3.536  -2.163  0.00  0.00    +0.000 A 
ATOM      5  C   UNL     1       4.261   2.280  -2.468  0.00  0.00    +0.000 A 
ATOM      6  C   UNL     1       3.835   1.156  -1.767  0.00  0.00    +0.000 A 
ENDROOT
BRANCH   1   7
ATOM      7  CA  UNL     1       2.394   0.010  -0.011  0.00  0.00    +0.000 C 
BRANCH   7   8
ATOM      8  N   UNL     1       3.502  -0.557   0.781  0.00  0.00    +0.000 NA
ATOM      9  H1  UNL     1       3.783   0.144   1.467  0.00  0.00    +0.000 HD
ATOM     10  H2  UNL     1       4.320  -0.672   0.185  0.00  0.00    +0.000 HD
ENDBRANCH   7   8
BRANCH   7  11
ATOM     11  C   UNL     1       1.757  -1.068  -0.928  0.00  0.00    +0.000 C 
BRANCH  11  12
ATOM     12  O   UNL     1       2.689  -1.651  -1.840  0.00  0.00    +0.000 OA
ATOM     13  H   UNL     1       3.425  -1.974  -1.290  0.00  0.00    +0.000 HD
ENDBRANCH  11  12
ENDBRANCH   7  11
ENDBRANCH   1   7
BRANCH   4  14
ATOM     14  O   UNL     1       4.134   4.706  -2.753  0.00  0.00    +0.000 OA
BRANCH  14  15
ATOM     15  C   UNL     1       5.428   4.650  -3.357  0.00  0.00    +0.000 C 
BRANCH  15  16
ATOM     16  C   UNL     1       6.017   6.023  -3.558  0.00  0.00    +0.000 A 
ATOM     17  C   UNL     1       5.636   7.116  -2.780  0.00  0.00    +0.000 A 
ATOM     18  C   UNL     1       6.294   8.321  -2.965  0.00  0.00    +0.000 A 
ATOM     19  N   UNL     1       7.298   8.505  -3.849  0.00  0.00    +0.000 NA
ATOM     20  C   UNL     1       7.655   7.435  -4.586  0.00  0.00    +0.000 A 
ATOM     21  C   UNL     1       7.058   6.190  -4.480  0.00  0.00    +0.000 A 
ENDBRANCH  15  16
ENDBRANCH  14  15
ENDBRANCH   4  14
TORSDOF 7
