REMARK  Name = 
REMARK  4 active torsions:
REMARK  status: ('A' for Active; 'I' for Inactive)
REMARK    1  A    between atoms: C_3  and  O_4
REMARK    2  A    between atoms: O_4  and  C_5
REMARK    3  A    between atoms: C_5  and  C_6
REMARK    4  A    between atoms: C_13  and  C_14
REMARK                            x       y       z     vdW  Elec       q    Type
REMARK                         _______ _______ _______ _____ _____    ______ ____
ROOT
ATOM      1  C   UNL     1       1.415  -0.210  -0.018  0.00  0.00    +0.000 A 
ATOM      2  C   UNL     1       0.548  -1.297  -0.112  0.00  0.00    +0.000 A 
ATOM      3  C   UNL     1      -0.827  -1.092  -0.092  0.00  0.00    +0.000 A 
ATOM      4  C   UNL     1      -1.323   0.201   0.095  0.00  0.00    +0.000 A 
ATOM      5  C   UNL     1      -0.476   1.317   0.221  0.00  0.00    +0.000 A 
ATOM      6  C   UNL     1       0.906   1.088   0.133  0.00  0.00    +0.000 A 
ENDROOT
BRANCH   5   7
ATOM      7  C   UNL     1      -1.048   2.652   0.455  0.00  0.00    +0.000 A 
ATOM      8  C   UNL     1      -2.194   2.852   1.219  0.00  0.00    +0.000 A 
ATOM      9  N   UNL     1      -2.774   4.050   1.461  0.00  0.00    +0.000 NA
ATOM     10  C   UNL     1      -2.165   5.101   0.902  0.00  0.00    +0.000 A 
ATOM     11  N   UNL     1      -1.058   5.059   0.150  0.00  0.00    +0.000 NA
ATOM     12  C   UNL     1      -0.529   3.829  -0.056  0.00  0.00    +0.000 A 
ENDBRANCH   5   7
BRANCH   3  13
ATOM     13  O   UNL     1      -1.610  -2.205  -0.260  0.00  0.00    +0.000 OA
BRANCH  13  14
ATOM     14  C   UNL     1      -2.940  -1.935  -0.710  0.00  0.00    +0.000 C 
BRANCH  14  15
ATOM     15  C   UNL     1      -3.566  -3.164  -1.311  0.00  0.00    +0.000 A 
ATOM     16  C   UNL     1      -3.373  -4.433  -0.760  0.00  0.00    +0.000 A 
ATOM     17  C   UNL     1      -4.005  -5.513  -1.354  0.00  0.00    +0.000 A 
ATOM     18  N   UNL     1      -4.813  -5.415  -2.432  0.00  0.00    +0.000 NA
ATOM     19  C   UNL     1      -5.000  -4.179  -2.940  0.00  0.00    +0.000 A 
ATOM     20  C   UNL     1      -4.414  -3.039  -2.418  0.00  0.00    +0.000 A 
ENDBRANCH  14  15
ENDBRANCH  13  14
ENDBRANCH   3  13
TORSDOF 4
