REMARK  Name = 
REMARK  8 active torsions:
REMARK  status: ('A' for Active; 'I' for Inactive)
REMARK    1  A    between atoms: C_2  and  C_4
REMARK    2  A    between atoms: C_7  and  O_8
REMARK    3  A    between atoms: O_8  and  C_9
REMARK    4  A    between atoms: C_9  and  C_10
REMARK    5  A    between atoms: C_10  and  C_13
REMARK    6  A    between atoms: C_15  and  C_16
REMARK    7  A    between atoms: CA_19  and  C_20
REMARK    8  A    between atoms: C_20  and  OXT_22
REMARK                            x       y       z     vdW  Elec       q    Type
REMARK                         _______ _______ _______ _____ _____    ______ ____
ROOT
ATOM      1  C   UNL     1       6.105   3.408   6.198  0.00  0.00    +0.000 C 
ATOM      2  F   UNL     1       5.269   2.690   5.386  0.00  0.00    +0.000 F 
ATOM      3  F   UNL     1       7.338   2.838   6.035  0.00  0.00    +0.000 F 
ENDROOT
BRANCH   1   4
ATOM      4  C   UNL     1       5.652   3.342   7.661  0.00  0.00    +0.000 A 
ATOM      5  C   UNL     1       5.537   2.098   8.290  0.00  0.00    +0.000 A 
ATOM      6  C   UNL     1       5.119   2.013   9.633  0.00  0.00    +0.000 A 
ATOM      7  C   UNL     1       4.841   3.223  10.285  0.00  0.00    +0.000 A 
ATOM      8  C   UNL     1       4.976   4.417   9.601  0.00  0.00    +0.000 A 
ATOM      9  N   UNL     1       5.370   4.498   8.316  0.00  0.00    +0.000 NA
BRANCH   6  10
ATOM     10  C   UNL     1       4.964   0.710  10.325  0.00  0.00    +0.000 A 
ATOM     11  C   UNL     1       3.999   0.503  11.324  0.00  0.00    +0.000 A 
ATOM     12  C   UNL     1       3.859  -0.742  11.940  0.00  0.00    +0.000 A 
ATOM     13  CA  UNL     1       4.693  -1.772  11.536  0.00  0.00    +0.000 A 
ATOM     14  N   UNL     1       5.658  -1.639  10.585  0.00  0.00    +0.000 NA
ATOM     15  C   UNL     1       5.762  -0.404  10.021  0.00  0.00    +0.000 A 
BRANCH  13  16
ATOM     16  C   UNL     1       4.550  -3.129  12.138  0.00  0.00    +0.000 C 
ATOM     17  O   UNL     1       3.735  -3.419  12.998  0.00  0.00    +0.000 OA
BRANCH  16  18
ATOM     18  OXT UNL     1       5.440  -4.007  11.614  0.00  0.00    +0.000 OA
ATOM     19  HXT UNL     1       5.996  -3.543  10.941  0.00  0.00    +0.000 HD
ENDBRANCH  16  18
ENDBRANCH  13  16
ENDBRANCH   6  10
ENDBRANCH   1   4
BRANCH   1  20
ATOM     20  C   UNL     1       6.155   4.858   5.699  0.00  0.00    +0.000 C 
BRANCH  20  21
ATOM     21  O   UNL     1       6.606   4.964   4.332  0.00  0.00    +0.000 OA
BRANCH  21  25
ATOM     22  C   UNL     1       6.785   8.902   3.112  0.00  0.00    +0.000 A 
ATOM     23  C   UNL     1       7.148   7.890   2.221  0.00  0.00    +0.000 A 
ATOM     24  C   UNL     1       7.084   6.556   2.637  0.00  0.00    +0.000 A 
ATOM     25  C   UNL     1       6.655   6.287   3.928  0.00  0.00    +0.000 A 
ATOM     26  N   UNL     1       6.296   7.252   4.804  0.00  0.00    +0.000 NA
ATOM     27  C   UNL     1       6.379   8.535   4.384  0.00  0.00    +0.000 A 
BRANCH  22  29
ATOM     28  N   UNL     1       6.682  10.692   1.474  0.00  0.00    +0.000 N 
ATOM     29  C   UNL     1       6.847  10.341   2.784  0.00  0.00    +0.000 C 
ATOM     30  O   UNL     1       7.004  11.187   3.653  0.00  0.00    +0.000 OA
ATOM     31  H   UNL     1       6.631  11.684   1.280  0.00  0.00    +0.000 HD
ATOM     32  H   UNL     1       6.296  10.061   0.785  0.00  0.00    +0.000 HD
ENDBRANCH  22  29
ENDBRANCH  21  25
ENDBRANCH  20  21
ENDBRANCH   1  20
TORSDOF 8
