REMARK  Name = 
REMARK  4 active torsions:
REMARK  status: ('A' for Active; 'I' for Inactive)
REMARK    1  A    between atoms: C_2  and  C_4
REMARK    2  A    between atoms: C_7  and  O_8
REMARK    3  A    between atoms: O_8  and  C_9
REMARK    4  A    between atoms: C_9  and  C_10
REMARK                            x       y       z     vdW  Elec       q    Type
REMARK                         _______ _______ _______ _____ _____    ______ ____
ROOT
ATOM      1  C   UNL     1       3.328  -2.474   1.999  0.00  0.00    +0.000 A 
ATOM      2  C   UNL     1       2.820  -3.730   1.669  0.00  0.00    +0.000 A 
ATOM      3  C   UNL     1       3.442  -4.470   0.661  0.00  0.00    +0.000 A 
ATOM      4  C   UNL     1       4.550  -3.938   0.017  0.00  0.00    +0.000 A 
ATOM      5  C   UNL     1       4.998  -2.682   0.431  0.00  0.00    +0.000 A 
ATOM      6  N   UNL     1       4.421  -1.928   1.399  0.00  0.00    +0.000 NA
ENDROOT
BRANCH   1   8
ATOM      7  N   UNL     1       3.165  -0.392   3.246  0.00  0.00    +0.000 N 
ATOM      8  C   UNL     1       2.651  -1.645   3.044  0.00  0.00    +0.000 C 
ATOM      9  O   UNL     1       1.681  -2.045   3.673  0.00  0.00    +0.000 OA
ATOM     10  H   UNL     1       2.732   0.218   3.920  0.00  0.00    +0.000 HD
ATOM     11  H   UNL     1       3.950  -0.076   2.687  0.00  0.00    +0.000 HD
ENDBRANCH   1   8
BRANCH   4  12
ATOM     12  O   UNL     1       5.257  -4.505  -1.002  0.00  0.00    +0.000 OA
BRANCH  12  13
ATOM     13  C   UNL     1       4.890  -5.790  -1.560  0.00  0.00    +0.000 C 
ATOM     14  C   UNL     1       4.902  -5.703  -3.081  0.00  0.00    +0.000 C 
ATOM     15  C   UNL     1       3.611  -5.933  -2.362  0.00  0.00    +0.000 C 
BRANCH  13  16
ATOM     16  C   UNL     1       5.558  -6.978  -0.861  0.00  0.00    +0.000 C 
ATOM     17  C   UNL     1       7.092  -6.859  -0.950  0.00  0.00    +0.000 C 
ATOM     18  C   UNL     1       7.804  -8.016  -0.254  0.00  0.00    +0.000 C 
ATOM     19  C   UNL     1       7.343  -9.364  -0.796  0.00  0.00    +0.000 C 
ATOM     20  C   UNL     1       5.832  -9.512  -0.675  0.00  0.00    +0.000 C 
ATOM     21  C   UNL     1       5.096  -8.362  -1.360  0.00  0.00    +0.000 C 
ENDBRANCH  13  16
ENDBRANCH  12  13
ENDBRANCH   4  12
TORSDOF 4
