REMARK  Name = 
REMARK  13 active torsions:
REMARK  status: ('A' for Active; 'I' for Inactive)
REMARK    1  A    between atoms: C_1  and  C_2
REMARK    2  A    between atoms: C_2  and  O_3
REMARK    3  A    between atoms: O_3  and  C_4
REMARK    4  A    between atoms: C_4  and  C_6
REMARK    5  A    between atoms: C_6  and  O_7
REMARK    6  A    between atoms: O_7  and  C_8
REMARK    7  A    between atoms: C_11  and  C_12
REMARK    8  A    between atoms: C_12  and  C_13
REMARK    9  A    between atoms: C_12  and  C_14
REMARK   10  A    between atoms: C_12  and  C_15
REMARK   11  A    between atoms: C_15  and  O_16
REMARK   12  A    between atoms: O_16  and  C_17
REMARK   13  A    between atoms: C_20  and  C_21
REMARK                            x       y       z     vdW  Elec       q    Type
REMARK                         _______ _______ _______ _____ _____    ______ ____
ROOT
ATOM      1  C   UNL     1       7.060  -0.016  -4.103  0.00  0.00    +0.000 A 
ATOM      2  C   UNL     1       8.082  -0.909  -4.322  0.00  0.00    +0.000 A 
ATOM      3  N   UNL     1       8.755  -0.986  -5.491  0.00  0.00    +0.000 NA
ATOM      4  C   UNL     1       8.398  -0.146  -6.481  0.00  0.00    +0.000 A 
ATOM      5  N   UNL     1       7.382   0.734  -6.374  0.00  0.00    +0.000 NA
ATOM      6  C   UNL     1       6.737   0.762  -5.197  0.00  0.00    +0.000 A 
ENDROOT
BRANCH   4   7
ATOM      7  C   UNL     1       9.149  -0.180  -7.807  0.00  0.00    +0.000 C 
ATOM      8  C   UNL     1       8.162  -0.558  -8.934  0.00  0.00    +0.000 C 
ATOM      9  C   UNL     1       9.740   1.210  -8.109  0.00  0.00    +0.000 C 
BRANCH   7  10
ATOM     10  C   UNL     1      10.282  -1.231  -7.767  0.00  0.00    +0.000 C 
BRANCH  10  11
ATOM     11  O   UNL     1      11.256  -0.900  -6.765  0.00  0.00    +0.000 OA
BRANCH  11  12
ATOM     12  C   UNL     1      12.304  -1.766  -6.622  0.00  0.00    +0.000 A 
ATOM     13  C   UNL     1      12.504  -2.913  -7.389  0.00  0.00    +0.000 A 
ATOM     14  C   UNL     1      13.660  -3.678  -7.222  0.00  0.00    +0.000 A 
ATOM     15  C   UNL     1      14.620  -3.305  -6.276  0.00  0.00    +0.000 A 
ATOM     16  C   UNL     1      14.407  -2.173  -5.485  0.00  0.00    +0.000 A 
ATOM     17  C   UNL     1      13.249  -1.411  -5.655  0.00  0.00    +0.000 A 
BRANCH  15  18
ATOM     18  C   UNL     1      15.825  -4.066  -6.146  0.00  0.00    +0.000 C 
ATOM     19  N   UNL     1      16.812  -4.685  -6.053  0.00  0.00    +0.000 NA
ENDBRANCH  15  18
ENDBRANCH  11  12
ENDBRANCH  10  11
ENDBRANCH   7  10
ENDBRANCH   4   7
BRANCH   1  20
ATOM     20  O   UNL     1       6.413   0.045  -2.910  0.00  0.00    +0.000 OA
BRANCH  20  21
ATOM     21  C   UNL     1       5.859   1.333  -2.600  0.00  0.00    +0.000 C 
BRANCH  21  22
ATOM     22  C   UNL     1       5.728   1.452  -1.099  0.00  0.00    +0.000 C 
ATOM     23  O   UNL     1       6.003   0.564  -0.294  0.00  0.00    +0.000 OA
BRANCH  22  24
ATOM     24  O   UNL     1       5.155   2.644  -0.766  0.00  0.00    +0.000 OA
BRANCH  24  26
ATOM     25  C   UNL     1       3.064   2.116   0.245  0.00  0.00    +0.000 C 
ATOM     26  C   UNL     1       4.472   2.626   0.495  0.00  0.00    +0.000 C 
ENDBRANCH  24  26
ENDBRANCH  22  24
ENDBRANCH  21  22
ENDBRANCH  20  21
ENDBRANCH   1  20
TORSDOF 10
