REMARK  Name = 
REMARK  8 active torsions:
REMARK  status: ('A' for Active; 'I' for Inactive)
REMARK    1  A    between atoms: C_1  and  N_2
REMARK    2  A    between atoms: N_2  and  C_3
REMARK    3  A    between atoms: C_3  and  C_4
REMARK    4  A    between atoms: C_7  and  C_8
REMARK    5  A    between atoms: C_8  and  N_9
REMARK    6  A    between atoms: N_9  and  C_10
REMARK    7  A    between atoms: C_13  and  N_14
REMARK    8  A    between atoms: C_19  and  C_21
REMARK                            x       y       z     vdW  Elec       q    Type
REMARK                         _______ _______ _______ _____ _____    ______ ____
ROOT
ATOM      1  C   UNL     1       1.960  -2.443  -0.507  0.00  0.00    +0.000 A 
ATOM      2  C   UNL     1       2.294  -3.722  -0.043  0.00  0.00    +0.000 A 
ATOM      3  C   UNL     1       1.427  -4.803  -0.250  0.00  0.00    +0.000 A 
ATOM      4  C   UNL     1       0.219  -4.618  -0.934  0.00  0.00    +0.000 A 
ATOM      5  C   UNL     1      -0.119  -3.329  -1.374  0.00  0.00    +0.000 A 
ATOM      6  C   UNL     1       0.745  -2.251  -1.165  0.00  0.00    +0.000 A 
ENDROOT
BRANCH   1   7
ATOM      7  C   UNL     1       2.889  -1.282  -0.253  0.00  0.00    +0.000 C 
BRANCH   7   9
ATOM      8  C   UNL     1       4.117  -1.789  -2.408  0.00  0.00    +0.000 C 
ATOM      9  N   UNL     1       3.861  -0.900  -1.279  0.00  0.00    +0.000 N 
ATOM     10  C   UNL     1       4.745   0.193  -1.143  0.00  0.00    +0.000 C 
ATOM     11  O   UNL     1       5.653   0.376  -1.951  0.00  0.00    +0.000 OA
BRANCH  10  12
ATOM     12  C   UNL     1       4.595   1.128  -0.006  0.00  0.00    +0.000 A 
ATOM     13  C   UNL     1       4.426   0.765   1.320  0.00  0.00    +0.000 A 
ATOM     14  S   UNL     1       4.308   2.082   2.399  0.00  0.00    +0.000 S 
ATOM     15  C   UNL     1       4.668   3.185   1.159  0.00  0.00    +0.000 A 
ATOM     16  N   UNL     1       4.840   4.502   1.438  0.00  0.00    +0.000 NA
ATOM     17  C   UNL     1       5.180   5.216   0.414  0.00  0.00    +0.000 A 
ATOM     18  N   UNL     1       5.330   4.730  -0.860  0.00  0.00    +0.000 N 
ATOM     19  C   UNL     1       5.032   3.428  -1.210  0.00  0.00    +0.000 A 
ATOM     20  O   UNL     1       4.955   3.102  -2.385  0.00  0.00    +0.000 OA
ATOM     21  C   UNL     1       4.764   2.564  -0.074  0.00  0.00    +0.000 A 
ATOM     22  H   UNL     1       5.535   5.355  -1.623  0.00  0.00    +0.000 HD
ENDBRANCH  10  12
ENDBRANCH   7   9
ENDBRANCH   1   7
BRANCH   4  23
ATOM     23  C   UNL     1      -0.634  -5.803  -1.331  0.00  0.00    +0.000 C 
BRANCH  23  24
ATOM     24  N   UNL     1      -0.994  -6.661  -0.202  0.00  0.00    +0.000 NA
ATOM     25  H   UNL     1      -1.518  -6.098   0.471  0.00  0.00    +0.000 HD
BRANCH  24  26
ATOM     26  C   UNL     1      -1.800  -7.831  -0.597  0.00  0.00    +0.000 C 
ATOM     27  C   UNL     1      -1.047  -8.766  -1.563  0.00  0.00    +0.000 C 
ATOM     28  C   UNL     1      -1.801 -10.068  -1.831  0.00  0.00    +0.000 C 
ATOM     29  C   UNL     1      -2.116 -10.799  -0.527  0.00  0.00    +0.000 C 
ATOM     30  C   UNL     1      -2.936  -9.896   0.399  0.00  0.00    +0.000 C 
ATOM     31  C   UNL     1      -2.200  -8.585   0.685  0.00  0.00    +0.000 C 
BRANCH  29  32
ATOM     32  N   UNL     1      -2.827 -12.043  -0.815  0.00  0.00    +0.000 NA
ATOM     33  H   UNL     1      -3.693 -11.849  -1.317  0.00  0.00    +0.000 HD
ATOM     34  H   UNL     1      -3.097 -12.498   0.056  0.00  0.00    +0.000 HD
ENDBRANCH  29  32
ENDBRANCH  24  26
ENDBRANCH  23  24
ENDBRANCH   4  23
TORSDOF 7
