REMARK  Name = 
REMARK  6 active torsions:
REMARK  status: ('A' for Active; 'I' for Inactive)
REMARK    1  A    between atoms: C_1  and  C_2
REMARK    2  A    between atoms: C_2  and  N_3
REMARK    3  A    between atoms: C_2  and  C_16
REMARK    4  A    between atoms: C_4  and  C_6
REMARK    5  A    between atoms: C_19  and  O_20
REMARK    6  A    between atoms: O_20  and  C_21
REMARK                            x       y       z     vdW  Elec       q    Type
REMARK                         _______ _______ _______ _____ _____    ______ ____
ROOT
ATOM      1  C   UNL     1       2.829   1.068   0.745  0.00  0.00    +0.000 C 
ATOM      2  C   UNL     1       2.424  -0.117  -0.139  0.00  0.00    +0.000 C 
ENDROOT
BRANCH   2   3
ATOM      3  C   UNL     1       3.053  -1.436   0.274  0.00  0.00    +0.000 A 
ATOM      4  C   UNL     1       3.290  -2.411  -0.707  0.00  0.00    +0.000 A 
ATOM      5  C   UNL     1       3.921  -3.612  -0.381  0.00  0.00    +0.000 A 
ATOM      6  C   UNL     1       4.379  -3.829   0.919  0.00  0.00    +0.000 A 
ATOM      7  C   UNL     1       4.053  -2.920   1.922  0.00  0.00    +0.000 A 
ATOM      8  C   UNL     1       3.380  -1.738   1.605  0.00  0.00    +0.000 A 
BRANCH   6   9
ATOM      9  O   UNL     1       5.115  -4.925   1.305  0.00  0.00    +0.000 OA
BRANCH   9  10
ATOM     10  C   UNL     1       6.063  -5.441   0.449  0.00  0.00    +0.000 A 
ATOM     11  C   UNL     1       6.758  -4.705  -0.510  0.00  0.00    +0.000 A 
ATOM     12  C   UNL     1       7.624  -5.383  -1.349  0.00  0.00    +0.000 A 
ATOM     13  N   UNL     1       7.882  -6.704  -1.251  0.00  0.00    +0.000 NA
ATOM     14  C   UNL     1       7.253  -7.374  -0.262  0.00  0.00    +0.000 A 
ATOM     15  C   UNL     1       6.346  -6.793   0.606  0.00  0.00    +0.000 A 
ENDBRANCH   9  10
ENDBRANCH   6   9
ENDBRANCH   2   3
BRANCH   2  16
ATOM     16  N   UNL     1       0.986  -0.261  -0.154  0.00  0.00    +0.000 N 
ATOM     17  C   UNL     1       0.182   0.491  -0.967  0.00  0.00    +0.000 C 
ATOM     18  O   UNL     1       0.615   1.157  -1.898  0.00  0.00    +0.000 OA
ATOM     19  H   UNL     1       0.585  -0.695   0.675  0.00  0.00    +0.000 HD
BRANCH  17  20
ATOM     20  C   UNL     1      -1.252   0.441  -0.662  0.00  0.00    +0.000 A 
ATOM     21  C   UNL     1      -2.189   0.643  -1.664  0.00  0.00    +0.000 A 
ATOM     22  S   UNL     1      -3.799   0.628  -1.096  0.00  0.00    +0.000 S 
ATOM     23  C   UNL     1      -3.289   0.406   0.513  0.00  0.00    +0.000 A 
ATOM     24  N   UNL     1      -4.182   0.394   1.539  0.00  0.00    +0.000 NA
ATOM     25  C   UNL     1      -3.649   0.263   2.708  0.00  0.00    +0.000 A 
ATOM     26  N   UNL     1      -2.308   0.109   2.944  0.00  0.00    +0.000 N 
ATOM     27  C   UNL     1      -1.379   0.034   1.935  0.00  0.00    +0.000 A 
ATOM     28  O   UNL     1      -0.209  -0.244   2.171  0.00  0.00    +0.000 OA
ATOM     29  C   UNL     1      -1.916   0.265   0.606  0.00  0.00    +0.000 A 
ATOM     30  H   UNL     1      -1.962  -0.040   3.880  0.00  0.00    +0.000 HD
ENDBRANCH  17  20
ENDBRANCH   2  16
TORSDOF 5
