REMARK  Name = 
REMARK  8 active torsions:
REMARK  status: ('A' for Active; 'I' for Inactive)
REMARK    1  A    between atoms: C_1  and  N_2
REMARK    2  A    between atoms: C_4  and  C_5
REMARK    3  A    between atoms: N_7  and  C_8
REMARK    4  A    between atoms: C_8  and  C_9
REMARK    5  A    between atoms: C_12  and  C_13
REMARK    6  A    between atoms: C_13  and  N_14
REMARK    7  A    between atoms: N_14  and  C_15
REMARK    8  A    between atoms: C_15  and  C_16
REMARK                            x       y       z     vdW  Elec       q    Type
REMARK                         _______ _______ _______ _____ _____    ______ ____
ROOT
ATOM      1  C   UNL     1       6.374   3.951  -0.059  0.00  0.00    +0.000 C 
ENDROOT
BRANCH   1   2
ATOM      2  C   UNL     1       5.892   5.371  -0.017  0.00  0.00    +0.000 A 
ATOM      3  C   UNL     1       6.808   6.431  -0.002  0.00  0.00    +0.000 A 
ATOM      4  C   UNL     1       6.363   7.755  -0.005  0.00  0.00    +0.000 A 
ATOM      5  C   UNL     1       4.990   8.044  -0.021  0.00  0.00    +0.000 A 
ATOM      6  C   UNL     1       4.077   6.981  -0.025  0.00  0.00    +0.000 A 
ATOM      7  C   UNL     1       4.522   5.659  -0.018  0.00  0.00    +0.000 A 
BRANCH   5   8
ATOM      8  C   UNL     1       4.486   9.468  -0.019  0.00  0.00    +0.000 C 
BRANCH   8   9
ATOM      9  N   UNL     1       4.941  10.197  -1.198  0.00  0.00    +0.000 NA
ATOM     10  H   UNL     1       4.627   9.707  -2.034  0.00  0.00    +0.000 HD
BRANCH   9  11
ATOM     11  C   UNL     1       4.408  11.558  -1.215  0.00  0.00    +0.000 C 
BRANCH  11  12
ATOM     12  C   UNL     1       4.908  12.307  -2.424  0.00  0.00    +0.000 A 
ATOM     13  C   UNL     1       4.029  12.850  -3.364  0.00  0.00    +0.000 A 
ATOM     14  C   UNL     1       4.557  13.533  -4.450  0.00  0.00    +0.000 A 
ATOM     15  N   UNL     1       5.879  13.708  -4.661  0.00  0.00    +0.000 NA
ATOM     16  C   UNL     1       6.712  13.173  -3.743  0.00  0.00    +0.000 A 
ATOM     17  C   UNL     1       6.282  12.481  -2.624  0.00  0.00    +0.000 A 
ENDBRANCH  11  12
ENDBRANCH   9  11
ENDBRANCH   8   9
ENDBRANCH   5   8
ENDBRANCH   1   2
BRANCH   1  20
ATOM     18  C   UNL     1       7.025   2.080   1.347  0.00  0.00    +0.000 C 
ATOM     19  O   UNL     1       7.255   1.411   0.345  0.00  0.00    +0.000 OA
ATOM     20  N   UNL     1       6.571   3.378   1.246  0.00  0.00    +0.000 N 
ATOM     21  H   UNL     1       6.414   3.899   2.103  0.00  0.00    +0.000 HD
BRANCH  18  25
ATOM     22  C   UNL     1       7.018   2.061   6.198  0.00  0.00    +0.000 C 
ATOM     23  N   UNL     1       7.198   1.577   4.849  0.00  0.00    +0.000 N 
ATOM     24  N   UNL     1       6.925   2.365   3.786  0.00  0.00    +0.000 NA
ATOM     25  C   UNL     1       7.206   1.577   2.716  0.00  0.00    +0.000 A 
ATOM     26  C   UNL     1       7.663   0.283   3.128  0.00  0.00    +0.000 A 
ATOM     27  C   UNL     1       8.096  -0.933   2.612  0.00  0.00    +0.000 A 
ATOM     28 CL   UNL     1       8.218  -1.228   0.951  0.00  0.00    +0.000 Cl
ATOM     29  N   UNL     1       8.453  -1.957   3.408  0.00  0.00    +0.000 NA
ATOM     30  C   UNL     1       8.374  -1.762   4.731  0.00  0.00    +0.000 A 
ATOM     31  N   UNL     1       7.979  -0.650   5.369  0.00  0.00    +0.000 NA
ATOM     32  C   UNL     1       7.638   0.331   4.513  0.00  0.00    +0.000 A 
ENDBRANCH  18  25
ENDBRANCH   1  20
TORSDOF 7
