REMARK  Name = 
REMARK  10 active torsions:
REMARK  status: ('A' for Active; 'I' for Inactive)
REMARK    1  A    between atoms: C_1  and  C_2
REMARK    2  A    between atoms: C_2  and  N_3
REMARK    3  A    between atoms: C_2  and  C_19
REMARK    4  A    between atoms: N_3  and  C_4
REMARK    5  A    between atoms: C_4  and  C_5
REMARK    6  A    between atoms: C_8  and  C_9
REMARK    7  A    between atoms: C_9  and  O_10
REMARK    8  A    between atoms: C_9  and  C_11
REMARK    9  A    between atoms: C_11  and  N_12
REMARK   10  A    between atoms: C_19  and  C_21
REMARK                            x       y       z     vdW  Elec       q    Type
REMARK                         _______ _______ _______ _____ _____    ______ ____
ROOT
ATOM      1  N   UNL     1       0.974  -0.359  -2.562  0.00  0.00    +0.000 NA
ATOM      2  H   UNL     1       0.584   0.574  -2.731  0.00  0.00    +0.000 HD
ENDROOT
BRANCH   1   4
ATOM      3  C   UNL     1       2.727   0.117  -4.085  0.00  0.00    +0.000 C 
ATOM      4  C   UNL     1       2.441  -0.246  -2.633  0.00  0.00    +0.000 C 
BRANCH   4   5
ATOM      5  C   UNL     1       2.911   0.802  -1.566  0.00  0.00    +0.000 C 
ATOM      6  O   UNL     1       2.261   1.806  -1.343  0.00  0.00    +0.000 OA
BRANCH   5   7
ATOM      7  C   UNL     1       4.108   0.479  -0.775  0.00  0.00    +0.000 A 
ATOM      8  C   UNL     1       5.148  -0.292  -1.254  0.00  0.00    +0.000 A 
ATOM      9  S   UNL     1       6.471  -0.388  -0.178  0.00  0.00    +0.000 S 
ATOM     10  C   UNL     1       5.684   0.594   0.968  0.00  0.00    +0.000 A 
ATOM     11  N   UNL     1       6.295   0.969   2.123  0.00  0.00    +0.000 NA
ATOM     12  C   UNL     1       5.596   1.776   2.852  0.00  0.00    +0.000 A 
ATOM     13  N   UNL     1       4.323   2.200   2.553  0.00  0.00    +0.000 N 
ATOM     14  C   UNL     1       3.591   1.632   1.540  0.00  0.00    +0.000 A 
ATOM     15  O   UNL     1       2.358   1.627   1.558  0.00  0.00    +0.000 OA
ATOM     16  C   UNL     1       4.398   0.917   0.568  0.00  0.00    +0.000 A 
ATOM     17  H   UNL     1       3.799   2.735   3.228  0.00  0.00    +0.000 HD
ENDBRANCH   5   7
ENDBRANCH   4   5
ENDBRANCH   1   4
BRANCH   1  18
ATOM     18  C   UNL     1       0.540  -0.776  -1.236  0.00  0.00    +0.000 C 
BRANCH  18  19
ATOM     19  C   UNL     1      -0.953  -0.885  -1.197  0.00  0.00    +0.000 A 
ATOM     20  C   UNL     1      -1.599  -1.766  -2.069  0.00  0.00    +0.000 A 
ATOM     21  C   UNL     1      -2.980  -1.923  -2.013  0.00  0.00    +0.000 A 
ATOM     22  C   UNL     1      -3.734  -1.180  -1.087  0.00  0.00    +0.000 A 
ATOM     23  C   UNL     1      -3.076  -0.289  -0.234  0.00  0.00    +0.000 A 
ATOM     24  C   UNL     1      -1.702  -0.131  -0.289  0.00  0.00    +0.000 A 
BRANCH  22  25
ATOM     25  C   UNL     1      -5.239  -1.300  -1.010  0.00  0.00    +0.000 C 
BRANCH  25  26
ATOM     26  O   UNL     1      -5.625  -1.724   0.302  0.00  0.00    +0.000 OA
ATOM     27  H   UNL     1      -4.960  -1.384   0.922  0.00  0.00    +0.000 HD
ENDBRANCH  25  26
BRANCH  25  28
ATOM     28  C   UNL     1      -5.972   0.038  -1.358  0.00  0.00    +0.000 C 
BRANCH  28  29
ATOM     29  N   UNL     1      -5.668   0.511  -2.722  0.00  0.00    +0.000 NA
ATOM     30  C   UNL     1      -6.090  -0.459  -3.732  0.00  0.00    +0.000 C 
ATOM     31  C   UNL     1      -7.501  -0.061  -4.088  0.00  0.00    +0.000 C 
ATOM     32  O   UNL     1      -7.613   1.331  -3.795  0.00  0.00    +0.000 OA
ATOM     33  C   UNL     1      -6.427   1.703  -3.091  0.00  0.00    +0.000 C 
ENDBRANCH  28  29
ENDBRANCH  25  28
ENDBRANCH  22  25
ENDBRANCH  18  19
ENDBRANCH   1  18
TORSDOF 9
