REMARK  Name = 
REMARK  8 active torsions:
REMARK  status: ('A' for Active; 'I' for Inactive)
REMARK    1  A    between atoms: O_1  and  C_2
REMARK    2  A    between atoms: C_2  and  C_3
REMARK    3  A    between atoms: N_8  and  C_9
REMARK    4  A    between atoms: C_9  and  C_10
REMARK    5  A    between atoms: C_10  and  C_11
REMARK    6  A    between atoms: C_13  and  N_14
REMARK    7  A    between atoms: N_14  and  C_15
REMARK    8  A    between atoms: C_18  and  O_19
REMARK                            x       y       z     vdW  Elec       q    Type
REMARK                         _______ _______ _______ _____ _____    ______ ____
ROOT
ATOM      1  C   UNL     1       0.096  15.276  -4.808  0.00  0.00    +0.000 A 
ATOM      2  C   UNL     1       0.145  13.992  -4.206  0.00  0.00    +0.000 A 
ATOM      3  C   UNL     1       1.098  13.680  -3.225  0.00  0.00    +0.000 A 
ATOM      4  C   UNL     1       2.038  14.659  -2.880  0.00  0.00    +0.000 A 
ATOM      5  C   UNL     1       2.009  15.927  -3.460  0.00  0.00    +0.000 A 
ATOM      6  C   UNL     1       1.037  16.241  -4.406  0.00  0.00    +0.000 A 
ATOM      7 CL   UNL     1       1.041  17.852  -5.030  0.00  0.00    +0.000 Cl
ENDROOT
BRANCH   3   8
ATOM      8  N   UNL     1       1.189  12.439  -2.572  0.00  0.00    +0.000 N 
ATOM      9  H   UNL     1       1.853  12.429  -1.803  0.00  0.00    +0.000 HD
BRANCH   8  10
ATOM     10  C   UNL     1       0.613  11.170  -2.899  0.00  0.00    +0.000 C 
ATOM     11  C   UNL     1       0.886  10.137  -1.775  0.00  0.00    +0.000 C 
ATOM     12  C   UNL     1       2.050   9.564  -2.599  0.00  0.00    +0.000 C 
ATOM     13  C   UNL     1       1.497  10.296  -3.842  0.00  0.00    +0.000 C 
BRANCH  13  14
ATOM     14  O   UNL     1       0.800   9.460  -4.793  0.00  0.00    +0.000 OA
ATOM     15  H   UNL     1       0.169   8.937  -4.271  0.00  0.00    +0.000 HD
ENDBRANCH  13  14
ENDBRANCH   8  10
ENDBRANCH   3   8
BRANCH   1  16
ATOM     16  C   UNL     1      -0.982  15.588  -5.835  0.00  0.00    +0.000 C 
BRANCH  16  17
ATOM     17  C   UNL     1      -2.228  16.212  -5.195  0.00  0.00    +0.000 C 
BRANCH  17  23
ATOM     18  C   UNL     1      -5.742  18.439  -4.186  0.00  0.00    +0.000 A 
ATOM     19  C   UNL     1      -6.879  18.095  -4.908  0.00  0.00    +0.000 A 
ATOM     20  C   UNL     1      -6.722  17.271  -6.009  0.00  0.00    +0.000 A 
ATOM     21  N   UNL     1      -5.534  16.764  -6.428  0.00  0.00    +0.000 NA
ATOM     22  C   UNL     1      -4.431  17.103  -5.732  0.00  0.00    +0.000 A 
ATOM     23  N   UNL     1      -3.224  16.585  -6.202  0.00  0.00    +0.000 N 
ATOM     24  C   UNL     1      -4.507  17.954  -4.635  0.00  0.00    +0.000 A 
ATOM     25  H   UNL     1      -3.462  15.872  -6.885  0.00  0.00    +0.000 HD
BRANCH  18  26
ATOM     26  C   UNL     1      -5.797  19.298  -2.959  0.00  0.00    +0.000 C 
BRANCH  26  27
ATOM     27  O   UNL     1      -5.278  18.552  -1.866  0.00  0.00    +0.000 OA
ATOM     28  H   UNL     1      -5.254  19.150  -1.101  0.00  0.00    +0.000 HD
ENDBRANCH  26  27
ENDBRANCH  18  26
ENDBRANCH  17  23
ENDBRANCH  16  17
ENDBRANCH   1  16
TORSDOF 8
