REMARK  Name = 
REMARK  5 active torsions:
REMARK  status: ('A' for Active; 'I' for Inactive)
REMARK    1  A    between atoms: N_1  and  C_2
REMARK    2  A    between atoms: C_2  and  C_3
REMARK    3  A    between atoms: C_6  and  N_7
REMARK    4  A    between atoms: N_7  and  C_8
REMARK    5  A    between atoms: C_16  and  O_17
REMARK                            x       y       z     vdW  Elec       q    Type
REMARK                         _______ _______ _______ _____ _____    ______ ____
ROOT
ATOM      1  N   UNL     1       4.332  -5.240  -0.023  0.00  0.00    +0.000 N 
ATOM      2  H   UNL     1       3.703  -5.992  -0.295  0.00  0.00    +0.000 HD
ENDROOT
BRANCH   1   3
ATOM      3  C   UNL     1       5.748  -5.598   0.007  0.00  0.00    +0.000 C 
ATOM      4  C   UNL     1       6.032  -6.714  -0.947  0.00  0.00    +0.000 A 
ATOM      5  C   UNL     1       5.999  -6.691  -2.324  0.00  0.00    +0.000 A 
ATOM      6  N   UNL     1       6.283  -7.782  -3.073  0.00  0.00    +0.000 NA
ATOM      7  C   UNL     1       6.605  -8.923  -2.413  0.00  0.00    +0.000 A 
ATOM      8  C   UNL     1       6.673  -9.034  -1.033  0.00  0.00    +0.000 A 
ATOM      9  C   UNL     1       6.386  -7.894  -0.305  0.00  0.00    +0.000 A 
ATOM     10  C   UNL     1       6.408  -7.738   1.180  0.00  0.00    +0.000 C 
ATOM     11  C   UNL     1       6.091  -6.245   1.396  0.00  0.00    +0.000 C 
BRANCH  11  12
ATOM     12  O   UNL     1       5.004  -6.135   2.328  0.00  0.00    +0.000 OA
ATOM     13  H   UNL     1       4.330  -5.595   1.863  0.00  0.00    +0.000 HD
ENDBRANCH  11  12
ENDBRANCH   1   3
BRANCH   1  17
ATOM     14  C   UNL     1       2.568  -1.400  -0.018  0.00  0.00    +0.000 A 
ATOM     15  C   UNL     1       3.956  -1.530  -0.139  0.00  0.00    +0.000 A 
ATOM     16  C   UNL     1       4.565  -2.793  -0.147  0.00  0.00    +0.000 A 
ATOM     17  C   UNL     1       3.808  -3.962  -0.070  0.00  0.00    +0.000 A 
ATOM     18  C   UNL     1       2.421  -3.818   0.090  0.00  0.00    +0.000 A 
ATOM     19  C   UNL     1       1.805  -2.561   0.114  0.00  0.00    +0.000 A 
BRANCH  14  20
ATOM     20  C   UNL     1       1.915  -0.043  -0.039  0.00  0.00    +0.000 C 
BRANCH  20  21
ATOM     21  N   UNL     1       2.138   0.630  -1.315  0.00  0.00    +0.000 NA
ATOM     22  H   UNL     1       1.578   1.479  -1.348  0.00  0.00    +0.000 HD
ATOM     23  H   UNL     1       1.795   0.029  -2.064  0.00  0.00    +0.000 HD
ENDBRANCH  20  21
ENDBRANCH  14  20
ENDBRANCH   1  17
TORSDOF 5
