REMARK  Name = 
REMARK  10 active torsions:
REMARK  status: ('A' for Active; 'I' for Inactive)
REMARK    1  A    between atoms: C_1  and  C_2
REMARK    2  A    between atoms: C_2  and  C_3
REMARK    3  A    between atoms: C_2  and  C_4
REMARK    4  A    between atoms: C_2  and  C_6
REMARK    5  A    between atoms: C_9  and  N_10
REMARK    6  A    between atoms: N_10  and  C_11
REMARK    7  A    between atoms: C_11  and  C_12
REMARK    8  A    between atoms: C_12  and  C_13
REMARK    9  A    between atoms: C_15  and  C_16
REMARK   10  A    between atoms: C_19  and  C_20
REMARK                            x       y       z     vdW  Elec       q    Type
REMARK                         _______ _______ _______ _____ _____    ______ ____
ROOT
ATOM      1  C   UNL     1      -1.622   2.323  -9.015  0.00  0.00    +0.000 A 
ATOM      2  C   UNL     1      -1.153   2.345 -10.329  0.00  0.00    +0.000 A 
ATOM      3  C   UNL     1      -1.200   3.532 -11.078  0.00  0.00    +0.000 A 
ATOM      4  C   UNL     1      -1.739   4.657 -10.442  0.00  0.00    +0.000 A 
ATOM      5  C   UNL     1      -2.189   4.554  -9.138  0.00  0.00    +0.000 A 
ATOM      6  N   UNL     1      -2.149   3.416  -8.421  0.00  0.00    +0.000 NA
ENDROOT
BRANCH   3   7
ATOM      7  C   UNL     1      -0.719   3.595 -12.478  0.00  0.00    +0.000 A 
ATOM      8  C   UNL     1      -0.804   2.488 -13.340  0.00  0.00    +0.000 A 
ATOM      9  C   UNL     1      -0.368   2.556 -14.672  0.00  0.00    +0.000 A 
ATOM     10  C   UNL     1       0.161   3.744 -15.184  0.00  0.00    +0.000 A 
ATOM     11  C   UNL     1       0.256   4.853 -14.341  0.00  0.00    +0.000 A 
ATOM     12  C   UNL     1      -0.166   4.776 -13.011  0.00  0.00    +0.000 A 
BRANCH  10  13
ATOM     13  C   UNL     1       0.616   3.842 -16.619  0.00  0.00    +0.000 C 
ATOM     14  F   UNL     1       0.483   2.678 -17.315  0.00  0.00    +0.000 F 
ATOM     15  F   UNL     1      -0.080   4.778 -17.322  0.00  0.00    +0.000 F 
ATOM     16  F   UNL     1       1.927   4.193 -16.725  0.00  0.00    +0.000 F 
ENDBRANCH  10  13
ENDBRANCH   3   7
BRANCH   1  17
ATOM     17  C   UNL     1      -1.618   1.031  -8.234  0.00  0.00    +0.000 C 
BRANCH  17  18
ATOM     18  C   UNL     1      -1.455   1.247  -6.726  0.00  0.00    +0.000 C 
BRANCH  18  19
ATOM     19  N   UNL     1      -1.444  -0.050  -6.039  0.00  0.00    +0.000 N 
ATOM     20  H   UNL     1      -0.718  -0.671  -6.384  0.00  0.00    +0.000 HD
BRANCH  19  24
ATOM     21  C   UNL     1      -1.251   0.072  -1.898  0.00  0.00    +0.000 A 
ATOM     22  C   UNL     1      -1.182   1.232  -2.668  0.00  0.00    +0.000 A 
ATOM     23  N   UNL     1      -1.233   1.238  -4.024  0.00  0.00    +0.000 NA
ATOM     24  C   UNL     1      -1.340   0.043  -4.639  0.00  0.00    +0.000 A 
ATOM     25  C   UNL     1      -1.393  -1.118  -3.870  0.00  0.00    +0.000 A 
ATOM     26  N   UNL     1      -1.354  -1.134  -2.512  0.00  0.00    +0.000 NA
BRANCH  21  28
ATOM     27  C   UNL     1      -2.386   0.955   0.181  0.00  0.00    +0.000 C 
ATOM     28  C   UNL     1      -1.221   0.108  -0.371  0.00  0.00    +0.000 C 
ATOM     29  C   UNL     1      -1.355  -1.311   0.221  0.00  0.00    +0.000 C 
BRANCH  28  30
ATOM     30  C   UNL     1       0.060   0.688   0.096  0.00  0.00    +0.000 C 
ATOM     31  N   UNL     1       1.048   1.167   0.469  0.00  0.00    +0.000 NA
ENDBRANCH  28  30
ENDBRANCH  21  28
ENDBRANCH  19  24
ENDBRANCH  18  19
ENDBRANCH  17  18
ENDBRANCH   1  17
TORSDOF 8
