REMARK  Name = 
REMARK  6 active torsions:
REMARK  status: ('A' for Active; 'I' for Inactive)
REMARK    1  A    between atoms: N_1  and  C_2
REMARK    2  A    between atoms: C_2  and  C_3
REMARK    3  A    between atoms: C_3  and  C_4
REMARK    4  A    between atoms: C_7  and  C_8
REMARK    5  A    between atoms: C_8  and  C_9
REMARK    6  A    between atoms: C_14  and  C_15
REMARK                            x       y       z     vdW  Elec       q    Type
REMARK                         _______ _______ _______ _____ _____    ______ ____
ROOT
ATOM      1  C   UNL     1       9.641  -1.714   1.645  0.00  0.00    +0.000 A 
ATOM      2  N   UNL     1       9.945  -2.884   1.075  0.00  0.00    +0.000 NA
ATOM      3  S   UNL     1      10.097  -4.018   2.269  0.00  0.00    +0.000 S 
ATOM      4  C   UNL     1       9.836  -2.944   3.583  0.00  0.00    +0.000 A 
ATOM      5  C   UNL     1       9.642  -3.220   4.944  0.00  0.00    +0.000 A 
ATOM      6  C   UNL     1       9.457  -2.146   5.828  0.00  0.00    +0.000 A 
ATOM      7  C   UNL     1       9.588  -0.834   5.371  0.00  0.00    +0.000 A 
ATOM      8  C   UNL     1       9.746  -0.574   4.003  0.00  0.00    +0.000 A 
ATOM      9  C   UNL     1       9.798  -1.645   3.081  0.00  0.00    +0.000 A 
ENDROOT
BRANCH   6  10
ATOM     10  C   UNL     1       9.033  -2.482   7.221  0.00  0.00    +0.000 C 
ATOM     11  N   UNL     1       8.875  -1.472   8.127  0.00  0.00    +0.000 N 
ATOM     12  O   UNL     1       8.789  -3.637   7.550  0.00  0.00    +0.000 OA
ATOM     13  H   UNL     1       9.037  -0.493   7.954  0.00  0.00    +0.000 HD
ATOM     14  H   UNL     1       8.528  -1.739   9.039  0.00  0.00    +0.000 HD
ENDBRANCH   6  10
BRANCH   1  15
ATOM     15  C   UNL     1       9.015  -0.644   0.791  0.00  0.00    +0.000 C 
BRANCH  15  19
ATOM     16  C   UNL     1       4.812  -1.516   1.499  0.00  0.00    +0.000 A 
ATOM     17  C   UNL     1       5.443  -0.474   2.187  0.00  0.00    +0.000 A 
ATOM     18  C   UNL     1       6.783  -0.152   1.925  0.00  0.00    +0.000 A 
ATOM     19  C   UNL     1       7.519  -0.872   0.971  0.00  0.00    +0.000 A 
ATOM     20  C   UNL     1       6.868  -1.894   0.258  0.00  0.00    +0.000 A 
ATOM     21  C   UNL     1       5.531  -2.210   0.519  0.00  0.00    +0.000 A 
BRANCH  16  22
ATOM     22  C   UNL     1       3.383  -1.894   1.809  0.00  0.00    +0.000 C 
BRANCH  22  23
ATOM     23  C   UNL     1       2.381  -1.132   0.935  0.00  0.00    +0.000 C 
BRANCH  23  24
ATOM     24  N   UNL     1       1.006  -1.527   1.241  0.00  0.00    +0.000 NA
ATOM     25  H   UNL     1       0.365  -0.987   0.660  0.00  0.00    +0.000 HD
ATOM     26  H   UNL     1       0.786  -1.288   2.207  0.00  0.00    +0.000 HD
ENDBRANCH  23  24
ENDBRANCH  22  23
ENDBRANCH  16  22
ENDBRANCH  15  19
ENDBRANCH   1  15
TORSDOF 6
