REMARK  Name = 
REMARK  8 active torsions:
REMARK  status: ('A' for Active; 'I' for Inactive)
REMARK    1  A    between atoms: C_1  and  O_2
REMARK    2  A    between atoms: O_2  and  C_3
REMARK    3  A    between atoms: C_7  and  C_8
REMARK    4  A    between atoms: C_12  and  C_13
REMARK    5  A    between atoms: C_13  and  N_14
REMARK    6  A    between atoms: N_14  and  C_15
REMARK    7  A    between atoms: C_18  and  C_19
REMARK    8  A    between atoms: C_25  and  C_26
REMARK                            x       y       z     vdW  Elec       q    Type
REMARK                         _______ _______ _______ _____ _____    ______ ____
ROOT
ATOM      1  C   UNL     1       3.431  -7.819   3.049  0.00  0.00    +0.000 C 
ATOM      2  C   UNL     1       4.622  -8.712   3.340  0.00  0.00    +0.000 C 
ATOM      3  C   UNL     1       3.351  -9.345   2.870  0.00  0.00    +0.000 C 
ATOM      4  C   UNL     1       2.566 -10.205   3.807  0.00  0.00    +0.000 C 
ENDROOT
BRANCH   1   9
ATOM      5  C   UNL     1       2.428  -6.452  -0.439  0.00  0.00    +0.000 A 
ATOM      6  C   UNL     1       3.447  -5.507  -0.638  0.00  0.00    +0.000 A 
ATOM      7  C   UNL     1       4.425  -5.283   0.332  0.00  0.00    +0.000 A 
ATOM      8  C   UNL     1       4.419  -6.018   1.517  0.00  0.00    +0.000 A 
ATOM      9  C   UNL     1       3.436  -6.985   1.767  0.00  0.00    +0.000 A 
ATOM     10  C   UNL     1       2.443  -7.163   0.779  0.00  0.00    +0.000 A 
BRANCH   5  15
ATOM     11  C   UNL     1      -0.126  -8.194  -2.663  0.00  0.00    +0.000 A 
ATOM     12  C   UNL     1      -0.529  -7.096  -3.410  0.00  0.00    +0.000 A 
ATOM     13  N   UNL     1      -0.047  -5.844  -3.246  0.00  0.00    +0.000 NA
ATOM     14  C   UNL     1       0.890  -5.683  -2.281  0.00  0.00    +0.000 A 
ATOM     15  C   UNL     1       1.390  -6.702  -1.465  0.00  0.00    +0.000 A 
ATOM     16  C   UNL     1       0.849  -7.983  -1.686  0.00  0.00    +0.000 A 
BRANCH  11  18
ATOM     17  C   UNL     1      -0.360 -10.511  -2.188  0.00  0.00    +0.000 C 
ATOM     18  O   UNL     1      -0.727  -9.380  -2.969  0.00  0.00    +0.000 OA
ENDBRANCH  11  18
ENDBRANCH   5  15
ENDBRANCH   1   9
BRANCH   1  19
ATOM     19  N   UNL     1       2.570  -7.274   4.108  0.00  0.00    +0.000 N 
ATOM     20  H   UNL     1       1.579  -7.253   3.884  0.00  0.00    +0.000 HD
BRANCH  19  21
ATOM     21  C   UNL     1       2.924  -6.351   5.105  0.00  0.00    +0.000 A 
ATOM     22  C   UNL     1       4.214  -5.878   5.343  0.00  0.00    +0.000 A 
ATOM     23  C   UNL     1       4.467  -5.036   6.433  0.00  0.00    +0.000 A 
ATOM     24  C   UNL     1       3.415  -4.719   7.284  0.00  0.00    +0.000 A 
ATOM     25  N   UNL     1       2.145  -5.166   7.107  0.00  0.00    +0.000 NA
ATOM     26  C   UNL     1       1.948  -5.965   6.034  0.00  0.00    +0.000 A 
BRANCH  24  27
ATOM     27  C   UNL     1       3.642  -3.875   8.502  0.00  0.00    +0.000 C 
ATOM     28  N   UNL     1       2.528  -3.668   9.274  0.00  0.00    +0.000 N 
ATOM     29  O   UNL     1       4.735  -3.416   8.801  0.00  0.00    +0.000 OA
ATOM     30  H   UNL     1       1.652  -4.099   9.001  0.00  0.00    +0.000 HD
ATOM     31  H   UNL     1       2.600  -3.152  10.139  0.00  0.00    +0.000 HD
ENDBRANCH  24  27
ENDBRANCH  19  21
ENDBRANCH   1  19
TORSDOF 6
