REMARK  Name = 
REMARK  4 active torsions:
REMARK  status: ('A' for Active; 'I' for Inactive)
REMARK    1  A    between atoms: C_2  and  C_4
REMARK    2  A    between atoms: C_7  and  N_8
REMARK    3  A    between atoms: N_8  and  C_9
REMARK    4  A    between atoms: C_9  and  C_10
REMARK                            x       y       z     vdW  Elec       q    Type
REMARK                         _______ _______ _______ _____ _____    ______ ____
ROOT
ATOM      1  C   UNL     1       3.121   0.147   1.267  0.00  0.00    +0.000 A 
ATOM      2  C   UNL     1       2.558   0.664   2.437  0.00  0.00    +0.000 A 
ATOM      3  C   UNL     1       3.338   0.815   3.592  0.00  0.00    +0.000 A 
ATOM      4  C   UNL     1       4.686   0.453   3.594  0.00  0.00    +0.000 A 
ATOM      5  C   UNL     1       5.248  -0.040   2.407  0.00  0.00    +0.000 A 
ATOM      6  C   UNL     1       4.471  -0.214   1.258  0.00  0.00    +0.000 A 
ENDROOT
BRANCH   1   8
ATOM      7  N   UNL     1       1.238   0.753  -0.158  0.00  0.00    +0.000 N 
ATOM      8  C   UNL     1       2.328  -0.056   0.029  0.00  0.00    +0.000 C 
ATOM      9  O   UNL     1       2.642  -0.889  -0.813  0.00  0.00    +0.000 OA
ATOM     10  H   UNL     1       0.773   0.672  -1.052  0.00  0.00    +0.000 HD
ATOM     11  H   UNL     1       1.109   1.609   0.363  0.00  0.00    +0.000 HD
ENDBRANCH   1   8
BRANCH   4  12
ATOM     12  N   UNL     1       5.541   0.625   4.701  0.00  0.00    +0.000 N 
ATOM     13  H   UNL     1       6.171   1.413   4.544  0.00  0.00    +0.000 HD
BRANCH  12  14
ATOM     14  C   UNL     1       5.073   0.540   6.110  0.00  0.00    +0.000 C 
ATOM     15  C   UNL     1       5.920  -0.395   6.972  0.00  0.00    +0.000 C 
ATOM     16  C   UNL     1       4.504  -0.754   6.667  0.00  0.00    +0.000 C 
BRANCH  14  17
ATOM     17  C   UNL     1       4.662   1.873   6.748  0.00  0.00    +0.000 A 
ATOM     18  C   UNL     1       3.360   2.097   7.210  0.00  0.00    +0.000 A 
ATOM     19  N   UNL     1       2.947   3.237   7.820  0.00  0.00    +0.000 NA
ATOM     20  C   UNL     1       3.901   4.180   7.960  0.00  0.00    +0.000 A 
ATOM     21  C   UNL     1       5.189   3.997   7.498  0.00  0.00    +0.000 A 
ATOM     22  N   UNL     1       5.594   2.859   6.885  0.00  0.00    +0.000 NA
ENDBRANCH  14  17
ENDBRANCH  12  14
ENDBRANCH   4  12
TORSDOF 4
