REMARK  Name = 
REMARK  7 active torsions:
REMARK  status: ('A' for Active; 'I' for Inactive)
REMARK    1  A    between atoms: C_1  and  N_2
REMARK    2  A    between atoms: N_2  and  C_3
REMARK    3  A    between atoms: C_3  and  C_4
REMARK    4  A    between atoms: C_7  and  C_8
REMARK    5  A    between atoms: N_10  and  C_11
REMARK    6  A    between atoms: C_11  and  C_12
REMARK    7  A    between atoms: C_19  and  C_21
REMARK                            x       y       z     vdW  Elec       q    Type
REMARK                         _______ _______ _______ _____ _____    ______ ____
ROOT
ATOM      1  C   UNL     1       2.194   1.547  -2.018  0.00  0.00    +0.000 A 
ATOM      2  C   UNL     1       1.225   0.982  -2.852  0.00  0.00    +0.000 A 
ATOM      3  C   UNL     1       0.394   1.807  -3.604  0.00  0.00    +0.000 A 
ATOM      4  C   UNL     1       0.567   3.182  -3.497  0.00  0.00    +0.000 A 
ATOM      5  N   UNL     1       1.506   3.767  -2.704  0.00  0.00    +0.000 NA
ATOM      6  C   UNL     1       2.291   2.935  -1.984  0.00  0.00    +0.000 A 
ENDROOT
BRANCH   4   7
ATOM      7  C   UNL     1      -0.343   4.098  -4.258  0.00  0.00    +0.000 C 
ATOM      8  O   UNL     1      -1.259   3.657  -4.947  0.00  0.00    +0.000 OA
ATOM      9  N   UNL     1      -0.087   5.443  -4.120  0.00  0.00    +0.000 N 
ATOM     10  H   UNL     1       0.798   5.716  -3.696  0.00  0.00    +0.000 HD
BRANCH   9  11
ATOM     11  C   UNL     1      -0.855   6.418  -4.850  0.00  0.00    +0.000 C 
BRANCH  11  12
ATOM     12  C   UNL     1      -0.420   7.789  -4.467  0.00  0.00    +0.000 A 
ATOM     13  N   UNL     1       0.786   8.307  -4.604  0.00  0.00    +0.000 NA
ATOM     14  C   UNL     1       0.692   9.598  -4.154  0.00  0.00    +0.000 A 
ATOM     15  C   UNL     1      -0.582   9.869  -3.720  0.00  0.00    +0.000 A 
ATOM     16  N   UNL     1      -1.282   8.713  -3.924  0.00  0.00    +0.000 N 
ATOM     17  H   UNL     1      -2.260   8.562  -3.722  0.00  0.00    +0.000 HD
ENDBRANCH  11  12
ENDBRANCH   9  11
ENDBRANCH   4   7
BRANCH   1  18
ATOM     18  C   UNL     1       3.092   0.689  -1.171  0.00  0.00    +0.000 C 
BRANCH  18  20
ATOM     19  C   UNL     1       4.710   0.616  -3.119  0.00  0.00    +0.000 C 
ATOM     20  N   UNL     1       4.376   0.269  -1.742  0.00  0.00    +0.000 N 
ATOM     21  C   UNL     1       5.447  -0.204  -0.957  0.00  0.00    +0.000 C 
ATOM     22  O   UNL     1       6.575  -0.327  -1.432  0.00  0.00    +0.000 OA
BRANCH  21  23
ATOM     23  C   UNL     1       5.205  -0.594   0.440  0.00  0.00    +0.000 A 
ATOM     24  C   UNL     1       4.111  -1.326   0.873  0.00  0.00    +0.000 A 
ATOM     25  S   UNL     1       4.144  -1.689   2.539  0.00  0.00    +0.000 S 
ATOM     26  C   UNL     1       5.690  -1.007   2.709  0.00  0.00    +0.000 A 
ATOM     27  N   UNL     1       6.358  -1.079   3.891  0.00  0.00    +0.000 NA
ATOM     28  C   UNL     1       7.539  -0.568   3.856  0.00  0.00    +0.000 A 
ATOM     29  N   UNL     1       8.106   0.036   2.763  0.00  0.00    +0.000 N 
ATOM     30  C   UNL     1       7.418   0.252   1.587  0.00  0.00    +0.000 A 
ATOM     31  O   UNL     1       7.859   1.003   0.727  0.00  0.00    +0.000 OA
ATOM     32  C   UNL     1       6.127  -0.416   1.538  0.00  0.00    +0.000 A 
ATOM     33  H   UNL     1       9.009   0.481   2.830  0.00  0.00    +0.000 HD
ENDBRANCH  21  23
ENDBRANCH  18  20
ENDBRANCH   1  18
TORSDOF 6
