REMARK  Name = 
REMARK  7 active torsions:
REMARK  status: ('A' for Active; 'I' for Inactive)
REMARK    1  A    between atoms: N_1  and  C_2
REMARK    2  A    between atoms: C_2  and  C_3
REMARK    3  A    between atoms: C_2  and  C_17
REMARK    4  A    between atoms: C_3  and  N_4
REMARK    5  A    between atoms: C_7  and  C_8
REMARK    6  A    between atoms: C_8  and  N_9
REMARK    7  A    between atoms: C_17  and  C_19
REMARK                            x       y       z     vdW  Elec       q    Type
REMARK                         _______ _______ _______ _____ _____    ______ ____
ROOT
ATOM      1  C   UNL     1       2.383  -0.032   0.105  0.00  0.00    +0.000 C 
ENDROOT
BRANCH   1   2
ATOM      2  N   UNL     1       2.822   1.259  -0.483  0.00  0.00    +0.000 NA
ATOM      3  H   UNL     1       3.820   1.247  -0.666  0.00  0.00    +0.000 HD
ATOM      4  H   UNL     1       2.651   2.001   0.197  0.00  0.00    +0.000 HD
ENDBRANCH   1   2
BRANCH   1   5
ATOM      5  C   UNL     1       2.859  -0.213   1.563  0.00  0.00    +0.000 C 
ATOM      6  O   UNL     1       3.145   0.761   2.257  0.00  0.00    +0.000 OA
BRANCH   5   7
ATOM      7  C   UNL     1       3.003  -1.591   2.081  0.00  0.00    +0.000 A 
ATOM      8  C   UNL     1       3.263  -2.685   1.268  0.00  0.00    +0.000 A 
ATOM      9  S   UNL     1       3.483  -4.143   2.129  0.00  0.00    +0.000 S 
ATOM     10  C   UNL     1       3.247  -3.358   3.620  0.00  0.00    +0.000 A 
ATOM     11  N   UNL     1       3.356  -4.044   4.786  0.00  0.00    +0.000 NA
ATOM     12  C   UNL     1       3.193  -3.315   5.843  0.00  0.00    +0.000 A 
ATOM     13  N   UNL     1       2.905  -1.979   5.830  0.00  0.00    +0.000 N 
ATOM     14  C   UNL     1       2.636  -1.276   4.668  0.00  0.00    +0.000 A 
ATOM     15  O   UNL     1       2.094  -0.183   4.706  0.00  0.00    +0.000 OA
ATOM     16  C   UNL     1       2.950  -2.018   3.461  0.00  0.00    +0.000 A 
ATOM     17  H   UNL     1       2.699  -1.488   6.690  0.00  0.00    +0.000 HD
ENDBRANCH   5   7
ENDBRANCH   1   5
BRANCH   1  18
ATOM     18  C   UNL     1       0.844  -0.190   0.050  0.00  0.00    +0.000 C 
BRANCH  18  19
ATOM     19  N   UNL     1       0.287  -0.043  -1.312  0.00  0.00    +0.000 NA
ATOM     20  C   UNL     1       0.855  -1.025  -2.240  0.00  0.00    +0.000 C 
ATOM     21  C   UNL     1       0.268  -0.864  -3.636  0.00  0.00    +0.000 C 
ATOM     22  C   UNL     1      -1.256  -1.044  -3.610  0.00  0.00    +0.000 C 
ATOM     23  C   UNL     1      -1.807   0.049  -2.685  0.00  0.00    +0.000 C 
ATOM     24  C   UNL     1      -1.182  -0.016  -1.286  0.00  0.00    +0.000 C 
BRANCH  22  25
ATOM     25  C   UNL     1      -1.673  -2.477  -3.164  0.00  0.00    +0.000 C 
BRANCH  25  26
ATOM     26  N   UNL     1      -3.130  -2.716  -3.121  0.00  0.00    +0.000 NA
ATOM     27  C   UNL     1      -3.735  -2.651  -4.459  0.00  0.00    +0.000 C 
ATOM     28  C   UNL     1      -5.249  -2.858  -4.396  0.00  0.00    +0.000 C 
ATOM     29  C   UNL     1      -5.600  -4.179  -3.727  0.00  0.00    +0.000 C 
ATOM     30  C   UNL     1      -4.930  -4.263  -2.362  0.00  0.00    +0.000 C 
ATOM     31  C   UNL     1      -3.423  -4.012  -2.477  0.00  0.00    +0.000 C 
ENDBRANCH  25  26
ENDBRANCH  22  25
ENDBRANCH  18  19
ENDBRANCH   1  18
TORSDOF 7
