REMARK  Name = 
REMARK  11 active torsions:
REMARK  status: ('A' for Active; 'I' for Inactive)
REMARK    1  A    between atoms: C_1  and  O_2
REMARK    2  A    between atoms: O_2  and  C_3
REMARK    3  A    between atoms: C_10  and  C_11
REMARK    4  A    between atoms: N_13  and  C_14
REMARK    5  A    between atoms: C_14  and  C_15
REMARK    6  A    between atoms: C_18  and  N_19
REMARK    7  A    between atoms: N_19  and  C_20
REMARK    8  A    between atoms: C_20  and  C_21
REMARK    9  A    between atoms: C_21  and  C_22
REMARK   10  A    between atoms: C_21  and  C_23
REMARK   11  A    between atoms: C_21  and  C_24
REMARK                            x       y       z     vdW  Elec       q    Type
REMARK                         _______ _______ _______ _____ _____    ______ ____
ROOT
ATOM      1  C   UNL     1       2.401  -2.713   2.136  0.00  0.00    +0.000 A 
ATOM      2  C   UNL     1       1.542  -3.639   2.735  0.00  0.00    +0.000 A 
ATOM      3  C   UNL     1       0.633  -3.239   3.721  0.00  0.00    +0.000 A 
ATOM      4  C   UNL     1       0.515  -1.899   4.105  0.00  0.00    +0.000 A 
ATOM      5  C   UNL     1       1.371  -0.974   3.490  0.00  0.00    +0.000 A 
ATOM      6  C   UNL     1       2.302  -1.371   2.518  0.00  0.00    +0.000 A 
ENDROOT
BRANCH   4   7
ATOM      7  N   UNL     1      -0.318  -1.454   5.141  0.00  0.00    +0.000 N 
ATOM      8  H   UNL     1      -0.744  -0.560   4.921  0.00  0.00    +0.000 HD
BRANCH   7   9
ATOM      9  C   UNL     1      -1.187  -2.419   5.832  0.00  0.00    +0.000 C 
BRANCH   9  10
ATOM     10  C   UNL     1      -2.095  -1.788   6.935  0.00  0.00    +0.000 C 
ATOM     11  C   UNL     1      -1.222  -1.055   7.972  0.00  0.00    +0.000 C 
ATOM     12  C   UNL     1      -3.085  -0.796   6.289  0.00  0.00    +0.000 C 
BRANCH  10  13
ATOM     13  C   UNL     1      -2.897  -2.909   7.631  0.00  0.00    +0.000 A 
ATOM     14  C   UNL     1      -3.786  -2.634   8.673  0.00  0.00    +0.000 A 
ATOM     15  C   UNL     1      -4.498  -3.678   9.262  0.00  0.00    +0.000 A 
ATOM     16  C   UNL     1      -4.311  -4.976   8.807  0.00  0.00    +0.000 A 
ATOM     17  C   UNL     1      -3.415  -5.174   7.776  0.00  0.00    +0.000 A 
ATOM     18  N   UNL     1      -2.718  -4.179   7.185  0.00  0.00    +0.000 NA
ENDBRANCH  10  13
ENDBRANCH   9  10
ENDBRANCH   7   9
ENDBRANCH   4   7
BRANCH   1  19
ATOM     19  C   UNL     1       3.373  -3.169   1.079  0.00  0.00    +0.000 C 
BRANCH  19  22
ATOM     20  C   UNL     1       3.167  -3.923  -1.264  0.00  0.00    +0.000 C 
ATOM     21  O   UNL     1       4.042  -4.772  -1.121  0.00  0.00    +0.000 OA
ATOM     22  N   UNL     1       2.759  -3.133  -0.226  0.00  0.00    +0.000 N 
ATOM     23  H   UNL     1       2.097  -2.388  -0.390  0.00  0.00    +0.000 HD
BRANCH  20  31
ATOM     24  C   UNL     1       0.728  -1.754  -2.374  0.00  0.00    +0.000 A 
ATOM     25  N   UNL     1      -0.134  -0.989  -3.076  0.00  0.00    +0.000 NA
ATOM     26  C   UNL     1      -0.265  -1.231  -4.382  0.00  0.00    +0.000 A 
ATOM     27  N   UNL     1       0.359  -2.168  -5.089  0.00  0.00    +0.000 NA
ATOM     28  C   UNL     1       1.215  -2.900  -4.356  0.00  0.00    +0.000 A 
ATOM     29  S   UNL     1       2.095  -4.149  -5.093  0.00  0.00    +0.000 S 
ATOM     30  C   UNL     1       2.885  -4.520  -3.635  0.00  0.00    +0.000 A 
ATOM     31  C   UNL     1       2.511  -3.712  -2.570  0.00  0.00    +0.000 A 
ATOM     32  C   UNL     1       1.488  -2.758  -2.998  0.00  0.00    +0.000 A 
BRANCH  24  34
ATOM     33  C   UNL     1      -0.289  -0.916  -0.443  0.00  0.00    +0.000 C 
ATOM     34  O   UNL     1       0.878  -1.483  -1.030  0.00  0.00    +0.000 OA
ENDBRANCH  24  34
ENDBRANCH  20  31
ENDBRANCH  19  22
ENDBRANCH   1  19
TORSDOF 8
