REMARK  Name = 
REMARK  9 active torsions:
REMARK  status: ('A' for Active; 'I' for Inactive)
REMARK    1  A    between atoms: C_1  and  O_2
REMARK    2  A    between atoms: O_2  and  C_3
REMARK    3  A    between atoms: C_5  and  C_6
REMARK    4  A    between atoms: C_6  and  N_7
REMARK    5  A    between atoms: C_8  and  C_10
REMARK    6  A    between atoms: C_22  and  C_23
REMARK    7  A    between atoms: C_23  and  N_24
REMARK    8  A    between atoms: N_24  and  C_25
REMARK    9  A    between atoms: C_25  and  C_26
REMARK                            x       y       z     vdW  Elec       q    Type
REMARK                         _______ _______ _______ _____ _____    ______ ____
ROOT
ATOM      1  C   UNL     1       3.124   0.185  -1.225  0.00  0.00    +0.000 A 
ATOM      2  C   UNL     1       2.725   1.079  -2.230  0.00  0.00    +0.000 A 
ATOM      3  C   UNL     1       3.414   1.154  -3.445  0.00  0.00    +0.000 A 
ATOM      4  C   UNL     1       4.474   0.281  -3.618  0.00  0.00    +0.000 A 
ATOM      5  N   UNL     1       4.886  -0.598  -2.679  0.00  0.00    +0.000 NA
ATOM      6  C   UNL     1       4.201  -0.666  -1.497  0.00  0.00    +0.000 A 
ENDROOT
BRANCH   1   8
ATOM      7  C   UNL     1       2.976   0.047   1.151  0.00  0.00    +0.000 C 
ATOM      8  O   UNL     1       2.337   0.227  -0.107  0.00  0.00    +0.000 OA
ENDBRANCH   1   8
BRANCH   3   9
ATOM      9  C   UNL     1       3.026   2.116  -4.527  0.00  0.00    +0.000 C 
BRANCH   9  10
ATOM     10  N   UNL     1       2.070   1.543  -5.441  0.00  0.00    +0.000 N 
ATOM     11  C   UNL     1       1.720   2.199  -6.595  0.00  0.00    +0.000 C 
ATOM     12  O   UNL     1       2.246   3.262  -6.920  0.00  0.00    +0.000 OA
ATOM     13  H   UNL     1       1.467   0.807  -5.086  0.00  0.00    +0.000 HD
BRANCH  11  14
ATOM     14  C   UNL     1       0.729   1.544  -7.457  0.00  0.00    +0.000 A 
ATOM     15  C   UNL     1       0.653   1.890  -8.800  0.00  0.00    +0.000 A 
ATOM     16  S   UNL     1      -0.516   1.003  -9.673  0.00  0.00    +0.000 S 
ATOM     17  C   UNL     1      -1.000   0.164  -8.274  0.00  0.00    +0.000 A 
ATOM     18  N   UNL     1      -2.003  -0.755  -8.322  0.00  0.00    +0.000 NA
ATOM     19  C   UNL     1      -2.288  -1.293  -7.182  0.00  0.00    +0.000 A 
ATOM     20  N   UNL     1      -1.657  -1.001  -6.002  0.00  0.00    +0.000 N 
ATOM     21  C   UNL     1      -0.624  -0.096  -5.911  0.00  0.00    +0.000 A 
ATOM     22  O   UNL     1      -0.061   0.121  -4.841  0.00  0.00    +0.000 OA
ATOM     23  C   UNL     1      -0.269   0.542  -7.159  0.00  0.00    +0.000 A 
ATOM     24  H   UNL     1      -1.923  -1.464  -5.145  0.00  0.00    +0.000 HD
ENDBRANCH  11  14
ENDBRANCH   9  10
ENDBRANCH   3   9
BRANCH   6  25
ATOM     25  C   UNL     1       4.666  -1.740  -0.525  0.00  0.00    +0.000 C 
BRANCH  25  26
ATOM     26  N   UNL     1       5.736  -2.585  -1.054  0.00  0.00    +0.000 NA
ATOM     27  H   UNL     1       6.464  -1.972  -1.426  0.00  0.00    +0.000 HD
BRANCH  26  28
ATOM     28  C   UNL     1       6.281  -3.495  -0.060  0.00  0.00    +0.000 C 
BRANCH  28  29
ATOM     29  C   UNL     1       7.439  -4.253  -0.658  0.00  0.00    +0.000 A 
ATOM     30  C   UNL     1       8.708  -4.217  -0.080  0.00  0.00    +0.000 A 
ATOM     31  C   UNL     1       9.742  -4.884  -0.719  0.00  0.00    +0.000 A 
ATOM     32  N   UNL     1       9.599  -5.572  -1.874  0.00  0.00    +0.000 NA
ATOM     33  C   UNL     1       8.363  -5.595  -2.412  0.00  0.00    +0.000 A 
ATOM     34  C   UNL     1       7.266  -4.971  -1.843  0.00  0.00    +0.000 A 
ENDBRANCH  28  29
ENDBRANCH  26  28
ENDBRANCH  25  26
ENDBRANCH   6  25
TORSDOF 8
