REMARK  Name = 
REMARK  5 active torsions:
REMARK  status: ('A' for Active; 'I' for Inactive)
REMARK    1  A    between atoms: C_1  and  C_2
REMARK    2  A    between atoms: C_4  and  C_5
REMARK    3  A    between atoms: C_10  and  C_11
REMARK    4  A    between atoms: C_11  and  O_12
REMARK    5  A    between atoms: O_12  and  C_13
REMARK                            x       y       z     vdW  Elec       q    Type
REMARK                         _______ _______ _______ _____ _____    ______ ____
ROOT
ATOM      1  C   UNL     1      -2.561  -0.146  -0.017  0.00  0.00    +0.000 C 
ATOM      2  C   UNL     1      -1.060  -0.063  -0.005  0.00  0.00    +0.000 A 
ATOM      3  C   UNL     1      -0.325  -1.257  -0.003  0.00  0.00    +0.000 A 
ATOM      4  C   UNL     1       1.061  -1.197   0.009  0.00  0.00    +0.000 A 
ATOM      5  N   UNL     1       1.767  -0.034   0.029  0.00  0.00    +0.000 NA
ATOM      6  C   UNL     1       1.033   1.104   0.038  0.00  0.00    +0.000 A 
ATOM      7  C   UNL     1      -0.364   1.160   0.005  0.00  0.00    +0.000 A 
ENDROOT
BRANCH   4   8
ATOM      8  C   UNL     1       1.849  -2.472  -0.009  0.00  0.00    +0.000 C 
ATOM      9  N   UNL     1       3.210  -2.327  -0.004  0.00  0.00    +0.000 N 
ATOM     10  O   UNL     1       1.322  -3.577  -0.032  0.00  0.00    +0.000 OA
ATOM     11  H   UNL     1       3.613  -1.398   0.018  0.00  0.00    +0.000 HD
ATOM     12  H   UNL     1       3.799  -3.146  -0.014  0.00  0.00    +0.000 HD
ENDBRANCH   4   8
BRANCH   7  13
ATOM     13  C   UNL     1      -1.042   2.512   0.008  0.00  0.00    +0.000 C 
BRANCH  13  14
ATOM     14  O   UNL     1      -1.252   2.918   1.359  0.00  0.00    +0.000 OA
BRANCH  14  15
ATOM     15  C   UNL     1      -1.855   4.127   1.569  0.00  0.00    +0.000 A 
ATOM     16  C   UNL     1      -2.257   5.044   0.602  0.00  0.00    +0.000 A 
ATOM     17  C   UNL     1      -2.869   6.239   0.995  0.00  0.00    +0.000 A 
ATOM     18  C   UNL     1      -3.056   6.477   2.346  0.00  0.00    +0.000 A 
ATOM     19  N   UNL     1      -2.675   5.618   3.312  0.00  0.00    +0.000 NA
ATOM     20  C   UNL     1      -2.085   4.468   2.899  0.00  0.00    +0.000 A 
ENDBRANCH  14  15
ENDBRANCH  13  14
ENDBRANCH   7  13
TORSDOF 4
