REMARK  Name = 
REMARK  6 active torsions:
REMARK  status: ('A' for Active; 'I' for Inactive)
REMARK    1  A    between atoms: C_1  and  O_2
REMARK    2  A    between atoms: O_2  and  C_3
REMARK    3  A    between atoms: C_5  and  C_6
REMARK    4  A    between atoms: N_11  and  C_12
REMARK    5  A    between atoms: C_12  and  C_13
REMARK    6  A    between atoms: C_17  and  C_18
REMARK                            x       y       z     vdW  Elec       q    Type
REMARK                         _______ _______ _______ _____ _____    ______ ____
ROOT
ATOM      1  C   UNL     1       5.443   0.813   0.477  0.00  0.00    +0.000 A 
ATOM      2  C   UNL     1       6.020   0.592  -0.740  0.00  0.00    +0.000 A 
ATOM      3  C   UNL     1       6.574  -0.660  -0.875  0.00  0.00    +0.000 A 
ATOM      4  N   UNL     1       6.570  -1.613   0.095  0.00  0.00    +0.000 NA
ATOM      5  C   UNL     1       5.951  -1.285   1.227  0.00  0.00    +0.000 A 
ATOM      6  N   UNL     1       5.802  -2.191   2.250  0.00  0.00    +0.000 N 
ATOM      7  N   UNL     1       5.390  -0.103   1.453  0.00  0.00    +0.000 NA
ATOM      8  H   UNL     1       5.458  -1.712   3.073  0.00  0.00    +0.000 HD
ENDROOT
BRANCH   3   9
ATOM      9  C   UNL     1       7.232  -1.045  -2.162  0.00  0.00    +0.000 C 
ATOM     10  N   UNL     1       7.758  -2.311  -2.202  0.00  0.00    +0.000 N 
ATOM     11  O   UNL     1       7.298  -0.289  -3.121  0.00  0.00    +0.000 OA
ATOM     12  H   UNL     1       7.649  -2.931  -1.410  0.00  0.00    +0.000 HD
ATOM     13  H   UNL     1       8.192  -2.639  -3.052  0.00  0.00    +0.000 HD
ENDBRANCH   3   9
BRANCH   1  15
ATOM     14  C   UNL     1       4.326   2.159   2.023  0.00  0.00    +0.000 C 
ATOM     15  O   UNL     1       4.886   2.056   0.711  0.00  0.00    +0.000 OA
ENDBRANCH   1  15
BRANCH   6  16
ATOM     16  C   UNL     1       6.771  -3.241   2.446  0.00  0.00    +0.000 C 
BRANCH  16  17
ATOM     17  C   UNL     1       7.877  -2.832   3.390  0.00  0.00    +0.000 A 
ATOM     18  C   UNL     1       7.759  -3.027   4.766  0.00  0.00    +0.000 A 
ATOM     19  C   UNL     1       8.822  -2.674   5.581  0.00  0.00    +0.000 A 
ATOM     20  N   UNL     1       9.967  -2.121   5.125  0.00  0.00    +0.000 NA
ATOM     21  C   UNL     1      10.074  -1.895   3.795  0.00  0.00    +0.000 A 
ATOM     22  C   UNL     1       9.057  -2.260   2.906  0.00  0.00    +0.000 A 
BRANCH  21  23
ATOM     23  C   UNL     1      11.301  -1.214   3.354  0.00  0.00    +0.000 A 
ATOM     24  C   UNL     1      12.520  -1.344   4.039  0.00  0.00    +0.000 A 
ATOM     25  C   UNL     1      13.651  -0.656   3.597  0.00  0.00    +0.000 A 
ATOM     26  C   UNL     1      13.535   0.147   2.477  0.00  0.00    +0.000 A 
ATOM     27  F   UNL     1      14.618   0.814   2.053  0.00  0.00    +0.000 F 
ATOM     28  N   UNL     1      12.397   0.309   1.782  0.00  0.00    +0.000 NA
ATOM     29  C   UNL     1      11.317  -0.369   2.242  0.00  0.00    +0.000 A 
ENDBRANCH  21  23
ENDBRANCH  16  17
ENDBRANCH   6  16
TORSDOF 5
