REMARK  Name = 
REMARK  8 active torsions:
REMARK  status: ('A' for Active; 'I' for Inactive)
REMARK    1  A    between atoms: C_1  and  C_2
REMARK    2  A    between atoms: C_2  and  C_3
REMARK    3  A    between atoms: C_2  and  N_5
REMARK    4  A    between atoms: C_13  and  C_14
REMARK    5  A    between atoms: C_14  and  C_15
REMARK    6  A    between atoms: C_14  and  C_16
REMARK    7  A    between atoms: C_16  and  N_17
REMARK    8  A    between atoms: C_21  and  C_22
REMARK                            x       y       z     vdW  Elec       q    Type
REMARK                         _______ _______ _______ _____ _____    ______ ____
ROOT
ATOM      1  N   UNL     1       5.103  -1.072  -4.339  0.00  0.00    +0.000 NA
ATOM      2  C   UNL     1       6.138  -1.788  -5.141  0.00  0.00    +0.000 C 
ATOM      3  C   UNL     1       6.082  -3.334  -5.072  0.00  0.00    +0.000 C 
ATOM      4  N   UNL     1       6.036  -3.769  -3.681  0.00  0.00    +0.000 N 
ATOM      5  C   UNL     1       6.463  -5.034  -3.356  0.00  0.00    +0.000 A 
ATOM      6  N   UNL     1       7.268  -5.703  -4.189  0.00  0.00    +0.000 NA
ATOM      7  C   UNL     1       7.803  -6.854  -3.739  0.00  0.00    +0.000 A 
ATOM      8  C   UNL     1       7.553  -7.380  -2.494  0.00  0.00    +0.000 A 
ATOM      9  C   UNL     1       6.668  -6.669  -1.718  0.00  0.00    +0.000 A 
ATOM     10  N   UNL     1       6.127  -5.514  -2.151  0.00  0.00    +0.000 NA
ATOM     11  C   UNL     1       5.164  -3.071  -2.740  0.00  0.00    +0.000 C 
ATOM     12  C   UNL     1       5.259  -1.543  -2.941  0.00  0.00    +0.000 C 
ENDROOT
BRANCH   1  14
ATOM     13  C   UNL     1       2.675  -0.501  -4.072  0.00  0.00    +0.000 C 
ATOM     14  C   UNL     1       3.729  -1.280  -4.877  0.00  0.00    +0.000 C 
BRANCH  14  15
ATOM     15  C   UNL     1       3.596  -0.847  -6.299  0.00  0.00    +0.000 C 
ATOM     16  N   UNL     1       3.488  -0.536  -7.410  0.00  0.00    +0.000 NA
ENDBRANCH  14  15
ENDBRANCH   1  14
BRANCH   9  17
ATOM     17  C   UNL     1       6.175  -7.187  -0.381  0.00  0.00    +0.000 C 
ATOM     18  C   UNL     1       4.943  -8.061  -0.630  0.00  0.00    +0.000 C 
BRANCH  17  19
ATOM     19  C   UNL     1       5.837  -6.016   0.568  0.00  0.00    +0.000 C 
BRANCH  19  20
ATOM     20  N   UNL     1       5.447  -6.498   1.891  0.00  0.00    +0.000 N 
ATOM     21  C   UNL     1       5.113  -5.481   2.776  0.00  0.00    +0.000 A 
ATOM     22  N   UNL     1       4.585  -4.333   2.327  0.00  0.00    +0.000 NA
ATOM     23  C   UNL     1       4.356  -3.359   3.228  0.00  0.00    +0.000 A 
ATOM     24  C   UNL     1       4.631  -3.487   4.564  0.00  0.00    +0.000 A 
ATOM     25  C   UNL     1       5.135  -4.710   4.935  0.00  0.00    +0.000 A 
ATOM     26  N   UNL     1       5.391  -5.710   4.065  0.00  0.00    +0.000 NA
ATOM     27  H   UNL     1       6.124  -7.078   2.374  0.00  0.00    +0.000 HD
BRANCH  24  28
ATOM     28  C   UNL     1       4.409  -2.392   5.538  0.00  0.00    +0.000 C 
ATOM     29  F   UNL     1       3.967  -1.239   4.962  0.00  0.00    +0.000 F 
ATOM     30  F   UNL     1       3.497  -2.709   6.497  0.00  0.00    +0.000 F 
ATOM     31  F   UNL     1       5.549  -2.058   6.201  0.00  0.00    +0.000 F 
ENDBRANCH  24  28
ENDBRANCH  19  20
ENDBRANCH  17  19
ENDBRANCH   9  17
TORSDOF 6
