REMARK  Name = 
REMARK  7 active torsions:
REMARK  status: ('A' for Active; 'I' for Inactive)
REMARK    1  A    between atoms: C_1  and  C_2
REMARK    2  A    between atoms: C_2  and  C_3
REMARK    3  A    between atoms: C_7  and  C_8
REMARK    4  A    between atoms: C_8  and  C_9
REMARK    5  A    between atoms: C_9  and  N_10
REMARK    6  A    between atoms: C_14  and  C_15
REMARK    7  A    between atoms: C_23  and  N_24
REMARK                            x       y       z     vdW  Elec       q    Type
REMARK                         _______ _______ _______ _____ _____    ______ ____
ROOT
ATOM      1  C   UNL     1       3.018   0.365   1.450  0.00  0.00    +0.000 A 
ATOM      2  C   UNL     1       2.776   1.639   1.986  0.00  0.00    +0.000 A 
ATOM      3  C   UNL     1       3.100   1.936   3.314  0.00  0.00    +0.000 A 
ATOM      4  C   UNL     1       3.662   0.962   4.143  0.00  0.00    +0.000 A 
ATOM      5  C   UNL     1       3.924  -0.317   3.646  0.00  0.00    +0.000 A 
ATOM      6  C   UNL     1       3.622  -0.574   2.296  0.00  0.00    +0.000 A 
ENDROOT
BRANCH   1   8
ATOM      7  C   UNL     1       1.002   0.087   0.038  0.00  0.00    +0.000 C 
ATOM      8  C   UNL     1       2.547  -0.019   0.027  0.00  0.00    +0.000 C 
ATOM      9  C   UNL     1       3.160   0.955  -1.014  0.00  0.00    +0.000 C 
ATOM     10  C   UNL     1       2.856   0.577  -2.469  0.00  0.00    +0.000 C 
ATOM     11  C   UNL     1       3.239  -0.864  -2.822  0.00  0.00    +0.000 C 
ATOM     12  C   UNL     1       2.623  -1.845  -1.825  0.00  0.00    +0.000 C 
ATOM     13  C   UNL     1       2.936  -1.479  -0.373  0.00  0.00    +0.000 C 
BRANCH  11  14
ATOM     14  N   UNL     1       4.693  -1.035  -2.868  0.00  0.00    +0.000 NA
ATOM     15  H   UNL     1       5.112  -0.824  -1.964  0.00  0.00    +0.000 HD
ATOM     16  H   UNL     1       5.093  -0.362  -3.522  0.00  0.00    +0.000 HD
ENDBRANCH  11  14
ENDBRANCH   1   8
BRANCH   5  17
ATOM     17  C   UNL     1       4.461  -1.405   4.566  0.00  0.00    +0.000 C 
BRANCH  17  18
ATOM     18  C   UNL     1       4.684  -2.750   3.857  0.00  0.00    +0.000 C 
BRANCH  18  19
ATOM     19  N   UNL     1       5.149  -3.822   4.742  0.00  0.00    +0.000 N 
ATOM     20  C   UNL     1       5.335  -5.022   4.009  0.00  0.00    +0.000 A 
ATOM     21  C   UNL     1       5.770  -6.186   4.658  0.00  0.00    +0.000 A 
ATOM     22  N   UNL     1       5.977  -7.382   4.036  0.00  0.00    +0.000 NA
ATOM     23  C   UNL     1       5.739  -7.366   2.695  0.00  0.00    +0.000 A 
ATOM     24  C   UNL     1       5.320  -6.227   2.032  0.00  0.00    +0.000 A 
ATOM     25  N   UNL     1       5.116  -5.048   2.673  0.00  0.00    +0.000 NA
ATOM     26  H   UNL     1       4.487  -4.003   5.493  0.00  0.00    +0.000 HD
BRANCH  23  27
ATOM     27  C   UNL     1       5.933  -8.625   1.926  0.00  0.00    +0.000 C 
ATOM     28  N   UNL     1       6.361  -9.710   2.639  0.00  0.00    +0.000 N 
ATOM     29  O   UNL     1       5.721  -8.694   0.718  0.00  0.00    +0.000 OA
ATOM     30  H   UNL     1       6.542  -9.631   3.634  0.00  0.00    +0.000 HD
ATOM     31  H   UNL     1       6.515 -10.584   2.158  0.00  0.00    +0.000 HD
ENDBRANCH  23  27
ENDBRANCH  18  19
ENDBRANCH  17  18
ENDBRANCH   5  17
TORSDOF 6
