REMARK  Name = 
REMARK  5 active torsions:
REMARK  status: ('A' for Active; 'I' for Inactive)
REMARK    1  A    between atoms: C_1  and  C_2
REMARK    2  A    between atoms: C_2  and  C_3
REMARK    3  A    between atoms: C_2  and  N_4
REMARK    4  A    between atoms: C_2  and  C_14
REMARK    5  A    between atoms: C_8  and  C_9
REMARK                            x       y       z     vdW  Elec       q    Type
REMARK                         _______ _______ _______ _____ _____    ______ ____
ROOT
ATOM      1  N   UNL     1       2.802  -1.101   0.901  0.00  0.00    +0.000 N 
ATOM      2  C   UNL     1       2.321  -1.092   2.217  0.00  0.00    +0.000 A 
ATOM      3  C   UNL     1       2.638  -2.137   3.100  0.00  0.00    +0.000 A 
ATOM      4  N   UNL     1       2.196  -2.226   4.389  0.00  0.00    +0.000 NA
ATOM      5  C   UNL     1       1.394  -1.198   4.778  0.00  0.00    +0.000 A 
ATOM      6  C   UNL     1       1.061  -0.165   3.925  0.00  0.00    +0.000 A 
ATOM      7  N   UNL     1       1.508  -0.107   2.643  0.00  0.00    +0.000 NA
ATOM      8  H   UNL     1       3.808  -1.249   0.906  0.00  0.00    +0.000 HD
ENDROOT
BRANCH   5   9
ATOM      9  C   UNL     1       0.848  -1.198   6.162  0.00  0.00    +0.000 C 
ATOM     10  N   UNL     1       1.166  -2.280   6.935  0.00  0.00    +0.000 N 
ATOM     11  O   UNL     1       0.147  -0.289   6.588  0.00  0.00    +0.000 OA
ATOM     12  H   UNL     1       1.724  -3.034   6.553  0.00  0.00    +0.000 HD
ATOM     13  H   UNL     1       0.791  -2.343   7.871  0.00  0.00    +0.000 HD
ENDBRANCH   5   9
BRANCH   1  15
ATOM     14  C   UNL     1       0.911   0.078  -0.245  0.00  0.00    +0.000 C 
ATOM     15  C   UNL     1       2.438  -0.009  -0.041  0.00  0.00    +0.000 C 
ATOM     16  C   UNL     1       3.015   1.332   0.471  0.00  0.00    +0.000 C 
BRANCH  15  17
ATOM     17  C   UNL     1       3.017  -0.361  -1.443  0.00  0.00    +0.000 A 
ATOM     18  C   UNL     1       3.423   0.644  -2.348  0.00  0.00    +0.000 A 
ATOM     19  C   UNL     1       3.837   0.333  -3.646  0.00  0.00    +0.000 A 
ATOM     20  C   UNL     1       3.852  -0.989  -4.061  0.00  0.00    +0.000 A 
ATOM     21  F   UNL     1       4.230  -1.284  -5.312  0.00  0.00    +0.000 F 
ATOM     22  C   UNL     1       3.460  -2.005  -3.201  0.00  0.00    +0.000 A 
ATOM     23  C   UNL     1       3.040  -1.694  -1.903  0.00  0.00    +0.000 A 
ENDBRANCH  15  17
ENDBRANCH   1  15
TORSDOF 3
