REMARK  Name = 
REMARK  5 active torsions:
REMARK  status: ('A' for Active; 'I' for Inactive)
REMARK    1  A    between atoms: C_1  and  C_2
REMARK    2  A    between atoms: C_2  and  O_3
REMARK    3  A    between atoms: C_2  and  C_13
REMARK    4  A    between atoms: O_3  and  C_4
REMARK    5  A    between atoms: C_7  and  C_8
REMARK                            x       y       z     vdW  Elec       q    Type
REMARK                         _______ _______ _______ _____ _____    ______ ____
ROOT
ATOM      1  O   UNL     1       2.789  -0.870  -1.225  0.00  0.00    +0.000 OA
ENDROOT
BRANCH   1   2
ATOM      2  C   UNL     1       2.987  -2.204  -1.008  0.00  0.00    +0.000 A 
ATOM      3  C   UNL     1       2.446  -2.947   0.038  0.00  0.00    +0.000 A 
ATOM      4  C   UNL     1       2.695  -4.314   0.121  0.00  0.00    +0.000 A 
ATOM      5  C   UNL     1       3.491  -4.906  -0.849  0.00  0.00    +0.000 A 
ATOM      6  N   UNL     1       4.041  -4.224  -1.890  0.00  0.00    +0.000 NA
ATOM      7  C   UNL     1       3.764  -2.892  -1.940  0.00  0.00    +0.000 A 
BRANCH   5   8
ATOM      8  C   UNL     1       3.756  -6.373  -0.764  0.00  0.00    +0.000 C 
ATOM      9  N   UNL     1       4.553  -6.900  -1.743  0.00  0.00    +0.000 N 
ATOM     10  O   UNL     1       3.288  -7.076   0.124  0.00  0.00    +0.000 OA
ATOM     11  H   UNL     1       4.922  -6.300  -2.472  0.00  0.00    +0.000 HD
ATOM     12  H   UNL     1       4.754  -7.891  -1.736  0.00  0.00    +0.000 HD
ENDBRANCH   5   8
ENDBRANCH   1   2
BRANCH   1  14
ATOM     13  C   UNL     1       0.899   0.027   0.058  0.00  0.00    +0.000 C 
ATOM     14  C   UNL     1       2.421  -0.051  -0.101  0.00  0.00    +0.000 C 
BRANCH  14  15
ATOM     15  C   UNL     1       2.956   1.363  -0.309  0.00  0.00    +0.000 A 
ATOM     16  C   UNL     1       3.008   1.964  -1.578  0.00  0.00    +0.000 A 
ATOM     17  C   UNL     1       3.456   3.283  -1.728  0.00  0.00    +0.000 A 
ATOM     18  C   UNL     1       3.849   4.015  -0.610  0.00  0.00    +0.000 A 
ATOM     19 CL   UNL     1       4.390   5.639  -0.804  0.00  0.00    +0.000 Cl
ATOM     20  C   UNL     1       3.790   3.433   0.652  0.00  0.00    +0.000 A 
ATOM     21  F   UNL     1       4.148   4.123   1.745  0.00  0.00    +0.000 F 
ATOM     22  C   UNL     1       3.349   2.121   0.808  0.00  0.00    +0.000 A 
ENDBRANCH  14  15
ENDBRANCH   1  14
TORSDOF 4
