REMARK  Name = 
REMARK  9 active torsions:
REMARK  status: ('A' for Active; 'I' for Inactive)
REMARK    1  A    between atoms: N_1  and  C_2
REMARK    2  A    between atoms: C_2  and  C_3
REMARK    3  A    between atoms: C_2  and  C_19
REMARK    4  A    between atoms: C_3  and  C_4
REMARK    5  A    between atoms: C_7  and  C_8
REMARK    6  A    between atoms: C_8  and  O_9
REMARK    7  A    between atoms: C_8  and  C_10
REMARK    8  A    between atoms: C_10  and  N_11
REMARK    9  A    between atoms: N_11  and  C_12
REMARK                            x       y       z     vdW  Elec       q    Type
REMARK                         _______ _______ _______ _____ _____    ______ ____
ROOT
ATOM      1  C   UNL     1      -1.490 -14.847  -1.434  0.00  0.00    +0.000 A 
ATOM      2  C   UNL     1      -1.060 -14.322  -0.212  0.00  0.00    +0.000 A 
ATOM      3  C   UNL     1      -0.448 -13.069  -0.162  0.00  0.00    +0.000 A 
ATOM      4  C   UNL     1      -0.249 -12.366  -1.346  0.00  0.00    +0.000 A 
ATOM      5  N   UNL     1      -0.543 -12.907  -2.559  0.00  0.00    +0.000 NA
ATOM      6  C   UNL     1      -1.155 -14.122  -2.573  0.00  0.00    +0.000 A 
ENDROOT
BRANCH   1   7
ATOM      7  C   UNL     1      -2.425 -16.041  -1.471  0.00  0.00    +0.000 C 
BRANCH   7   8
ATOM      8  C   UNL     1      -1.977 -17.315  -2.229  0.00  0.00    +0.000 C 
BRANCH   8   9
ATOM      9  C   UNL     1      -3.074 -18.383  -2.266  0.00  0.00    +0.000 A 
ATOM     10  C   UNL     1      -3.679 -18.800  -3.444  0.00  0.00    +0.000 A 
ATOM     11  S   UNL     1      -5.008 -19.847  -3.199  0.00  0.00    +0.000 S 
ATOM     12  C   UNL     1      -4.731 -19.904  -1.521  0.00  0.00    +0.000 A 
ATOM     13  N   UNL     1      -5.506 -20.674  -0.710  0.00  0.00    +0.000 NA
ATOM     14  C   UNL     1      -5.100 -20.727   0.516  0.00  0.00    +0.000 A 
ATOM     15  N   UNL     1      -4.001 -20.062   1.004  0.00  0.00    +0.000 N 
ATOM     16  C   UNL     1      -3.233 -19.210   0.234  0.00  0.00    +0.000 A 
ATOM     17  O   UNL     1      -2.269 -18.608   0.708  0.00  0.00    +0.000 OA
ATOM     18  C   UNL     1      -3.639 -19.134  -1.158  0.00  0.00    +0.000 A 
ATOM     19  H   UNL     1      -3.719 -20.167   1.965  0.00  0.00    +0.000 HD
ENDBRANCH   8   9
BRANCH   8  20
ATOM     20  N   UNL     1      -0.764 -17.889  -1.661  0.00  0.00    +0.000 NA
ATOM     21  H   UNL     1      -0.550 -18.776  -2.110  0.00  0.00    +0.000 HD
ATOM     22  H   UNL     1      -0.923 -18.088  -0.669  0.00  0.00    +0.000 HD
ENDBRANCH   8  20
ENDBRANCH   7   8
ENDBRANCH   1   7
BRANCH   4  23
ATOM     23  C   UNL     1       0.261 -10.932  -1.310  0.00  0.00    +0.000 C 
BRANCH  23  24
ATOM     24  O   UNL     1       1.481 -10.831  -2.055  0.00  0.00    +0.000 OA
ATOM     25  H   UNL     1       1.346 -11.391  -2.844  0.00  0.00    +0.000 HD
ENDBRANCH  23  24
BRANCH  23  26
ATOM     26  C   UNL     1      -0.759  -9.929  -1.919  0.00  0.00    +0.000 C 
BRANCH  26  27
ATOM     27  N   UNL     1      -2.068  -9.781  -1.259  0.00  0.00    +0.000 NA
ATOM     28  H   UNL     1      -2.537 -10.685  -1.304  0.00  0.00    +0.000 HD
BRANCH  27  29
ATOM     29  C   UNL     1      -1.995  -9.370   0.127  0.00  0.00    +0.000 C 
ATOM     30  C   UNL     1      -1.333  -8.029   0.419  0.00  0.00    +0.000 C 
ATOM     31  C   UNL     1      -2.369  -7.018  -0.023  0.00  0.00    +0.000 C 
ATOM     32  C   UNL     1      -3.689  -7.726   0.235  0.00  0.00    +0.000 C 
ATOM     33  N   UNL     1      -3.376  -9.136   0.512  0.00  0.00    +0.000 NA
ATOM     34  H   UNL     1      -3.974  -9.723  -0.062  0.00  0.00    +0.000 HD
ENDBRANCH  27  29
ENDBRANCH  26  27
ENDBRANCH  23  26
ENDBRANCH   4  23
TORSDOF 9
