REMARK  Name = 
REMARK  9 active torsions:
REMARK  status: ('A' for Active; 'I' for Inactive)
REMARK    1  A    between atoms: C_1  and  O_2
REMARK    2  A    between atoms: O_2  and  C_3
REMARK    3  A    between atoms: C_10  and  C_11
REMARK    4  A    between atoms: N_13  and  C_14
REMARK    5  A    between atoms: C_14  and  C_15
REMARK    6  A    between atoms: C_18  and  C_19
REMARK    7  A    between atoms: C_19  and  N_20
REMARK    8  A    between atoms: N_20  and  C_21
REMARK    9  A    between atoms: C_21  and  C_22
REMARK                            x       y       z     vdW  Elec       q    Type
REMARK                         _______ _______ _______ _____ _____    ______ ____
ROOT
ATOM      1  C   UNL     1       2.684   3.332  -0.760  0.00  0.00    +0.000 C 
ENDROOT
BRANCH   1   2
ATOM      2  C   UNL     1       1.455   2.911  -1.540  0.00  0.00    +0.000 A 
ATOM      3  C   UNL     1       1.345   1.615  -2.065  0.00  0.00    +0.000 A 
ATOM      4  C   UNL     1       0.156   1.181  -2.671  0.00  0.00    +0.000 A 
ATOM      5  C   UNL     1      -0.941   2.043  -2.810  0.00  0.00    +0.000 A 
ATOM      6  C   UNL     1      -0.794   3.368  -2.375  0.00  0.00    +0.000 A 
ATOM      7  C   UNL     1       0.387   3.796  -1.745  0.00  0.00    +0.000 A 
BRANCH   5   8
ATOM      8  C   UNL     1      -2.238   1.569  -3.442  0.00  0.00    +0.000 C 
BRANCH   8   9
ATOM      9  N   UNL     1      -2.821   0.439  -2.717  0.00  0.00    +0.000 NA
ATOM     10  H   UNL     1      -2.998   0.718  -1.752  0.00  0.00    +0.000 HD
BRANCH   9  11
ATOM     11  C   UNL     1      -4.082  -0.010  -3.317  0.00  0.00    +0.000 C 
BRANCH  11  12
ATOM     12  C   UNL     1      -4.662  -1.163  -2.538  0.00  0.00    +0.000 A 
ATOM     13  C   UNL     1      -3.965  -2.367  -2.391  0.00  0.00    +0.000 A 
ATOM     14  C   UNL     1      -4.517  -3.405  -1.646  0.00  0.00    +0.000 A 
ATOM     15  C   UNL     1      -5.763  -3.209  -1.074  0.00  0.00    +0.000 A 
ATOM     16  N   UNL     1      -6.475  -2.069  -1.199  0.00  0.00    +0.000 NA
ATOM     17  C   UNL     1      -5.909  -1.076  -1.925  0.00  0.00    +0.000 A 
ENDBRANCH  11  12
ENDBRANCH   9  11
ENDBRANCH   8   9
ENDBRANCH   5   8
ENDBRANCH   1   2
BRANCH   1  20
ATOM     18  C   UNL     1       4.889   4.393  -1.147  0.00  0.00    +0.000 C 
ATOM     19  O   UNL     1       5.191   4.323   0.046  0.00  0.00    +0.000 OA
ATOM     20  N   UNL     1       3.681   3.935  -1.602  0.00  0.00    +0.000 N 
ATOM     21  H   UNL     1       3.467   3.995  -2.587  0.00  0.00    +0.000 HD
BRANCH  18  29
ATOM     22  C   UNL     1       4.711   4.835  -4.550  0.00  0.00    +0.000 A 
ATOM     23  N   UNL     1       4.867   5.165  -5.846  0.00  0.00    +0.000 NA
ATOM     24  C   UNL     1       5.990   5.792  -6.200  0.00  0.00    +0.000 A 
ATOM     25  N   UNL     1       7.003   6.128  -5.403  0.00  0.00    +0.000 NA
ATOM     26  C   UNL     1       6.799   5.797  -4.119  0.00  0.00    +0.000 A 
ATOM     27  S   UNL     1       7.983   6.150  -2.957  0.00  0.00    +0.000 S 
ATOM     28  C   UNL     1       7.038   5.481  -1.712  0.00  0.00    +0.000 A 
ATOM     29  C   UNL     1       5.812   4.984  -2.141  0.00  0.00    +0.000 A 
ATOM     30  C   UNL     1       5.680   5.160  -3.585  0.00  0.00    +0.000 A 
BRANCH  22  32
ATOM     31  C   UNL     1       2.989   3.417  -5.242  0.00  0.00    +0.000 C 
ATOM     32  O   UNL     1       3.551   4.189  -4.186  0.00  0.00    +0.000 OA
ENDBRANCH  22  32
ENDBRANCH  18  29
ENDBRANCH   1  20
TORSDOF 8
