REMARK  Name = 
REMARK  5 active torsions:
REMARK  status: ('A' for Active; 'I' for Inactive)
REMARK    1  A    between atoms: C_1  and  C_2
REMARK    2  A    between atoms: C_2  and  C_3
REMARK    3  A    between atoms: C_2  and  C_14
REMARK    4  A    between atoms: C_3  and  N_4
REMARK    5  A    between atoms: C_8  and  C_9
REMARK                            x       y       z     vdW  Elec       q    Type
REMARK                         _______ _______ _______ _____ _____    ______ ____
ROOT
ATOM      1  N   UNL     1       2.883  -0.914  -2.366  0.00  0.00    +0.000 N 
ATOM      2  C   UNL     1       3.431  -0.823  -3.656  0.00  0.00    +0.000 A 
ATOM      3  C   UNL     1       3.217  -1.861  -4.576  0.00  0.00    +0.000 A 
ATOM      4  N   UNL     1       3.703  -1.873  -5.847  0.00  0.00    +0.000 NA
ATOM      5  C   UNL     1       4.446  -0.779  -6.165  0.00  0.00    +0.000 A 
ATOM      6  C   UNL     1       4.681   0.249  -5.266  0.00  0.00    +0.000 A 
ATOM      7  N   UNL     1       4.186   0.240  -4.003  0.00  0.00    +0.000 NA
ATOM      8  H   UNL     1       1.880  -1.059  -2.443  0.00  0.00    +0.000 HD
ENDROOT
BRANCH   5   9
ATOM      9  C   UNL     1       5.018  -0.694  -7.536  0.00  0.00    +0.000 C 
ATOM     10  N   UNL     1       4.760  -1.757  -8.357  0.00  0.00    +0.000 N 
ATOM     11  O   UNL     1       5.681   0.265  -7.910  0.00  0.00    +0.000 OA
ATOM     12  H   UNL     1       4.214  -2.540  -8.016  0.00  0.00    +0.000 HD
ATOM     13  H   UNL     1       5.129  -1.757  -9.297  0.00  0.00    +0.000 HD
ENDBRANCH   5   9
BRANCH   1  14
ATOM     14  C   UNL     1       3.173   0.238  -1.517  0.00  0.00    +0.000 C 
BRANCH  14  16
ATOM     15  C   UNL     1       2.963  -0.996   0.732  0.00  0.00    +0.000 C 
ATOM     16  C   UNL     1       2.436   0.024  -0.226  0.00  0.00    +0.000 C 
BRANCH  16  17
ATOM     17  C   UNL     1       1.022   0.424  -0.172  0.00  0.00    +0.000 A 
ATOM     18  C   UNL     1       0.646   1.754  -0.399  0.00  0.00    +0.000 A 
ATOM     19  C   UNL     1      -0.704   2.109  -0.445  0.00  0.00    +0.000 A 
ATOM     20  C   UNL     1      -1.687   1.138  -0.272  0.00  0.00    +0.000 A 
ATOM     21  C   UNL     1      -1.322  -0.183  -0.024  0.00  0.00    +0.000 A 
ATOM     22  C   UNL     1       0.026  -0.536   0.036  0.00  0.00    +0.000 A 
ENDBRANCH  16  17
ENDBRANCH  14  16
ENDBRANCH   1  14
TORSDOF 4
