REMARK  Name = 
REMARK  6 active torsions:
REMARK  status: ('A' for Active; 'I' for Inactive)
REMARK    1  A    between atoms: C_2  and  C_4
REMARK    2  A    between atoms: N_8  and  C_9
REMARK    3  A    between atoms: C_9  and  C_10
REMARK    4  A    between atoms: C_10  and  C_13
REMARK    5  A    between atoms: C_17  and  O_18
REMARK    6  A    between atoms: O_18  and  C_19
REMARK                            x       y       z     vdW  Elec       q    Type
REMARK                         _______ _______ _______ _____ _____    ______ ____
ROOT
ATOM      1  C   UNL     1       4.948   4.446   4.104  0.00  0.00    +0.000 C 
ENDROOT
BRANCH   1   6
ATOM      2  C   UNL     1       2.784   1.546   0.538  0.00  0.00    +0.000 A 
ATOM      3  C   UNL     1       2.201   2.289   1.557  0.00  0.00    +0.000 A 
ATOM      4  C   UNL     1       2.999   3.155   2.306  0.00  0.00    +0.000 A 
ATOM      5  C   UNL     1       4.362   3.261   2.036  0.00  0.00    +0.000 A 
ATOM      6  N   UNL     1       5.187   4.172   2.678  0.00  0.00    +0.000 N 
ATOM      7  N   UNL     1       4.941   2.520   1.072  0.00  0.00    +0.000 NA
ATOM      8  C   UNL     1       4.153   1.676   0.354  0.00  0.00    +0.000 A 
ATOM      9  H   UNL     1       6.152   3.977   2.418  0.00  0.00    +0.000 HD
BRANCH   2  11
ATOM     10  N   UNL     1       0.689   0.953  -0.530  0.00  0.00    +0.000 N 
ATOM     11  C   UNL     1       2.006   0.642  -0.330  0.00  0.00    +0.000 C 
ATOM     12  O   UNL     1       2.520  -0.326  -0.875  0.00  0.00    +0.000 OA
ATOM     13  H   UNL     1       0.189   0.388  -1.209  0.00  0.00    +0.000 HD
ATOM     14  H   UNL     1       0.307   1.865  -0.318  0.00  0.00    +0.000 HD
ENDBRANCH   2  11
ENDBRANCH   1   6
BRANCH   1  15
ATOM     15  C   UNL     1       5.976   5.399   4.762  0.00  0.00    +0.000 C 
ATOM     16  F   UNL     1       7.206   4.798   4.725  0.00  0.00    +0.000 F 
ATOM     17  F   UNL     1       6.103   6.524   3.995  0.00  0.00    +0.000 F 
BRANCH  15  18
ATOM     18  C   UNL     1       5.554   5.744   6.190  0.00  0.00    +0.000 A 
ATOM     19  C   UNL     1       6.374   6.560   6.969  0.00  0.00    +0.000 A 
ATOM     20  C   UNL     1       6.004   6.828   8.286  0.00  0.00    +0.000 A 
ATOM     21  C   UNL     1       4.825   6.290   8.790  0.00  0.00    +0.000 A 
ATOM     22  C   UNL     1       4.041   5.533   7.940  0.00  0.00    +0.000 A 
ATOM     23  N   UNL     1       4.377   5.246   6.667  0.00  0.00    +0.000 NA
BRANCH  22  24
ATOM     24  O   UNL     1       2.839   5.065   8.429  0.00  0.00    +0.000 OA
BRANCH  24  25
ATOM     25  C   UNL     1       1.870   4.688   7.431  0.00  0.00    +0.000 C 
ATOM     26  C   UNL     1       1.193   5.829   6.653  0.00  0.00    +0.000 C 
ATOM     27  C   UNL     1      -0.109   5.168   7.079  0.00  0.00    +0.000 C 
ATOM     28  O   UNL     1       0.586   4.303   8.006  0.00  0.00    +0.000 OA
ENDBRANCH  24  25
ENDBRANCH  22  24
ENDBRANCH  15  18
ENDBRANCH   1  15
TORSDOF 6
