REMARK  Name = 
REMARK  10 active torsions:
REMARK  status: ('A' for Active; 'I' for Inactive)
REMARK    1  A    between atoms: C_1  and  O_2
REMARK    2  A    between atoms: O_2  and  C_3
REMARK    3  A    between atoms: N_10  and  C_11
REMARK    4  A    between atoms: C_15  and  C_16
REMARK    5  A    between atoms: C_16  and  C_17
REMARK    6  A    between atoms: C_16  and  C_18
REMARK    7  A    between atoms: C_16  and  C_19
REMARK    8  A    between atoms: C_19  and  N_20
REMARK    9  A    between atoms: N_20  and  C_21
REMARK   10  A    between atoms: C_24  and  C_25
REMARK                            x       y       z     vdW  Elec       q    Type
REMARK                         _______ _______ _______ _____ _____    ______ ____
ROOT
ATOM      1  C   UNL     1       3.146  -1.197  -0.215  0.00  0.00    +0.000 A 
ATOM      2  C   UNL     1       2.841  -2.238  -1.085  0.00  0.00    +0.000 A 
ATOM      3  C   UNL     1       3.567  -3.409  -1.033  0.00  0.00    +0.000 A 
ATOM      4  C   UNL     1       4.571  -3.556  -0.088  0.00  0.00    +0.000 A 
ATOM      5  N   UNL     1       5.217  -4.778  -0.055  0.00  0.00    +0.000 N 
ATOM      6  C   UNL     1       6.612  -4.873   0.368  0.00  0.00    +0.000 C 
ATOM      7  C   UNL     1       7.247  -6.117  -0.317  0.00  0.00    +0.000 C 
ATOM      8  N   UNL     1       6.495  -7.368  -0.039  0.00  0.00    +0.000 NA
ATOM      9  C   UNL     1       7.092  -8.500  -0.745  0.00  0.00    +0.000 C 
ATOM     10  C   UNL     1       5.077  -7.186  -0.434  0.00  0.00    +0.000 C 
ATOM     11  C   UNL     1       4.417  -5.971   0.265  0.00  0.00    +0.000 C 
ATOM     12  N   UNL     1       4.888  -2.557   0.767  0.00  0.00    +0.000 NA
ATOM     13  C   UNL     1       4.191  -1.373   0.714  0.00  0.00    +0.000 A 
ENDROOT
BRANCH  13  14
ATOM     14  C   UNL     1       4.622  -0.279   1.718  0.00  0.00    +0.000 C 
ATOM     15  C   UNL     1       5.105   0.970   0.928  0.00  0.00    +0.000 C 
ATOM     16  C   UNL     1       3.423   0.126   2.597  0.00  0.00    +0.000 C 
BRANCH  14  17
ATOM     17  C   UNL     1       5.806  -0.716   2.652  0.00  0.00    +0.000 C 
BRANCH  17  18
ATOM     18  N   UNL     1       5.534  -1.879   3.524  0.00  0.00    +0.000 N 
ATOM     19  H   UNL     1       5.178  -2.668   2.977  0.00  0.00    +0.000 HD
BRANCH  18  20
ATOM     20  C   UNL     1       6.615  -2.272   4.343  0.00  0.00    +0.000 A 
ATOM     21  C   UNL     1       7.540  -1.349   4.856  0.00  0.00    +0.000 A 
ATOM     22  C   UNL     1       8.541  -1.740   5.752  0.00  0.00    +0.000 A 
ATOM     23  C   UNL     1       8.620  -3.065   6.176  0.00  0.00    +0.000 A 
ATOM     24  C   UNL     1       7.713  -4.000   5.672  0.00  0.00    +0.000 A 
ATOM     25  C   UNL     1       6.712  -3.600   4.775  0.00  0.00    +0.000 A 
BRANCH  23  26
ATOM     26  C   UNL     1       9.615  -3.458   7.148  0.00  0.00    +0.000 C 
ATOM     27  N   UNL     1      10.399  -3.760   7.929  0.00  0.00    +0.000 NA
ENDBRANCH  23  26
ENDBRANCH  18  20
ENDBRANCH  17  18
ENDBRANCH  14  17
ENDBRANCH  13  14
BRANCH   1  29
ATOM     28  C   UNL     1       1.159  -0.138  -0.900  0.00  0.00    +0.000 C 
ATOM     29  O   UNL     1       2.473  -0.006  -0.346  0.00  0.00    +0.000 OA
ENDBRANCH   1  29
TORSDOF 6
