REMARK  Name = 
REMARK  5 active torsions:
REMARK  status: ('A' for Active; 'I' for Inactive)
REMARK    1  A    between atoms: C_2  and  C_5
REMARK    2  A    between atoms: C_7  and  N_8
REMARK    3  A    between atoms: N_8  and  C_9
REMARK    4  A    between atoms: C_9  and  C_10
REMARK    5  A    between atoms: C_17  and  C_18
REMARK                            x       y       z     vdW  Elec       q    Type
REMARK                         _______ _______ _______ _____ _____    ______ ____
ROOT
ATOM      1  C   UNL     1       2.701   0.985   1.096  0.00  0.00    +0.000 A 
ATOM      2  C   UNL     1       2.427   2.330   0.945  0.00  0.00    +0.000 A 
ATOM      3  C   UNL     1       2.825   3.185   1.953  0.00  0.00    +0.000 A 
ATOM      4  N   UNL     1       3.430   2.734   3.062  0.00  0.00    +0.000 NA
ATOM      5  C   UNL     1       3.607   1.402   3.177  0.00  0.00    +0.000 A 
ATOM      6  N   UNL     1       3.282   0.512   2.224  0.00  0.00    +0.000 NA
ENDROOT
BRANCH   5   7
ATOM      7  C   UNL     1       4.136   0.866   4.440  0.00  0.00    +0.000 A 
ATOM      8  C   UNL     1       4.381   1.663   5.567  0.00  0.00    +0.000 A 
ATOM      9  C   UNL     1       4.846   1.098   6.756  0.00  0.00    +0.000 A 
ATOM     10  C   UNL     1       5.060  -0.267   6.795  0.00  0.00    +0.000 A 
ATOM     11  N   UNL     1       4.850  -1.082   5.743  0.00  0.00    +0.000 NA
ATOM     12  C   UNL     1       4.396  -0.498   4.603  0.00  0.00    +0.000 A 
ENDBRANCH   5   7
BRANCH   1  14
ATOM     13  F   UNL     1       1.738   0.598  -1.079  0.00  0.00    +0.000 F 
ATOM     14  C   UNL     1       2.369   0.009  -0.020  0.00  0.00    +0.000 C 
ATOM     15  F   UNL     1       1.543  -0.998   0.381  0.00  0.00    +0.000 F 
ATOM     16  F   UNL     1       3.474  -0.591  -0.545  0.00  0.00    +0.000 F 
ENDBRANCH   1  14
BRANCH   3  17
ATOM     17  N   UNL     1       2.592   4.550   1.762  0.00  0.00    +0.000 N 
ATOM     18  H   UNL     1       1.602   4.751   1.664  0.00  0.00    +0.000 HD
BRANCH  17  19
ATOM     19  C   UNL     1       3.342   5.509   2.556  0.00  0.00    +0.000 C 
BRANCH  19  20
ATOM     20  C   UNL     1       2.794   5.769   3.920  0.00  0.00    +0.000 A 
ATOM     21  C   UNL     1       3.563   5.585   5.053  0.00  0.00    +0.000 A 
ATOM     22  N   UNL     1       3.157   5.884   6.303  0.00  0.00    +0.000 NA
ATOM     23  C   UNL     1       1.920   6.394   6.402  0.00  0.00    +0.000 A 
ATOM     24  N   UNL     1       1.078   6.620   5.382  0.00  0.00    +0.000 NA
ATOM     25  C   UNL     1       1.542   6.300   4.156  0.00  0.00    +0.000 A 
ENDBRANCH  19  20
ENDBRANCH  17  19
ENDBRANCH   3  17
TORSDOF 5
