REMARK  Name = 
REMARK  5 active torsions:
REMARK  status: ('A' for Active; 'I' for Inactive)
REMARK    1  A    between atoms: C_2  and  C_4
REMARK    2  A    between atoms: C_7  and  C_8
REMARK    3  A    between atoms: C_8  and  C_9
REMARK    4  A    between atoms: C_12  and  O_13
REMARK    5  A    between atoms: O_13  and  C_14
REMARK                            x       y       z     vdW  Elec       q    Type
REMARK                         _______ _______ _______ _____ _____    ______ ____
ROOT
ATOM      1  C   UNL     1       5.265  -4.420  -1.597  0.00  0.00    +0.000 C 
ATOM      2  C   UNL     1       5.768  -4.709  -3.020  0.00  0.00    +0.000 C 
ATOM      3  C   UNL     1       4.692  -5.566  -2.441  0.00  0.00    +0.000 C 
ENDROOT
BRANCH   1   7
ATOM      4  C   UNL     1       2.784  -1.008  -1.292  0.00  0.00    +0.000 A 
ATOM      5  C   UNL     1       2.365  -2.231  -0.799  0.00  0.00    +0.000 A 
ATOM      6  N   UNL     1       3.152  -3.338  -0.833  0.00  0.00    +0.000 NA
ATOM      7  C   UNL     1       4.393  -3.190  -1.384  0.00  0.00    +0.000 A 
ATOM      8  C   UNL     1       4.807  -1.934  -1.837  0.00  0.00    +0.000 A 
ATOM      9  N   UNL     1       4.025  -0.822  -1.824  0.00  0.00    +0.000 NA
BRANCH   4  11
ATOM     10  N   UNL     1       2.324   1.264  -1.980  0.00  0.00    +0.000 N 
ATOM     11  C   UNL     1       1.853   0.149  -1.335  0.00  0.00    +0.000 C 
ATOM     12  O   UNL     1       0.731   0.106  -0.843  0.00  0.00    +0.000 OA
ATOM     13  H   UNL     1       1.721   2.064  -2.102  0.00  0.00    +0.000 HD
ATOM     14  H   UNL     1       3.238   1.242  -2.413  0.00  0.00    +0.000 HD
ENDBRANCH   4  11
ENDBRANCH   1   7
BRANCH   1  15
ATOM     15  C   UNL     1       6.203  -4.841  -0.472  0.00  0.00    +0.000 A 
ATOM     16  C   UNL     1       5.751  -5.688   0.542  0.00  0.00    +0.000 A 
ATOM     17  C   UNL     1       6.669  -6.441   1.281  0.00  0.00    +0.000 A 
ATOM     18  C   UNL     1       8.027  -6.282   1.044  0.00  0.00    +0.000 A 
ATOM     19  C   UNL     1       8.393  -5.325   0.105  0.00  0.00    +0.000 A 
ATOM     20  N   UNL     1       7.528  -4.601  -0.638  0.00  0.00    +0.000 NA
BRANCH  18  21
ATOM     21  O   UNL     1       9.064  -6.964   1.587  0.00  0.00    +0.000 OA
BRANCH  21  22
ATOM     22  C   UNL     1       8.877  -7.812   2.704  0.00  0.00    +0.000 C 
ATOM     23  F   UNL     1       7.821  -7.470   3.469  0.00  0.00    +0.000 F 
ATOM     24  F   UNL     1       8.739  -9.091   2.298  0.00  0.00    +0.000 F 
ATOM     25  F   UNL     1       9.985  -7.729   3.473  0.00  0.00    +0.000 F 
ENDBRANCH  21  22
ENDBRANCH  18  21
ENDBRANCH   1  15
TORSDOF 5
