REMARK  Name = 
REMARK  7 active torsions:
REMARK  status: ('A' for Active; 'I' for Inactive)
REMARK    1  A    between atoms: C_1  and  C_2
REMARK    2  A    between atoms: C_2  and  N_3
REMARK    3  A    between atoms: C_2  and  C_16
REMARK    4  A    between atoms: C_4  and  C_6
REMARK    5  A    between atoms: C_19  and  C_20
REMARK    6  A    between atoms: C_20  and  N_21
REMARK    7  A    between atoms: C_22  and  C_24
REMARK                            x       y       z     vdW  Elec       q    Type
REMARK                         _______ _______ _______ _____ _____    ______ ____
ROOT
ATOM      1  C   UNL     1       3.729  -0.818  -0.358  0.00  0.00    +0.000 C 
ATOM      2  C   UNL     1       2.477   0.014  -0.057  0.00  0.00    +0.000 C 
ENDROOT
BRANCH   2   3
ATOM      3  C   UNL     1       2.863   1.413   0.411  0.00  0.00    +0.000 A 
ATOM      4  C   UNL     1       2.487   2.543  -0.328  0.00  0.00    +0.000 A 
ATOM      5  C   UNL     1       2.802   3.830   0.124  0.00  0.00    +0.000 A 
ATOM      6  C   UNL     1       3.506   4.017   1.321  0.00  0.00    +0.000 A 
ATOM      7  C   UNL     1       3.881   2.890   2.062  0.00  0.00    +0.000 A 
ATOM      8  C   UNL     1       3.568   1.605   1.610  0.00  0.00    +0.000 A 
BRANCH   6   9
ATOM      9  C   UNL     1       3.850   5.400   1.810  0.00  0.00    +0.000 C 
BRANCH   9  10
ATOM     10  N   UNL     1       2.801   5.978   2.612  0.00  0.00    +0.000 N 
ATOM     11  C   UNL     1       2.952   7.213   3.201  0.00  0.00    +0.000 C 
ATOM     12  O   UNL     1       3.959   7.903   3.062  0.00  0.00    +0.000 OA
ATOM     13  H   UNL     1       2.030   5.410   2.952  0.00  0.00    +0.000 HD
BRANCH  11  14
ATOM     14  C   UNL     1       1.743   7.692   4.017  0.00  0.00    +0.000 C 
ATOM     15  C   UNL     1       2.086   7.970   5.467  0.00  0.00    +0.000 C 
ATOM     16  C   UNL     1       0.727   7.954   6.140  0.00  0.00    +0.000 C 
ATOM     17  C   UNL     1      -0.106   6.987   5.310  0.00  0.00    +0.000 C 
ATOM     18  N   UNL     1       0.678   6.660   4.113  0.00  0.00    +0.000 NA
ATOM     19  H   UNL     1       0.088   6.718   3.282  0.00  0.00    +0.000 HD
ENDBRANCH  11  14
ENDBRANCH   9  10
ENDBRANCH   6   9
ENDBRANCH   2   3
BRANCH   2  20
ATOM     20  N   UNL     1       1.622  -0.600   0.948  0.00  0.00    +0.000 N 
ATOM     21  C   UNL     1       1.039  -1.832   0.792  0.00  0.00    +0.000 C 
ATOM     22  O   UNL     1       1.237  -2.545  -0.187  0.00  0.00    +0.000 OA
ATOM     23  H   UNL     1       1.187   0.044   1.602  0.00  0.00    +0.000 HD
BRANCH  21  24
ATOM     24  C   UNL     1       0.206  -2.296   1.907  0.00  0.00    +0.000 A 
ATOM     25  C   UNL     1       0.092  -3.655   2.162  0.00  0.00    +0.000 A 
ATOM     26  S   UNL     1      -0.896  -4.017   3.504  0.00  0.00    +0.000 S 
ATOM     27  C   UNL     1      -1.242  -2.371   3.764  0.00  0.00    +0.000 A 
ATOM     28  N   UNL     1      -2.078  -1.980   4.761  0.00  0.00    +0.000 NA
ATOM     29  C   UNL     1      -2.273  -0.705   4.823  0.00  0.00    +0.000 A 
ATOM     30  N   UNL     1      -1.700   0.214   3.986  0.00  0.00    +0.000 N 
ATOM     31  C   UNL     1      -0.819  -0.131   2.987  0.00  0.00    +0.000 A 
ATOM     32  O   UNL     1      -0.270   0.719   2.294  0.00  0.00    +0.000 OA
ATOM     33  C   UNL     1      -0.587  -1.555   2.858  0.00  0.00    +0.000 A 
ATOM     34  H   UNL     1      -1.877   1.202   4.102  0.00  0.00    +0.000 HD
ENDBRANCH  21  24
ENDBRANCH   2  20
TORSDOF 6
