REMARK  Name = 
REMARK  7 active torsions:
REMARK  status: ('A' for Active; 'I' for Inactive)
REMARK    1  A    between atoms: N_1  and  C_2
REMARK    2  A    between atoms: C_2  and  C_3
REMARK    3  A    between atoms: C_3  and  N_4
REMARK    4  A    between atoms: C_3  and  C_17
REMARK    5  A    between atoms: C_5  and  C_7
REMARK    6  A    between atoms: C_20  and  O_21
REMARK    7  A    between atoms: O_21  and  C_22
REMARK                            x       y       z     vdW  Elec       q    Type
REMARK                         _______ _______ _______ _____ _____    ______ ____
ROOT
ATOM      1  C   UNL     1       2.954   1.248  -0.304  0.00  0.00    +0.000 C 
ENDROOT
BRANCH   1   2
ATOM      2  C   UNL     1       4.466   1.405  -0.331  0.00  0.00    +0.000 A 
ATOM      3  C   UNL     1       5.275   1.163   0.788  0.00  0.00    +0.000 A 
ATOM      4  C   UNL     1       6.661   1.296   0.690  0.00  0.00    +0.000 A 
ATOM      5  C   UNL     1       7.195   1.674  -0.533  0.00  0.00    +0.000 A 
ATOM      6  N   UNL     1       6.435   1.972  -1.612  0.00  0.00    +0.000 NA
ATOM      7  C   UNL     1       5.102   1.819  -1.494  0.00  0.00    +0.000 A 
BRANCH   5   8
ATOM      8  O   UNL     1       8.581   1.729  -0.636  0.00  0.00    +0.000 OA
BRANCH   8   9
ATOM      9  C   UNL     1       9.122   1.416  -1.868  0.00  0.00    +0.000 A 
ATOM     10  C   UNL     1      10.223   2.153  -2.296  0.00  0.00    +0.000 A 
ATOM     11  C   UNL     1      10.794   1.890  -3.547  0.00  0.00    +0.000 A 
ATOM     12  C   UNL     1      10.266   0.886  -4.360  0.00  0.00    +0.000 A 
ATOM     13  C   UNL     1       9.190   0.122  -3.915  0.00  0.00    +0.000 A 
ATOM     14  C   UNL     1       8.635   0.370  -2.661  0.00  0.00    +0.000 A 
ENDBRANCH   8   9
ENDBRANCH   5   8
ENDBRANCH   1   2
BRANCH   1  15
ATOM     15  N   UNL     1       2.397   2.276   0.566  0.00  0.00    +0.000 N 
ATOM     16  C   UNL     1       1.046   2.483   0.685  0.00  0.00    +0.000 C 
ATOM     17  O   UNL     1       0.214   1.739   0.177  0.00  0.00    +0.000 OA
ATOM     18  H   UNL     1       3.010   3.061   0.772  0.00  0.00    +0.000 HD
BRANCH  16  19
ATOM     19  C   UNL     1       0.632   3.626   1.501  0.00  0.00    +0.000 A 
ATOM     20  C   UNL     1      -0.574   3.581   2.187  0.00  0.00    +0.000 A 
ATOM     21  S   UNL     1      -0.929   5.020   3.031  0.00  0.00    +0.000 S 
ATOM     22  C   UNL     1       0.499   5.762   2.477  0.00  0.00    +0.000 A 
ATOM     23  N   UNL     1       0.781   7.056   2.781  0.00  0.00    +0.000 NA
ATOM     24  C   UNL     1       1.881   7.497   2.265  0.00  0.00    +0.000 A 
ATOM     25  N   UNL     1       2.738   6.752   1.496  0.00  0.00    +0.000 N 
ATOM     26  C   UNL     1       2.523   5.425   1.216  0.00  0.00    +0.000 A 
ATOM     27  O   UNL     1       3.358   4.746   0.626  0.00  0.00    +0.000 OA
ATOM     28  C   UNL     1       1.266   4.902   1.713  0.00  0.00    +0.000 A 
ATOM     29  H   UNL     1       3.604   7.146   1.159  0.00  0.00    +0.000 HD
ENDBRANCH  16  19
ENDBRANCH   1  15
BRANCH   1  30
ATOM     30  C   UNL     1       2.531  -0.196   0.111  0.00  0.00    +0.000 C 
BRANCH  30  31
ATOM     31  N   UNL     1       3.070  -1.261  -0.748  0.00  0.00    +0.000 NA
ATOM     32  H   UNL     1       2.918  -2.159  -0.289  0.00  0.00    +0.000 HD
ATOM     33  H   UNL     1       4.079  -1.157  -0.848  0.00  0.00    +0.000 HD
ENDBRANCH  30  31
ENDBRANCH   1  30
TORSDOF 7
