REMARK  Name = 
REMARK  8 active torsions:
REMARK  status: ('A' for Active; 'I' for Inactive)
REMARK    1  A    between atoms: C_1  and  C_2
REMARK    2  A    between atoms: C_2  and  N_3
REMARK    3  A    between atoms: C_2  and  C_25
REMARK    4  A    between atoms: N_3  and  C_4
REMARK    5  A    between atoms: C_4  and  C_5
REMARK    6  A    between atoms: C_8  and  C_9
REMARK    7  A    between atoms: C_9  and  N_10
REMARK    8  A    between atoms: C_11  and  C_13
REMARK                            x       y       z     vdW  Elec       q    Type
REMARK                         _______ _______ _______ _____ _____    ______ ____
ROOT
ATOM      1  C   UNL     1       2.975   0.652   3.582  0.00  0.00    +0.000 C 
ATOM      2  C   UNL     1       2.437  -0.693   4.075  0.00  0.00    +0.000 C 
ATOM      3  C   UNL     1       2.761  -0.936   5.545  0.00  0.00    +0.000 C 
ATOM      4  C   UNL     1       2.257   0.197   6.456  0.00  0.00    +0.000 C 
ATOM      5  C   UNL     1       2.715   1.576   5.949  0.00  0.00    +0.000 C 
ATOM      6  C   UNL     1       2.410   1.779   4.464  0.00  0.00    +0.000 C 
ENDROOT
BRANCH   1   7
ATOM      7  C   UNL     1       4.519   0.677   3.565  0.00  0.00    +0.000 C 
BRANCH   7   8
ATOM      8  N   UNL     1       5.072  -0.347   2.678  0.00  0.00    +0.000 NA
ATOM      9  H   UNL     1       4.776  -1.272   2.989  0.00  0.00    +0.000 HD
BRANCH   8  11
ATOM     10  C   UNL     1       7.137   0.978   2.204  0.00  0.00    +0.000 C 
ATOM     11  C   UNL     1       6.551  -0.351   2.683  0.00  0.00    +0.000 C 
BRANCH  11  12
ATOM     12  C   UNL     1       7.077  -1.477   1.798  0.00  0.00    +0.000 A 
ATOM     13  C   UNL     1       6.836  -1.460   0.421  0.00  0.00    +0.000 A 
ATOM     14  C   UNL     1       7.275  -2.526  -0.358  0.00  0.00    +0.000 A 
ATOM     15  C   UNL     1       7.946  -3.575   0.257  0.00  0.00    +0.000 A 
ATOM     16  C   UNL     1       8.163  -3.509   1.622  0.00  0.00    +0.000 A 
ATOM     17  N   UNL     1       7.747  -2.491   2.405  0.00  0.00    +0.000 NA
ENDBRANCH  11  12
ENDBRANCH   8  11
ENDBRANCH   7   8
ENDBRANCH   1   7
BRANCH   4  18
ATOM     18  C   UNL     1       2.719  -0.002   7.910  0.00  0.00    +0.000 C 
BRANCH  18  19
ATOM     19  N   UNL     1       2.234  -1.243   8.472  0.00  0.00    +0.000 N 
ATOM     20  C   UNL     1       1.997  -1.384   9.822  0.00  0.00    +0.000 C 
ATOM     21  O   UNL     1       2.125  -0.456  10.618  0.00  0.00    +0.000 OA
ATOM     22  H   UNL     1       2.454  -2.094   7.960  0.00  0.00    +0.000 HD
BRANCH  20  23
ATOM     23  C   UNL     1       1.487  -2.689  10.245  0.00  0.00    +0.000 A 
ATOM     24  C   UNL     1       0.639  -2.789  11.335  0.00  0.00    +0.000 A 
ATOM     25  S   UNL     1       0.135  -4.388  11.657  0.00  0.00    +0.000 S 
ATOM     26  C   UNL     1       1.065  -5.006  10.371  0.00  0.00    +0.000 A 
ATOM     27  N   UNL     1       1.112  -6.332  10.105  0.00  0.00    +0.000 NA
ATOM     28  C   UNL     1       1.876  -6.653   9.112  0.00  0.00    +0.000 A 
ATOM     29  N   UNL     1       2.593  -5.761   8.356  0.00  0.00    +0.000 N 
ATOM     30  C   UNL     1       2.584  -4.413   8.598  0.00  0.00    +0.000 A 
ATOM     31  O   UNL     1       3.243  -3.633   7.904  0.00  0.00    +0.000 OA
ATOM     32  C   UNL     1       1.739  -3.998   9.696  0.00  0.00    +0.000 A 
ATOM     33  H   UNL     1       3.171  -6.075   7.592  0.00  0.00    +0.000 HD
ENDBRANCH  20  23
ENDBRANCH  18  19
ENDBRANCH   4  18
TORSDOF 7
