REMARK  Name = 
REMARK  12 active torsions:
REMARK  status: ('A' for Active; 'I' for Inactive)
REMARK    1  A    between atoms: C_1  and  O_2
REMARK    2  A    between atoms: O_2  and  C_3
REMARK    3  A    between atoms: C_10  and  C_11
REMARK    4  A    between atoms: N_13  and  C_14
REMARK    5  A    between atoms: C_14  and  C_15
REMARK    6  A    between atoms: C_18  and  C_19
REMARK    7  A    between atoms: C_19  and  C_20
REMARK    8  A    between atoms: C_20  and  N_21
REMARK    9  A    between atoms: N_21  and  C_22
REMARK   10  A    between atoms: C_27  and  C_28
REMARK   11  A    between atoms: C_28  and  C_29
REMARK   12  A    between atoms: C_29  and  O_30
REMARK                            x       y       z     vdW  Elec       q    Type
REMARK                         _______ _______ _______ _____ _____    ______ ____
ROOT
ATOM      1  C   UNL     1       2.355  -2.380   2.381  0.00  0.00    +0.000 A 
ATOM      2  C   UNL     1       1.445  -3.250   2.989  0.00  0.00    +0.000 A 
ATOM      3  C   UNL     1       0.486  -2.763   3.882  0.00  0.00    +0.000 A 
ATOM      4  C   UNL     1       0.400  -1.396   4.186  0.00  0.00    +0.000 A 
ATOM      5  C   UNL     1       1.311  -0.527   3.565  0.00  0.00    +0.000 A 
ATOM      6  C   UNL     1       2.272  -1.013   2.668  0.00  0.00    +0.000 A 
ENDROOT
BRANCH   1   7
ATOM      7  C   UNL     1       3.352  -2.912   1.385  0.00  0.00    +0.000 C 
BRANCH   7  10
ATOM      8  C   UNL     1       3.472  -3.402  -1.025  0.00  0.00    +0.000 C 
ATOM      9  O   UNL     1       4.606  -3.866  -0.907  0.00  0.00    +0.000 OA
ATOM     10  N   UNL     1       2.790  -2.923   0.058  0.00  0.00    +0.000 N 
ATOM     11  H   UNL     1       1.861  -2.540  -0.056  0.00  0.00    +0.000 HD
BRANCH   8  19
ATOM     12  C   UNL     1       0.350  -2.361  -2.035  0.00  0.00    +0.000 A 
ATOM     13  N   UNL     1      -0.753  -1.964  -2.700  0.00  0.00    +0.000 NA
ATOM     14  C   UNL     1      -0.759  -2.079  -4.031  0.00  0.00    +0.000 A 
ATOM     15  N   UNL     1       0.214  -2.565  -4.798  0.00  0.00    +0.000 NA
ATOM     16  C   UNL     1       1.298  -2.938  -4.096  0.00  0.00    +0.000 A 
ATOM     17  S   UNL     1       2.637  -3.591  -4.911  0.00  0.00    +0.000 S 
ATOM     18  C   UNL     1       3.499  -3.764  -3.457  0.00  0.00    +0.000 A 
ATOM     19  C   UNL     1       2.804  -3.328  -2.335  0.00  0.00    +0.000 A 
ATOM     20  C   UNL     1       1.474  -2.859  -2.718  0.00  0.00    +0.000 A 
BRANCH  12  22
ATOM     21  C   UNL     1      -0.941  -2.217  -0.086  0.00  0.00    +0.000 C 
ATOM     22  O   UNL     1       0.363  -2.227  -0.662  0.00  0.00    +0.000 OA
ENDBRANCH  12  22
ENDBRANCH   8  19
ENDBRANCH   7  10
ENDBRANCH   1   7
BRANCH   4  23
ATOM     23  C   UNL     1      -0.627  -0.818   5.146  0.00  0.00    +0.000 C 
BRANCH  23  24
ATOM     24  C   UNL     1      -1.572  -1.855   5.762  0.00  0.00    +0.000 C 
BRANCH  24  25
ATOM     25  N   UNL     1      -2.565  -1.261   6.660  0.00  0.00    +0.000 N 
ATOM     26  H   UNL     1      -2.145  -0.609   7.321  0.00  0.00    +0.000 HD
BRANCH  25  27
ATOM     27  C   UNL     1      -3.410  -2.153   7.360  0.00  0.00    +0.000 A 
ATOM     28  C   UNL     1      -3.438  -3.534   7.085  0.00  0.00    +0.000 A 
ATOM     29  C   UNL     1      -4.232  -4.418   7.818  0.00  0.00    +0.000 A 
ATOM     30  C   UNL     1      -5.043  -3.935   8.831  0.00  0.00    +0.000 A 
ATOM     31  C   UNL     1      -5.094  -2.565   9.073  0.00  0.00    +0.000 A 
ATOM     32  C   UNL     1      -4.312  -1.657   8.327  0.00  0.00    +0.000 A 
BRANCH  32  33
ATOM     33  C   UNL     1      -4.485  -0.177   8.621  0.00  0.00    +0.000 C 
BRANCH  33  34
ATOM     34  C   UNL     1      -4.995   0.669   7.449  0.00  0.00    +0.000 C 
BRANCH  34  35
ATOM     35  O   UNL     1      -6.272   0.229   7.000  0.00  0.00    +0.000 OA
ATOM     36  H   UNL     1      -6.122  -0.628   6.559  0.00  0.00    +0.000 HD
ENDBRANCH  34  35
ENDBRANCH  33  34
ENDBRANCH  32  33
ENDBRANCH  25  27
ENDBRANCH  24  25
ENDBRANCH  23  24
ENDBRANCH   4  23
TORSDOF 11
