REMARK  Name = 
REMARK  6 active torsions:
REMARK  status: ('A' for Active; 'I' for Inactive)
REMARK    1  A    between atoms: C_1  and  C_2
REMARK    2  A    between atoms: C_7  and  C_8
REMARK    3  A    between atoms: N_10  and  C_11
REMARK    4  A    between atoms: C_11  and  C_12
REMARK    5  A    between atoms: C_15  and  C_16
REMARK    6  A    between atoms: C_16  and  N_17
REMARK                            x       y       z     vdW  Elec       q    Type
REMARK                         _______ _______ _______ _____ _____    ______ ____
ROOT
ATOM      1  C   UNL     1       8.348   2.404  -2.273  0.00  0.00    +0.000 C 
ATOM      2  O   UNL     1       7.172   2.096  -2.096  0.00  0.00    +0.000 OA
ATOM      3  N   UNL     1       9.107   2.947  -1.266  0.00  0.00    +0.000 N 
ATOM      4  H   UNL     1      10.057   3.251  -1.458  0.00  0.00    +0.000 HD
ENDROOT
BRANCH   1  11
ATOM      5  C   UNL     1      13.969   3.110  -6.153  0.00  0.00    +0.000 C 
ATOM      6  C   UNL     1      12.653   2.868  -5.476  0.00  0.00    +0.000 A 
ATOM      7  N   UNL     1      11.671   2.307  -6.106  0.00  0.00    +0.000 NA
ATOM      8  C   UNL     1      10.537   2.150  -5.371  0.00  0.00    +0.000 A 
ATOM      9  S   UNL     1       9.156   1.433  -6.056  0.00  0.00    +0.000 S 
ATOM     10  C   UNL     1       8.280   1.607  -4.607  0.00  0.00    +0.000 A 
ATOM     11  C   UNL     1       9.002   2.203  -3.578  0.00  0.00    +0.000 A 
ATOM     12  C   UNL     1      10.334   2.520  -4.051  0.00  0.00    +0.000 A 
ATOM     13  C   UNL     1      11.461   3.150  -3.389  0.00  0.00    +0.000 A 
ATOM     14  O   UNL     1      11.452   3.549  -2.231  0.00  0.00    +0.000 OA
ATOM     15  N   UNL     1      12.588   3.282  -4.168  0.00  0.00    +0.000 N 
ATOM     16  H   UNL     1      13.382   3.716  -3.722  0.00  0.00    +0.000 HD
ENDBRANCH   1  11
BRANCH   3  17
ATOM     17  C   UNL     1       8.576   3.264   0.043  0.00  0.00    +0.000 C 
BRANCH  17  18
ATOM     18  C   UNL     1       7.920   4.653   0.091  0.00  0.00    +0.000 C 
ATOM     19  C   UNL     1       8.916   5.767  -0.261  0.00  0.00    +0.000 C 
ATOM     20  C   UNL     1       8.259   7.144  -0.199  0.00  0.00    +0.000 C 
ATOM     21  C   UNL     1       7.636   7.424   1.178  0.00  0.00    +0.000 C 
ATOM     22  C   UNL     1       6.665   6.291   1.561  0.00  0.00    +0.000 C 
ATOM     23  C   UNL     1       7.322   4.914   1.481  0.00  0.00    +0.000 C 
BRANCH  21  24
ATOM     24  C   UNL     1       6.891   8.773   1.213  0.00  0.00    +0.000 C 
BRANCH  24  25
ATOM     25  N   UNL     1       7.801   9.890   0.948  0.00  0.00    +0.000 N 
ATOM     26  C   UNL     1       7.154  11.143   0.939  0.00  0.00    +0.000 A 
ATOM     27  C   UNL     1       7.919  12.278   0.674  0.00  0.00    +0.000 A 
ATOM     28  C   UNL     1       7.304  13.527   0.635  0.00  0.00    +0.000 A 
ATOM     29  C   UNL     1       5.939  13.616   0.865  0.00  0.00    +0.000 A 
ATOM     30  C   UNL     1       5.253  12.448   1.136  0.00  0.00    +0.000 A 
ATOM     31  N   UNL     1       5.832  11.230   1.182  0.00  0.00    +0.000 NA
ATOM     32  H   UNL     1       8.266   9.796   0.050  0.00  0.00    +0.000 HD
ENDBRANCH  24  25
ENDBRANCH  21  24
ENDBRANCH  17  18
ENDBRANCH   3  17
TORSDOF 5
