REMARK  Name = 
REMARK  10 active torsions:
REMARK  status: ('A' for Active; 'I' for Inactive)
REMARK    1  A    between atoms: C_1  and  C_2
REMARK    2  A    between atoms: C_2  and  N_3
REMARK    3  A    between atoms: C_2  and  C_11
REMARK    4  A    between atoms: C_4  and  O_6
REMARK    5  A    between atoms: O_6  and  C_7
REMARK    6  A    between atoms: C_7  and  C_8
REMARK    7  A    between atoms: C_7  and  C_9
REMARK    8  A    between atoms: C_7  and  C_10
REMARK    9  A    between atoms: C_14  and  C_15
REMARK   10  A    between atoms: C_15  and  C_16
REMARK                            x       y       z     vdW  Elec       q    Type
REMARK                         _______ _______ _______ _____ _____    ______ ____
ROOT
ATOM      1  C   UNL     1       0.864  -6.429   6.743  0.00  0.00    +0.000 A 
ATOM      2  C   UNL     1       0.937  -5.399   5.805  0.00  0.00    +0.000 A 
ATOM      3  C   UNL     1       2.176  -4.881   5.434  0.00  0.00    +0.000 A 
ATOM      4  C   UNL     1       3.327  -5.377   6.040  0.00  0.00    +0.000 A 
ATOM      5  N   UNL     1       3.289  -6.397   6.927  0.00  0.00    +0.000 NA
ATOM      6  C   UNL     1       2.075  -6.899   7.249  0.00  0.00    +0.000 A 
ENDROOT
BRANCH   1   8
ATOM      7  C   UNL     1      -1.567  -7.028   6.228  0.00  0.00    +0.000 C 
ATOM      8  C   UNL     1      -0.430  -7.010   7.257  0.00  0.00    +0.000 C 
BRANCH   8   9
ATOM      9  N   UNL     1      -0.846  -6.332   8.469  0.00  0.00    +0.000 N 
ATOM     10  C   UNL     1      -1.630  -6.975   9.386  0.00  0.00    +0.000 C 
ATOM     11  O   UNL     1      -1.951  -8.147   9.279  0.00  0.00    +0.000 OA
ATOM     12  H   UNL     1      -0.647  -5.352   8.624  0.00  0.00    +0.000 HD
BRANCH  10  13
ATOM     13  O   UNL     1      -1.992  -6.141  10.394  0.00  0.00    +0.000 OA
BRANCH  13  14
ATOM     14  C   UNL     1      -2.825  -6.674  11.464  0.00  0.00    +0.000 C 
ATOM     15  C   UNL     1      -2.079  -7.768  12.242  0.00  0.00    +0.000 C 
ATOM     16  C   UNL     1      -3.099  -5.508  12.430  0.00  0.00    +0.000 C 
ATOM     17  C   UNL     1      -4.181  -7.161  10.931  0.00  0.00    +0.000 C 
ENDBRANCH  13  14
ENDBRANCH  10  13
ENDBRANCH   8   9
ENDBRANCH   1   8
BRANCH   4  18
ATOM     18  C   UNL     1       4.663  -4.699   5.834  0.00  0.00    +0.000 C 
BRANCH  18  19
ATOM     19  C   UNL     1       4.624  -3.238   6.310  0.00  0.00    +0.000 C 
ATOM     20  C   UNL     1       4.323  -3.074   7.821  0.00  0.00    +0.000 C 
ATOM     21  C   UNL     1       5.669  -2.948   8.542  0.00  0.00    +0.000 C 
ATOM     22  C   UNL     1       6.507  -2.322   7.475  0.00  0.00    +0.000 A 
ATOM     23  C   UNL     1       7.698  -1.633   7.631  0.00  0.00    +0.000 A 
ATOM     24  C   UNL     1       8.325  -1.129   6.491  0.00  0.00    +0.000 A 
ATOM     25  C   UNL     1       7.769  -1.337   5.219  0.00  0.00    +0.000 A 
ATOM     26  C   UNL     1       6.573  -2.044   5.070  0.00  0.00    +0.000 A 
ATOM     27  C   UNL     1       5.946  -2.525   6.208  0.00  0.00    +0.000 A 
ENDBRANCH  18  19
ENDBRANCH   4  18
TORSDOF 6
