REMARK  Name = 
REMARK  6 active torsions:
REMARK  status: ('A' for Active; 'I' for Inactive)
REMARK    1  A    between atoms: C_1  and  N_2
REMARK    2  A    between atoms: C_5  and  C_6
REMARK    3  A    between atoms: C_10  and  C_11
REMARK    4  A    between atoms: C_11  and  C_12
REMARK    5  A    between atoms: C_12  and  N_13
REMARK    6  A    between atoms: C_17  and  C_18
REMARK                            x       y       z     vdW  Elec       q    Type
REMARK                         _______ _______ _______ _____ _____    ______ ____
ROOT
ATOM      1  C   UNL     1       4.197   0.638  -4.795  0.00  0.00    +0.000 C 
ENDROOT
BRANCH   1   6
ATOM      2  C   UNL     1       1.692  -0.010  -1.908  0.00  0.00    +0.000 A 
ATOM      3  C   UNL     1       0.508  -0.082  -2.654  0.00  0.00    +0.000 A 
ATOM      4  C   UNL     1       0.521  -0.002  -4.051  0.00  0.00    +0.000 A 
ATOM      5  C   UNL     1       1.717   0.198  -4.739  0.00  0.00    +0.000 A 
ATOM      6  C   UNL     1       2.914   0.329  -4.035  0.00  0.00    +0.000 A 
ATOM      7  C   UNL     1       2.877   0.209  -2.629  0.00  0.00    +0.000 A 
BRANCH   2  12
ATOM      8  C   UNL     1       1.897  -4.292  -0.050  0.00  0.00    +0.000 C 
ATOM      9  N   UNL     1       1.840  -2.912   0.448  0.00  0.00    +0.000 NA
ATOM     10  C   UNL     1       3.048  -2.191   0.019  0.00  0.00    +0.000 C 
ATOM     11  C   UNL     1       2.976  -0.683   0.264  0.00  0.00    +0.000 C 
ATOM     12  C   UNL     1       1.716  -0.055  -0.374  0.00  0.00    +0.000 C 
ATOM     13  C   UNL     1       0.529  -0.783   0.276  0.00  0.00    +0.000 C 
ATOM     14  C   UNL     1       0.586  -2.287   0.004  0.00  0.00    +0.000 C 
ENDBRANCH   2  12
ENDBRANCH   1   6
BRANCH   1  15
ATOM     15  C   UNL     1       5.416   0.756  -3.880  0.00  0.00    +0.000 C 
BRANCH  15  16
ATOM     16  N   UNL     1       6.660   1.105  -4.569  0.00  0.00    +0.000 N 
ATOM     17  C   UNL     1       7.714   1.188  -3.624  0.00  0.00    +0.000 A 
ATOM     18  C   UNL     1       8.985   1.532  -4.062  0.00  0.00    +0.000 A 
ATOM     19  C   UNL     1      10.026   1.614  -3.134  0.00  0.00    +0.000 A 
ATOM     20  C   UNL     1       9.774   1.347  -1.785  0.00  0.00    +0.000 A 
ATOM     21  C   UNL     1       8.486   1.005  -1.436  0.00  0.00    +0.000 A 
ATOM     22  N   UNL     1       7.475   0.915  -2.321  0.00  0.00    +0.000 NA
ATOM     23  H   UNL     1       6.594   2.001  -5.046  0.00  0.00    +0.000 HD
BRANCH  20  24
ATOM     24  C   UNL     1      10.817   1.422  -0.712  0.00  0.00    +0.000 C 
ATOM     25  F   UNL     1      12.052   1.761  -1.180  0.00  0.00    +0.000 F 
ATOM     26  F   UNL     1      10.518   2.345   0.242  0.00  0.00    +0.000 F 
ATOM     27  F   UNL     1      10.979   0.242  -0.055  0.00  0.00    +0.000 F 
ENDBRANCH  20  24
ENDBRANCH  15  16
ENDBRANCH   1  15
TORSDOF 5
