REMARK  Name = 
REMARK  6 active torsions:
REMARK  status: ('A' for Active; 'I' for Inactive)
REMARK    1  A    between atoms: C_1  and  C_2
REMARK    2  A    between atoms: C_2  and  N_3
REMARK    3  A    between atoms: N_3  and  C_4
REMARK    4  A    between atoms: N_3  and  C_11
REMARK    5  A    between atoms: C_4  and  C_5
REMARK    6  A    between atoms: C_15  and  C_16
REMARK                            x       y       z     vdW  Elec       q    Type
REMARK                         _______ _______ _______ _____ _____    ______ ____
ROOT
ATOM      1  C   UNL     1       4.488  -0.524   1.615  0.00  0.00    +0.000 A 
ATOM      2  C   UNL     1       4.965  -0.454   2.932  0.00  0.00    +0.000 A 
ATOM      3  N   UNL     1       6.267  -0.515   3.319  0.00  0.00    +0.000 NA
ATOM      4  C   UNL     1       7.178  -0.690   2.341  0.00  0.00    +0.000 A 
ATOM      5  C   UNL     1       6.851  -0.814   1.004  0.00  0.00    +0.000 A 
ATOM      6  C   UNL     1       5.494  -0.718   0.654  0.00  0.00    +0.000 A 
ENDROOT
BRANCH   5   7
ATOM      7  C   UNL     1       7.854  -1.050  -0.062  0.00  0.00    +0.000 C 
ATOM      8  N   UNL     1       9.171  -1.169   0.278  0.00  0.00    +0.000 N 
ATOM      9  O   UNL     1       7.520  -1.147  -1.238  0.00  0.00    +0.000 OA
ATOM     10  H   UNL     1       9.551  -1.141   1.212  0.00  0.00    +0.000 HD
ATOM     11  H   UNL     1       9.817  -1.351  -0.478  0.00  0.00    +0.000 HD
ENDBRANCH   5   7
BRANCH   1  12
ATOM     12  N   UNL     1       3.144  -0.417   1.263  0.00  0.00    +0.000 N 
BRANCH  12  14
ATOM     13  C   UNL     1       2.432  -0.917  -1.066  0.00  0.00    +0.000 C 
ATOM     14  C   UNL     1       2.760   0.152  -0.036  0.00  0.00    +0.000 C 
ENDBRANCH  12  14
BRANCH  12  15
ATOM     15  C   UNL     1       2.072  -0.631   2.259  0.00  0.00    +0.000 C 
BRANCH  15  16
ATOM     16  C   UNL     1       1.918   0.484   3.284  0.00  0.00    +0.000 A 
ATOM     17  C   UNL     1       1.966   1.828   2.919  0.00  0.00    +0.000 A 
ATOM     18  C   UNL     1       1.932   2.804   3.911  0.00  0.00    +0.000 A 
ATOM     19  C   UNL     1       1.835   2.421   5.242  0.00  0.00    +0.000 A 
ATOM     20  C   UNL     1       1.758   1.070   5.526  0.00  0.00    +0.000 A 
ATOM     21  N   UNL     1       1.790   0.102   4.584  0.00  0.00    +0.000 NA
ENDBRANCH  15  16
ENDBRANCH  12  15
ENDBRANCH   1  12
TORSDOF 5
