REMARK  Name = 
REMARK  4 active torsions:
REMARK  status: ('A' for Active; 'I' for Inactive)
REMARK    1  A    between atoms: C_1  and  C_2
REMARK    2  A    between atoms: N_5  and  C_6
REMARK    3  A    between atoms: C_6  and  C_7
REMARK    4  A    between atoms: C_11  and  C_12
REMARK                            x       y       z     vdW  Elec       q    Type
REMARK                         _______ _______ _______ _____ _____    ______ ____
ROOT
ATOM      1  C   UNL     1       5.390   4.920   0.199  0.00  0.00    +0.000 A 
ATOM      2  C   UNL     1       6.771   4.785   0.199  0.00  0.00    +0.000 A 
ATOM      3  N   UNL     1       7.629   5.825   0.204  0.00  0.00    +0.000 NA
ATOM      4  C   UNL     1       7.085   7.068   0.217  0.00  0.00    +0.000 A 
ATOM      5  C   UNL     1       5.716   7.348   0.226  0.00  0.00    +0.000 A 
ATOM      6  C   UNL     1       4.871   6.225   0.196  0.00  0.00    +0.000 A 
ENDROOT
BRANCH   5   7
ATOM      7  C   UNL     1       5.190   8.726   0.300  0.00  0.00    +0.000 A 
ATOM      8  C   UNL     1       3.997   9.110  -0.330  0.00  0.00    +0.000 A 
ATOM      9  C   UNL     1       3.504  10.409  -0.198  0.00  0.00    +0.000 A 
ATOM     10  C   UNL     1       4.227  11.313   0.558  0.00  0.00    +0.000 A 
ATOM     11  N   UNL     1       5.385  11.005   1.173  0.00  0.00    +0.000 NA
ATOM     12  C   UNL     1       5.830   9.731   1.033  0.00  0.00    +0.000 A 
ENDBRANCH   5   7
BRANCH   1  13
ATOM     13  C   UNL     1       4.488   3.712   0.204  0.00  0.00    +0.000 C 
BRANCH  13  18
ATOM     14  C   UNL     1       1.313   0.019   0.904  0.00  0.00    +0.000 C 
ATOM     15  C   UNL     1       1.943   0.592  -0.328  0.00  0.00    +0.000 A 
ATOM     16  N   UNL     1       2.794   1.645  -0.171  0.00  0.00    +0.000 NA
ATOM     17  C   UNL     1       3.356   2.188  -1.273  0.00  0.00    +0.000 A 
ATOM     18  N   UNL     1       4.206   3.302  -1.166  0.00  0.00    +0.000 N 
ATOM     19  C   UNL     1       3.067   1.705  -2.550  0.00  0.00    +0.000 A 
ATOM     20  C   UNL     1       2.197   0.627  -2.702  0.00  0.00    +0.000 A 
ATOM     21  C   UNL     1       1.631   0.064  -1.573  0.00  0.00    +0.000 A 
ATOM     22  F   UNL     1       0.785  -0.968  -1.693  0.00  0.00    +0.000 F 
ATOM     23  H   UNL     1       5.056   3.125  -1.695  0.00  0.00    +0.000 HD
ENDBRANCH  13  18
ENDBRANCH   1  13
TORSDOF 3
