REMARK  Name = 
REMARK  6 active torsions:
REMARK  status: ('A' for Active; 'I' for Inactive)
REMARK    1  A    between atoms: C_1  and  O_2
REMARK    2  A    between atoms: O_2  and  C_3
REMARK    3  A    between atoms: C_6  and  C_7
REMARK    4  A    between atoms: C_11  and  C_12
REMARK    5  A    between atoms: C_12  and  N_13
REMARK    6  A    between atoms: C_17  and  C_18
REMARK                            x       y       z     vdW  Elec       q    Type
REMARK                         _______ _______ _______ _____ _____    ______ ____
ROOT
ATOM      1  C   UNL     1       6.811   5.500  -5.606  0.00  0.00    +0.000 C 
ATOM      2  C   UNL     1       6.124   6.784  -5.180  0.00  0.00    +0.000 C 
ATOM      3  C   UNL     1       6.213   6.465  -6.632  0.00  0.00    +0.000 C 
ENDROOT
BRANCH   1   4
ATOM      4  N   UNL     1       8.266   5.380  -5.556  0.00  0.00    +0.000 N 
ATOM      5  C   UNL     1       9.102   5.726  -4.501  0.00  0.00    +0.000 A 
ATOM      6  C   UNL     1       8.684   5.881  -3.183  0.00  0.00    +0.000 A 
ATOM      7  C   UNL     1       9.600   6.318  -2.214  0.00  0.00    +0.000 A 
ATOM      8  C   UNL     1      10.914   6.584  -2.595  0.00  0.00    +0.000 A 
ATOM      9  C   UNL     1      11.257   6.353  -3.916  0.00  0.00    +0.000 A 
ATOM     10  N   UNL     1      10.386   5.921  -4.861  0.00  0.00    +0.000 NA
ATOM     11  H   UNL     1       8.808   5.385  -6.415  0.00  0.00    +0.000 HD
BRANCH   8  12
ATOM     12  C   UNL     1      11.937   7.174  -1.706  0.00  0.00    +0.000 C 
ATOM     13  N   UNL     1      11.779   7.037  -0.358  0.00  0.00    +0.000 N 
ATOM     14  O   UNL     1      12.905   7.769  -2.163  0.00  0.00    +0.000 OA
ATOM     15  H   UNL     1      11.136   6.383   0.066  0.00  0.00    +0.000 HD
ATOM     16  H   UNL     1      12.529   7.401   0.217  0.00  0.00    +0.000 HD
ENDBRANCH   8  12
ENDBRANCH   1   4
BRANCH   1  21
ATOM     17  C   UNL     1       4.849   2.390  -4.425  0.00  0.00    +0.000 A 
ATOM     18  C   UNL     1       4.839   1.713  -5.646  0.00  0.00    +0.000 A 
ATOM     19  N   UNL     1       5.417   2.158  -6.782  0.00  0.00    +0.000 NA
ATOM     20  C   UNL     1       6.042   3.350  -6.699  0.00  0.00    +0.000 A 
ATOM     21  C   UNL     1       6.110   4.156  -5.560  0.00  0.00    +0.000 A 
ATOM     22  C   UNL     1       5.505   3.634  -4.409  0.00  0.00    +0.000 A 
BRANCH  17  26
ATOM     23  C   UNL     1       3.133   0.768  -0.924  0.00  0.00    +0.000 A 
ATOM     24  C   UNL     1       2.454   0.585  -2.118  0.00  0.00    +0.000 A 
ATOM     25  C   UNL     1       3.008   1.122  -3.276  0.00  0.00    +0.000 A 
ATOM     26  C   UNL     1       4.222   1.822  -3.225  0.00  0.00    +0.000 A 
ATOM     27  C   UNL     1       4.813   1.931  -1.965  0.00  0.00    +0.000 A 
ATOM     28  N   UNL     1       4.300   1.430  -0.823  0.00  0.00    +0.000 NA
BRANCH  23  30
ATOM     29  C   UNL     1       3.330   0.446   1.376  0.00  0.00    +0.000 C 
ATOM     30  O   UNL     1       2.547   0.230   0.204  0.00  0.00    +0.000 OA
ENDBRANCH  23  30
ENDBRANCH  17  26
ENDBRANCH   1  21
TORSDOF 5
