REMARK  Name = 
REMARK  7 active torsions:
REMARK  status: ('A' for Active; 'I' for Inactive)
REMARK    1  A    between atoms: C_2  and  C_3
REMARK    2  A    between atoms: C_7  and  C_8
REMARK    3  A    between atoms: N_10  and  C_11
REMARK    4  A    between atoms: C_11  and  C_12
REMARK    5  A    between atoms: C_15  and  C_16
REMARK    6  A    between atoms: C_16  and  N_17
REMARK    7  A    between atoms: C_18  and  C_20
REMARK                            x       y       z     vdW  Elec       q    Type
REMARK                         _______ _______ _______ _____ _____    ______ ____
ROOT
ATOM      1  C   UNL     1       0.047   2.510   2.911  0.00  0.00    +0.000 A 
ATOM      2  C   UNL     1      -0.970   1.568   2.699  0.00  0.00    +0.000 A 
ATOM      3  C   UNL     1      -2.275   1.976   2.390  0.00  0.00    +0.000 A 
ATOM      4  C   UNL     1      -2.590   3.335   2.265  0.00  0.00    +0.000 A 
ATOM      5  C   UNL     1      -1.579   4.278   2.494  0.00  0.00    +0.000 A 
ATOM      6  C   UNL     1      -0.274   3.870   2.804  0.00  0.00    +0.000 A 
ENDROOT
BRANCH   1   7
ATOM      7  C   UNL     1       1.445   2.066   3.271  0.00  0.00    +0.000 C 
BRANCH   7  10
ATOM      8  C   UNL     1       3.623   1.507   2.295  0.00  0.00    +0.000 C 
ATOM      9  O   UNL     1       4.109   1.359   3.413  0.00  0.00    +0.000 OA
ATOM     10  N   UNL     1       2.302   1.867   2.114  0.00  0.00    +0.000 N 
ATOM     11  H   UNL     1       1.852   1.747   1.216  0.00  0.00    +0.000 HD
BRANCH   8  16
ATOM     12  C   UNL     1       4.517  -0.144   0.481  0.00  0.00    +0.000 C 
ATOM     13  C   UNL     1       5.598  -0.817   1.325  0.00  0.00    +0.000 C 
ATOM     14  C   UNL     1       6.507   0.307   1.822  0.00  0.00    +0.000 C 
ATOM     15  C   UNL     1       5.927   1.606   1.266  0.00  0.00    +0.000 C 
ATOM     16  C   UNL     1       4.448   1.306   1.007  0.00  0.00    +0.000 C 
BRANCH  12  18
ATOM     17  N   UNL     1       2.041  -1.379   0.765  0.00  0.00    +0.000 NA
ATOM     18  C   UNL     1       3.164  -0.819   0.636  0.00  0.00    +0.000 C 
ENDBRANCH  12  18
ENDBRANCH   8  16
ENDBRANCH   7  10
ENDBRANCH   1   7
BRANCH   4  19
ATOM     19  C   UNL     1      -3.989   3.783   1.912  0.00  0.00    +0.000 C 
BRANCH  19  20
ATOM     20  N   UNL     1      -4.796   3.999   3.086  0.00  0.00    +0.000 N 
ATOM     21  C   UNL     1      -6.118   4.357   2.986  0.00  0.00    +0.000 C 
ATOM     22  O   UNL     1      -6.687   4.459   1.904  0.00  0.00    +0.000 OA
ATOM     23  H   UNL     1      -4.303   4.159   3.958  0.00  0.00    +0.000 HD
BRANCH  21  24
ATOM     24  C   UNL     1      -6.841   4.551   4.251  0.00  0.00    +0.000 A 
ATOM     25  C   UNL     1      -8.222   4.410   4.289  0.00  0.00    +0.000 A 
ATOM     26  S   UNL     1      -8.889   4.611   5.846  0.00  0.00    +0.000 S 
ATOM     27  C   UNL     1      -7.362   4.951   6.516  0.00  0.00    +0.000 A 
ATOM     28  N   UNL     1      -7.226   5.243   7.838  0.00  0.00    +0.000 NA
ATOM     29  C   UNL     1      -6.019   5.511   8.202  0.00  0.00    +0.000 A 
ATOM     30  N   UNL     1      -4.930   5.509   7.368  0.00  0.00    +0.000 N 
ATOM     31  C   UNL     1      -5.015   5.197   6.030  0.00  0.00    +0.000 A 
ATOM     32  O   UNL     1      -4.018   5.172   5.318  0.00  0.00    +0.000 OA
ATOM     33  C   UNL     1      -6.356   4.896   5.568  0.00  0.00    +0.000 A 
ATOM     34  H   UNL     1      -4.010   5.723   7.717  0.00  0.00    +0.000 HD
ENDBRANCH  21  24
ENDBRANCH  19  20
ENDBRANCH   4  19
TORSDOF 7
