REMARK  Name = 
REMARK  10 active torsions:
REMARK  status: ('A' for Active; 'I' for Inactive)
REMARK    1  A    between atoms: C_1  and  C_2
REMARK    2  A    between atoms: C_2  and  N_3
REMARK    3  A    between atoms: C_2  and  C_21
REMARK    4  A    between atoms: N_3  and  C_4
REMARK    5  A    between atoms: C_7  and  C_8
REMARK    6  A    between atoms: C_8  and  C_9
REMARK    7  A    between atoms: C_8  and  C_11
REMARK    8  A    between atoms: C_8  and  C_13
REMARK    9  A    between atoms: C_9  and  O_10
REMARK   10  A    between atoms: C_11  and  O_12
REMARK                            x       y       z     vdW  Elec       q    Type
REMARK                         _______ _______ _______ _____ _____    ______ ____
ROOT
ATOM      1  C   UNL     1       0.209   1.053  -0.144  0.00  0.00    +0.000 A 
ATOM      2  C   UNL     1       0.720   2.269  -0.606  0.00  0.00    +0.000 A 
ATOM      3  C   UNL     1       0.010   3.466  -0.447  0.00  0.00    +0.000 A 
ATOM      4  C   UNL     1      -1.265   3.479   0.143  0.00  0.00    +0.000 A 
ATOM      5  C   UNL     1      -1.837   2.231   0.442  0.00  0.00    +0.000 A 
ATOM      6  C   UNL     1      -1.112   1.036   0.293  0.00  0.00    +0.000 A 
ENDROOT
BRANCH   1   7
ATOM      7  N   UNL     1       1.036  -0.072  -0.228  0.00  0.00    +0.000 N 
ATOM      8  H   UNL     1       1.048  -0.404  -1.190  0.00  0.00    +0.000 HD
BRANCH   7  10
ATOM      9  C   UNL     1       1.922  -2.250   0.349  0.00  0.00    +0.000 C 
ATOM     10  C   UNL     1       0.865  -1.197   0.718  0.00  0.00    +0.000 C 
BRANCH  10  11
ATOM     11  C   UNL     1       0.964  -0.857   2.201  0.00  0.00    +0.000 A 
ATOM     12  C   UNL     1       1.778   0.126   2.741  0.00  0.00    +0.000 A 
ATOM     13  S   UNL     1       1.548   0.342   4.422  0.00  0.00    +0.000 S 
ATOM     14  C   UNL     1       0.364  -0.881   4.479  0.00  0.00    +0.000 A 
ATOM     15  N   UNL     1      -0.312  -1.170   5.624  0.00  0.00    +0.000 NA
ATOM     16  C   UNL     1      -1.181  -2.119   5.500  0.00  0.00    +0.000 A 
ATOM     17  N   UNL     1      -1.408  -2.832   4.349  0.00  0.00    +0.000 N 
ATOM     18  C   UNL     1      -0.703  -2.619   3.186  0.00  0.00    +0.000 A 
ATOM     19  O   UNL     1      -0.831  -3.346   2.207  0.00  0.00    +0.000 OA
ATOM     20  C   UNL     1       0.208  -1.493   3.250  0.00  0.00    +0.000 A 
ATOM     21  H   UNL     1      -2.062  -3.600   4.338  0.00  0.00    +0.000 HD
ENDBRANCH  10  11
ENDBRANCH   7  10
ENDBRANCH   1   7
BRANCH   4  22
ATOM     22  C   UNL     1      -1.949   4.830   0.494  0.00  0.00    +0.000 C 
BRANCH  22  23
ATOM     23  C   UNL     1      -1.075   5.690   1.449  0.00  0.00    +0.000 A 
ATOM     24  C   UNL     1      -0.320   5.123   2.482  0.00  0.00    +0.000 A 
ATOM     25  C   UNL     1       0.409   5.954   3.333  0.00  0.00    +0.000 A 
ATOM     26  C   UNL     1       0.356   7.331   3.160  0.00  0.00    +0.000 A 
ATOM     27  C   UNL     1      -0.427   7.821   2.135  0.00  0.00    +0.000 A 
ATOM     28  N   UNL     1      -1.132   7.042   1.290  0.00  0.00    +0.000 NA
ENDBRANCH  22  23
BRANCH  22  29
ATOM     29  C   UNL     1      -2.187   5.640  -0.821  0.00  0.00    +0.000 C 
BRANCH  29  30
ATOM     30  O   UNL     1      -3.053   4.957  -1.738  0.00  0.00    +0.000 OA
ATOM     31  H   UNL     1      -2.495   4.315  -2.215  0.00  0.00    +0.000 HD
ENDBRANCH  29  30
ENDBRANCH  22  29
BRANCH  22  32
ATOM     32  C   UNL     1      -3.321   4.678   1.227  0.00  0.00    +0.000 C 
BRANCH  32  33
ATOM     33  O   UNL     1      -4.343   4.047   0.447  0.00  0.00    +0.000 OA
ATOM     34  H   UNL     1      -4.274   4.411  -0.462  0.00  0.00    +0.000 HD
ENDBRANCH  32  33
ENDBRANCH  22  32
ENDBRANCH   4  22
TORSDOF 9
