REMARK  Name = 
REMARK  7 active torsions:
REMARK  status: ('A' for Active; 'I' for Inactive)
REMARK    1  A    between atoms: C_1  and  C_2
REMARK    2  A    between atoms: C_2  and  N_3
REMARK    3  A    between atoms: C_2  and  C_17
REMARK    4  A    between atoms: C_4  and  C_6
REMARK    5  A    between atoms: N_12  and  C_13
REMARK    6  A    between atoms: C_20  and  C_21
REMARK    7  A    between atoms: C_21  and  C_22
REMARK                            x       y       z     vdW  Elec       q    Type
REMARK                         _______ _______ _______ _____ _____    ______ ____
ROOT
ATOM      1  C   UNL     1       0.966   0.079  -0.165  0.00  0.00    +0.000 C 
ATOM      2  C   UNL     1       2.495   0.025  -0.154  0.00  0.00    +0.000 C 
ENDROOT
BRANCH   2   3
ATOM      3  C   UNL     1       2.972  -0.547   1.172  0.00  0.00    +0.000 A 
ATOM      4  C   UNL     1       3.231  -1.920   1.262  0.00  0.00    +0.000 A 
ATOM      5  C   UNL     1       3.592  -2.504   2.476  0.00  0.00    +0.000 A 
ATOM      6  C   UNL     1       3.723  -1.725   3.633  0.00  0.00    +0.000 A 
ATOM      7  C   UNL     1       3.485  -0.350   3.549  0.00  0.00    +0.000 A 
ATOM      8  C   UNL     1       3.094   0.230   2.338  0.00  0.00    +0.000 A 
BRANCH   6   9
ATOM      9  C   UNL     1       4.091  -2.361   4.953  0.00  0.00    +0.000 C 
BRANCH   9  10
ATOM     10  C   UNL     1       5.571  -2.465   5.243  0.00  0.00    +0.000 A 
ATOM     11  C   UNL     1       6.415  -3.208   4.418  0.00  0.00    +0.000 A 
ATOM     12  C   UNL     1       7.748  -3.374   4.783  0.00  0.00    +0.000 A 
ATOM     13  C   UNL     1       8.208  -2.795   5.958  0.00  0.00    +0.000 A 
ATOM     14  C   UNL     1       7.314  -2.060   6.716  0.00  0.00    +0.000 A 
ATOM     15  N   UNL     1       6.014  -1.886   6.389  0.00  0.00    +0.000 NA
ENDBRANCH   9  10
ENDBRANCH   6   9
ENDBRANCH   2   3
BRANCH   2  16
ATOM     16  N   UNL     1       3.066   1.333  -0.408  0.00  0.00    +0.000 N 
ATOM     17  C   UNL     1       3.257   1.847  -1.663  0.00  0.00    +0.000 C 
ATOM     18  O   UNL     1       3.130   1.180  -2.684  0.00  0.00    +0.000 OA
ATOM     19  H   UNL     1       3.004   1.989   0.357  0.00  0.00    +0.000 HD
BRANCH  17  20
ATOM     20  C   UNL     1       3.673   3.256  -1.706  0.00  0.00    +0.000 A 
ATOM     21  C   UNL     1       4.452   3.726  -2.753  0.00  0.00    +0.000 A 
ATOM     22  S   UNL     1       4.830   5.386  -2.623  0.00  0.00    +0.000 S 
ATOM     23  C   UNL     1       3.928   5.540  -1.187  0.00  0.00    +0.000 A 
ATOM     24  N   UNL     1       3.807   6.737  -0.559  0.00  0.00    +0.000 NA
ATOM     25  C   UNL     1       3.075   6.713   0.508  0.00  0.00    +0.000 A 
ATOM     26  N   UNL     1       2.451   5.597   1.023  0.00  0.00    +0.000 N 
ATOM     27  C   UNL     1       1.678   5.671   2.247  0.00  0.00    +0.000 C 
ATOM     28  C   UNL     1       2.584   4.352   0.426  0.00  0.00    +0.000 A 
ATOM     29  O   UNL     1       2.096   3.330   0.911  0.00  0.00    +0.000 OA
ATOM     30  C   UNL     1       3.375   4.338  -0.794  0.00  0.00    +0.000 A 
ENDBRANCH  17  20
ENDBRANCH   2  16
TORSDOF 5
