REMARK  Name = 
REMARK  8 active torsions:
REMARK  status: ('A' for Active; 'I' for Inactive)
REMARK    1  A    between atoms: C_1  and  C_2
REMARK    2  A    between atoms: C_2  and  N_3
REMARK    3  A    between atoms: C_2  and  C_25
REMARK    4  A    between atoms: N_3  and  C_4
REMARK    5  A    between atoms: C_4  and  C_5
REMARK    6  A    between atoms: C_8  and  C_9
REMARK    7  A    between atoms: C_9  and  N_10
REMARK    8  A    between atoms: C_11  and  C_13
REMARK                            x       y       z     vdW  Elec       q    Type
REMARK                         _______ _______ _______ _____ _____    ______ ____
ROOT
ATOM      1  C   UNL     1       3.027   2.020   3.017  0.00  0.00    +0.000 C 
ATOM      2  C   UNL     1       2.377   1.062   4.034  0.00  0.00    +0.000 C 
ATOM      3  C   UNL     1       2.590   1.505   5.479  0.00  0.00    +0.000 C 
ATOM      4  C   UNL     1       2.081   2.933   5.735  0.00  0.00    +0.000 C 
ATOM      5  C   UNL     1       2.714   3.909   4.733  0.00  0.00    +0.000 C 
ATOM      6  C   UNL     1       2.556   3.463   3.278  0.00  0.00    +0.000 C 
ENDROOT
BRANCH   1   7
ATOM      7  C   UNL     1       4.574   1.918   2.966  0.00  0.00    +0.000 C 
BRANCH   7   8
ATOM      8  N   UNL     1       4.963   0.590   2.489  0.00  0.00    +0.000 NA
ATOM      9  H   UNL     1       4.590  -0.116   3.124  0.00  0.00    +0.000 HD
BRANCH   8  11
ATOM     10  C   UNL     1       7.144   1.264   1.435  0.00  0.00    +0.000 C 
ATOM     11  C   UNL     1       6.416   0.342   2.418  0.00  0.00    +0.000 C 
BRANCH  11  12
ATOM     12  C   UNL     1       6.659  -1.122   2.029  0.00  0.00    +0.000 A 
ATOM     13  C   UNL     1       6.174  -1.622   0.817  0.00  0.00    +0.000 A 
ATOM     14  C   UNL     1       6.368  -2.964   0.508  0.00  0.00    +0.000 A 
ATOM     15  C   UNL     1       7.034  -3.779   1.413  0.00  0.00    +0.000 A 
ATOM     16  C   UNL     1       7.480  -3.212   2.594  0.00  0.00    +0.000 A 
ATOM     17  N   UNL     1       7.307  -1.911   2.925  0.00  0.00    +0.000 NA
ENDBRANCH  11  12
ENDBRANCH   8  11
ENDBRANCH   7   8
ENDBRANCH   1   7
BRANCH   4  18
ATOM     18  C   UNL     1       0.545   3.038   5.697  0.00  0.00    +0.000 C 
BRANCH  18  19
ATOM     19  N   UNL     1      -0.085   2.203   6.693  0.00  0.00    +0.000 N 
ATOM     20  C   UNL     1      -1.447   2.033   6.718  0.00  0.00    +0.000 C 
ATOM     21  O   UNL     1      -2.183   2.538   5.873  0.00  0.00    +0.000 OA
ATOM     22  H   UNL     1       0.453   1.973   7.524  0.00  0.00    +0.000 HD
BRANCH  20  23
ATOM     23  C   UNL     1      -1.980   1.174   7.780  0.00  0.00    +0.000 A 
ATOM     24  C   UNL     1      -3.217   0.568   7.608  0.00  0.00    +0.000 A 
ATOM     25  S   UNL     1      -3.691  -0.404   8.925  0.00  0.00    +0.000 S 
ATOM     26  C   UNL     1      -2.278  -0.014   9.790  0.00  0.00    +0.000 A 
ATOM     27  N   UNL     1      -2.073  -0.500  11.044  0.00  0.00    +0.000 NA
ATOM     28  C   UNL     1      -0.975  -0.103  11.595  0.00  0.00    +0.000 A 
ATOM     29  N   UNL     1      -0.057   0.726  11.002  0.00  0.00    +0.000 N 
ATOM     30  C   UNL     1      -0.199   1.203   9.721  0.00  0.00    +0.000 A 
ATOM     31  O   UNL     1       0.678   1.875   9.192  0.00  0.00    +0.000 OA
ATOM     32  C   UNL     1      -1.438   0.816   9.069  0.00  0.00    +0.000 A 
ATOM     33  H   UNL     1       0.792   0.982  11.483  0.00  0.00    +0.000 HD
ENDBRANCH  20  23
ENDBRANCH  18  19
ENDBRANCH   4  18
TORSDOF 7
