REMARK  Name = 
REMARK  9 active torsions:
REMARK  status: ('A' for Active; 'I' for Inactive)
REMARK    1  A    between atoms: C_1  and  O_2
REMARK    2  A    between atoms: O_2  and  C_3
REMARK    3  A    between atoms: C_10  and  C_11
REMARK    4  A    between atoms: N_13  and  C_14
REMARK    5  A    between atoms: C_14  and  C_15
REMARK    6  A    between atoms: C_18  and  C_19
REMARK    7  A    between atoms: C_19  and  N_20
REMARK    8  A    between atoms: N_20  and  C_21
REMARK    9  A    between atoms: C_21  and  C_22
REMARK                            x       y       z     vdW  Elec       q    Type
REMARK                         _______ _______ _______ _____ _____    ______ ____
ROOT
ATOM      1  C   UNL     1       2.867   0.494   3.366  0.00  0.00    +0.000 C 
ENDROOT
BRANCH   1   2
ATOM      2  C   UNL     1       1.788   1.522   3.126  0.00  0.00    +0.000 A 
ATOM      3  C   UNL     1       0.452   1.135   2.950  0.00  0.00    +0.000 A 
ATOM      4  C   UNL     1      -0.543   2.091   2.699  0.00  0.00    +0.000 A 
ATOM      5  C   UNL     1      -0.230   3.456   2.624  0.00  0.00    +0.000 A 
ATOM      6  C   UNL     1       1.109   3.838   2.790  0.00  0.00    +0.000 A 
ATOM      7  C   UNL     1       2.106   2.883   3.031  0.00  0.00    +0.000 A 
BRANCH   5   8
ATOM      8  C   UNL     1      -1.299   4.495   2.339  0.00  0.00    +0.000 C 
BRANCH   8   9
ATOM      9  N   UNL     1      -2.347   4.494   3.363  0.00  0.00    +0.000 NA
ATOM     10  H   UNL     1      -1.915   4.690   4.266  0.00  0.00    +0.000 HD
BRANCH   9  11
ATOM     11  C   UNL     1      -3.368   5.511   3.104  0.00  0.00    +0.000 C 
BRANCH  11  12
ATOM     12  C   UNL     1      -4.433   5.508   4.179  0.00  0.00    +0.000 A 
ATOM     13  C   UNL     1      -4.666   6.644   4.961  0.00  0.00    +0.000 A 
ATOM     14  C   UNL     1      -5.650   6.595   5.940  0.00  0.00    +0.000 A 
ATOM     15  N   UNL     1      -6.410   5.509   6.189  0.00  0.00    +0.000 NA
ATOM     16  C   UNL     1      -6.177   4.423   5.421  0.00  0.00    +0.000 A 
ATOM     17  C   UNL     1      -5.222   4.376   4.415  0.00  0.00    +0.000 A 
ENDBRANCH  11  12
ENDBRANCH   9  11
ENDBRANCH   8   9
ENDBRANCH   5   8
ENDBRANCH   1   2
BRANCH   1  20
ATOM     18  C   UNL     1       4.424  -0.917   2.076  0.00  0.00    +0.000 C 
ATOM     19  O   UNL     1       4.870  -1.423   3.101  0.00  0.00    +0.000 OA
ATOM     20  N   UNL     1       3.439   0.034   2.123  0.00  0.00    +0.000 N 
ATOM     21  H   UNL     1       3.119   0.474   1.273  0.00  0.00    +0.000 HD
BRANCH  18  29
ATOM     22  C   UNL     1       3.573  -0.018  -1.138  0.00  0.00    +0.000 A 
ATOM     23  N   UNL     1       3.455   0.160  -2.468  0.00  0.00    +0.000 NA
ATOM     24  C   UNL     1       4.264  -0.535  -3.270  0.00  0.00    +0.000 A 
ATOM     25  N   UNL     1       5.201  -1.403  -2.901  0.00  0.00    +0.000 NA
ATOM     26  C   UNL     1       5.296  -1.541  -1.567  0.00  0.00    +0.000 A 
ATOM     27  S   UNL     1       6.438  -2.614  -0.916  0.00  0.00    +0.000 S 
ATOM     28  C   UNL     1       5.953  -2.244   0.672  0.00  0.00    +0.000 A 
ATOM     29  C   UNL     1       4.929  -1.307   0.746  0.00  0.00    +0.000 A 
ATOM     30  C   UNL     1       4.535  -0.890  -0.600  0.00  0.00    +0.000 A 
BRANCH  22  32
ATOM     31  C   UNL     1       1.507   1.036  -0.962  0.00  0.00    +0.000 C 
ATOM     32  O   UNL     1       2.739   0.716  -0.319  0.00  0.00    +0.000 OA
ENDBRANCH  22  32
ENDBRANCH  18  29
ENDBRANCH   1  20
TORSDOF 8
