REMARK  Name = 
REMARK  7 active torsions:
REMARK  status: ('A' for Active; 'I' for Inactive)
REMARK    1  A    between atoms: C_1  and  C_2
REMARK    2  A    between atoms: C_2  and  C_3
REMARK    3  A    between atoms: C_2  and  C_4
REMARK    4  A    between atoms: C_2  and  C_5
REMARK    5  A    between atoms: N_8  and  C_9
REMARK    6  A    between atoms: C_9  and  C_10
REMARK    7  A    between atoms: C_20  and  C_21
REMARK                            x       y       z     vdW  Elec       q    Type
REMARK                         _______ _______ _______ _____ _____    ______ ____
ROOT
ATOM      1  C   UNL     1       3.062  -0.211   1.320  0.00  0.00    +0.000 A 
ATOM      2  N   UNL     1       3.317   0.987   1.946  0.00  0.00    +0.000 NA
ATOM      3  C   UNL     1       3.741   1.044   3.226  0.00  0.00    +0.000 A 
ATOM      4  N   UNL     1       4.063   2.320   3.699  0.00  0.00    +0.000 N 
ATOM      5  C   UNL     1       3.949  -0.105   3.952  0.00  0.00    +0.000 A 
ATOM      6  C   UNL     1       3.713  -1.334   3.342  0.00  0.00    +0.000 A 
ATOM      7  C   UNL     1       3.239  -1.416   2.019  0.00  0.00    +0.000 A 
ATOM      8  H   UNL     1       3.718   2.974   2.997  0.00  0.00    +0.000 HD
ENDROOT
BRANCH   7   9
ATOM      9  C   UNL     1       3.026  -2.793   1.476  0.00  0.00    +0.000 C 
ATOM     10  N   UNL     1       2.634  -3.763   2.361  0.00  0.00    +0.000 N 
ATOM     11  O   UNL     1       3.200  -3.106   0.309  0.00  0.00    +0.000 OA
ATOM     12  H   UNL     1       2.380  -3.595   3.323  0.00  0.00    +0.000 HD
ATOM     13  H   UNL     1       2.492  -4.694   1.985  0.00  0.00    +0.000 HD
ENDBRANCH   7   9
BRANCH   1  15
ATOM     14  C   UNL     1       2.343   1.458  -0.471  0.00  0.00    +0.000 C 
ATOM     15  C   UNL     1       2.585  -0.051  -0.141  0.00  0.00    +0.000 C 
ATOM     16  C   UNL     1       1.238  -0.749  -0.411  0.00  0.00    +0.000 C 
ATOM     17  C   UNL     1       3.662  -0.501  -1.149  0.00  0.00    +0.000 C 
ENDBRANCH   1  15
BRANCH   4  18
ATOM     18  C   UNL     1       3.867   2.758   5.106  0.00  0.00    +0.000 C 
ATOM     19  C   UNL     1       5.014   3.603   5.661  0.00  0.00    +0.000 C 
ATOM     20  C   UNL     1       4.737   2.264   6.252  0.00  0.00    +0.000 C 
BRANCH  18  21
ATOM     21  C   UNL     1       2.431   3.220   5.439  0.00  0.00    +0.000 A 
ATOM     22  N   UNL     1       1.574   2.339   6.010  0.00  0.00    +0.000 NA
ATOM     23  C   UNL     1       0.323   2.770   6.260  0.00  0.00    +0.000 A 
ATOM     24  C   UNL     1      -0.114   4.041   5.984  0.00  0.00    +0.000 A 
ATOM     25  C   UNL     1       0.821   4.875   5.423  0.00  0.00    +0.000 A 
ATOM     26  N   UNL     1       2.082   4.494   5.141  0.00  0.00    +0.000 NA
ENDBRANCH  18  21
ENDBRANCH   4  18
TORSDOF 4
