REMARK  Name = 
REMARK  7 active torsions:
REMARK  status: ('A' for Active; 'I' for Inactive)
REMARK    1  A    between atoms: C_1  and  O_2
REMARK    2  A    between atoms: O_2  and  C_3
REMARK    3  A    between atoms: C_5  and  N_6
REMARK    4  A    between atoms: N_6  and  C_7
REMARK    5  A    between atoms: C_7  and  C_8
REMARK    6  A    between atoms: C_12  and  C_13
REMARK    7  A    between atoms: C_23  and  C_24
REMARK                            x       y       z     vdW  Elec       q    Type
REMARK                         _______ _______ _______ _____ _____    ______ ____
ROOT
ATOM      1  N   UNL     1       3.401   4.430  -1.645  0.00  0.00    +0.000 N 
ATOM      2  H   UNL     1       4.056   5.013  -2.148  0.00  0.00    +0.000 HD
ENDROOT
BRANCH   1   5
ATOM      3  C   UNL     1       3.207   0.841  -0.843  0.00  0.00    +0.000 A 
ATOM      4  C   UNL     1       2.877   2.191  -0.895  0.00  0.00    +0.000 A 
ATOM      5  C   UNL     1       3.683   3.087  -1.597  0.00  0.00    +0.000 A 
ATOM      6  N   UNL     1       4.780   2.676  -2.260  0.00  0.00    +0.000 NA
ATOM      7  C   UNL     1       5.074   1.341  -2.213  0.00  0.00    +0.000 A 
ATOM      8  C   UNL     1       4.327   0.402  -1.523  0.00  0.00    +0.000 A 
BRANCH   7   9
ATOM      9  C   UNL     1       6.290   0.877  -2.956  0.00  0.00    +0.000 C 
ATOM     10  N   UNL     1       6.999   1.837  -3.623  0.00  0.00    +0.000 N 
ATOM     11  O   UNL     1       6.644  -0.296  -2.975  0.00  0.00    +0.000 OA
ATOM     12  H   UNL     1       6.693   2.804  -3.595  0.00  0.00    +0.000 HD
ATOM     13  H   UNL     1       7.826   1.570  -4.134  0.00  0.00    +0.000 HD
ENDBRANCH   7   9
BRANCH   3  15
ATOM     14  C   UNL     1       1.410   0.321   0.623  0.00  0.00    +0.000 C 
ATOM     15  O   UNL     1       2.513  -0.121  -0.163  0.00  0.00    +0.000 OA
ENDBRANCH   3  15
ENDBRANCH   1   5
BRANCH   1  16
ATOM     16  C   UNL     1       2.256   5.041  -0.984  0.00  0.00    +0.000 C 
BRANCH  16  17
ATOM     17  C   UNL     1       2.169   6.542  -1.189  0.00  0.00    +0.000 A 
ATOM     18  N   UNL     1       1.467   6.990  -2.247  0.00  0.00    +0.000 NA
ATOM     19  C   UNL     1       1.384   8.321  -2.389  0.00  0.00    +0.000 A 
ATOM     20  C   UNL     1       1.967   9.212  -1.522  0.00  0.00    +0.000 A 
ATOM     21  C   UNL     1       2.675   8.675  -0.462  0.00  0.00    +0.000 A 
ATOM     22  N   UNL     1       2.787   7.339  -0.292  0.00  0.00    +0.000 NA
BRANCH  21  23
ATOM     23  C   UNL     1       3.397   9.515   0.516  0.00  0.00    +0.000 A 
ATOM     24  C   UNL     1       2.956  10.813   0.851  0.00  0.00    +0.000 A 
ATOM     25  C   UNL     1       3.694  11.632   1.714  0.00  0.00    +0.000 A 
ATOM     26  C   UNL     1       4.873  11.156   2.267  0.00  0.00    +0.000 A 
ATOM     27  F   UNL     1       5.589  11.952   3.073  0.00  0.00    +0.000 F 
ATOM     28  C   UNL     1       5.308   9.871   1.984  0.00  0.00    +0.000 A 
ATOM     29  F   UNL     1       6.446   9.410   2.519  0.00  0.00    +0.000 F 
ATOM     30  C   UNL     1       4.578   9.051   1.125  0.00  0.00    +0.000 A 
ENDBRANCH  21  23
ENDBRANCH  16  17
ENDBRANCH   1  16
TORSDOF 6
