REMARK  Name = 
REMARK  6 active torsions:
REMARK  status: ('A' for Active; 'I' for Inactive)
REMARK    1  A    between atoms: C_2  and  C_3
REMARK    2  A    between atoms: C_6  and  C_7
REMARK    3  A    between atoms: C_7  and  N_8
REMARK    4  A    between atoms: N_8  and  C_9
REMARK    5  A    between atoms: C_12  and  C_13
REMARK    6  A    between atoms: C_17  and  N_18
REMARK                            x       y       z     vdW  Elec       q    Type
REMARK                         _______ _______ _______ _____ _____    ______ ____
ROOT
ATOM      1  N   UNL     1       8.190   1.177   1.034  0.00  0.00    +0.000 N 
ATOM      2  H   UNL     1       8.677   0.956   1.887  0.00  0.00    +0.000 HD
ENDROOT
BRANCH   1   3
ATOM      3  C   UNL     1       8.414   2.502   0.598  0.00  0.00    +0.000 A 
ATOM      4  N   UNL     1       8.374   2.812  -0.717  0.00  0.00    +0.000 NA
ATOM      5  C   UNL     1       8.501   4.123  -1.064  0.00  0.00    +0.000 A 
ATOM      6  C   UNL     1       8.637   5.168  -0.152  0.00  0.00    +0.000 A 
ATOM      7  C   UNL     1       8.653   4.835   1.198  0.00  0.00    +0.000 A 
ATOM      8  C   UNL     1       8.594   3.495   1.598  0.00  0.00    +0.000 A 
BRANCH   6   9
ATOM      9  C   UNL     1       8.750   6.556  -0.660  0.00  0.00    +0.000 C 
ATOM     10  N   UNL     1       8.911   7.575   0.241  0.00  0.00    +0.000 N 
ATOM     11  O   UNL     1       8.710   6.797  -1.859  0.00  0.00    +0.000 OA
ATOM     12  H   UNL     1       8.945   7.479   1.243  0.00  0.00    +0.000 HD
ATOM     13  H   UNL     1       8.981   8.512  -0.137  0.00  0.00    +0.000 HD
ENDBRANCH   6   9
BRANCH   8  14
ATOM     14  N   UNL     1       8.484   3.220   2.977  0.00  0.00    +0.000 N 
ATOM     15  H   UNL     1       8.880   3.929   3.584  0.00  0.00    +0.000 HD
ATOM     16  H   UNL     1       8.759   2.287   3.255  0.00  0.00    +0.000 HD
ENDBRANCH   8  14
ENDBRANCH   1   3
BRANCH   1  17
ATOM     17  C   UNL     1       7.846   0.060   0.151  0.00  0.00    +0.000 C 
ATOM     18  C   UNL     1       8.769  -0.414  -0.958  0.00  0.00    +0.000 C 
ATOM     19  C   UNL     1       8.699  -1.191   0.313  0.00  0.00    +0.000 C 
BRANCH  17  23
ATOM     20  C   UNL     1       3.603  -0.076  -0.383  0.00  0.00    +0.000 A 
ATOM     21  C   UNL     1       4.370   0.569  -1.342  0.00  0.00    +0.000 A 
ATOM     22  C   UNL     1       5.752   0.574  -1.182  0.00  0.00    +0.000 A 
ATOM     23  C   UNL     1       6.353  -0.052  -0.081  0.00  0.00    +0.000 A 
ATOM     24  C   UNL     1       5.478  -0.680   0.810  0.00  0.00    +0.000 A 
ATOM     25  F   UNL     1       5.989  -1.286   1.895  0.00  0.00    +0.000 F 
ATOM     26  N   UNL     1       4.128  -0.717   0.687  0.00  0.00    +0.000 NA
BRANCH  20  28
ATOM     27  N   UNL     1       1.014  -0.021  -0.603  0.00  0.00    +0.000 NA
ATOM     28  C   UNL     1       2.170  -0.065  -0.480  0.00  0.00    +0.000 C 
ENDBRANCH  20  28
ENDBRANCH  17  23
ENDBRANCH   1  17
TORSDOF 6
