REMARK  Name = 
REMARK  8 active torsions:
REMARK  status: ('A' for Active; 'I' for Inactive)
REMARK    1  A    between atoms: N_1  and  C_2
REMARK    2  A    between atoms: C_2  and  C_3
REMARK    3  A    between atoms: C_3  and  N_4
REMARK    4  A    between atoms: C_3  and  C_17
REMARK    5  A    between atoms: C_5  and  C_7
REMARK    6  A    between atoms: C_20  and  C_21
REMARK    7  A    between atoms: C_21  and  N_22
REMARK    8  A    between atoms: C_23  and  C_25
REMARK                            x       y       z     vdW  Elec       q    Type
REMARK                         _______ _______ _______ _____ _____    ______ ____
ROOT
ATOM      1  C   UNL     1       2.938   0.725   1.108  0.00  0.00    +0.000 C 
ENDROOT
BRANCH   1   2
ATOM      2  C   UNL     1       4.469   0.791   1.199  0.00  0.00    +0.000 A 
ATOM      3  C   UNL     1       5.130   2.024   1.092  0.00  0.00    +0.000 A 
ATOM      4  C   UNL     1       6.529   2.107   1.158  0.00  0.00    +0.000 A 
ATOM      5  C   UNL     1       7.310   0.957   1.327  0.00  0.00    +0.000 A 
ATOM      6  C   UNL     1       6.654  -0.273   1.471  0.00  0.00    +0.000 A 
ATOM      7  C   UNL     1       5.254  -0.356   1.402  0.00  0.00    +0.000 A 
BRANCH   5   8
ATOM      8  C   UNL     1       8.819   1.043   1.331  0.00  0.00    +0.000 C 
BRANCH   8   9
ATOM      9  N   UNL     1       9.359   1.316   2.642  0.00  0.00    +0.000 N 
ATOM     10  C   UNL     1      10.722   1.381   2.853  0.00  0.00    +0.000 C 
ATOM     11  O   UNL     1      11.537   1.167   1.962  0.00  0.00    +0.000 OA
ATOM     12  H   UNL     1       8.723   1.587   3.373  0.00  0.00    +0.000 HD
BRANCH  10  13
ATOM     13  C   UNL     1      11.129   1.725   4.192  0.00  0.00    +0.000 A 
ATOM     14  C   UNL     1      10.426   1.981   5.352  0.00  0.00    +0.000 A 
ATOM     15  N   UNL     1      11.266   2.271   6.398  0.00  0.00    +0.000 NA
ATOM     16  C   UNL     1      12.476   2.193   5.897  0.00  0.00    +0.000 A 
ATOM     17  N   UNL     1      12.447   1.863   4.573  0.00  0.00    +0.000 N 
ATOM     18  H   UNL     1      13.247   1.738   3.966  0.00  0.00    +0.000 HD
ENDBRANCH  10  13
ENDBRANCH   8   9
ENDBRANCH   5   8
ENDBRANCH   1   2
BRANCH   1  19
ATOM     19  N   UNL     1       2.401   0.218   2.368  0.00  0.00    +0.000 N 
ATOM     20  C   UNL     1       1.053   0.198   2.639  0.00  0.00    +0.000 C 
ATOM     21  O   UNL     1       0.195   0.462   1.805  0.00  0.00    +0.000 OA
ATOM     22  H   UNL     1       3.042   0.243   3.155  0.00  0.00    +0.000 HD
BRANCH  20  23
ATOM     23  C   UNL     1       0.674  -0.200   3.997  0.00  0.00    +0.000 A 
ATOM     24  C   UNL     1      -0.525  -0.861   4.228  0.00  0.00    +0.000 A 
ATOM     25  S   UNL     1      -0.825  -1.160   5.882  0.00  0.00    +0.000 S 
ATOM     26  C   UNL     1       0.621  -0.387   6.339  0.00  0.00    +0.000 A 
ATOM     27  N   UNL     1       0.953  -0.229   7.649  0.00  0.00    +0.000 NA
ATOM     28  C   UNL     1       2.060   0.408   7.844  0.00  0.00    +0.000 A 
ATOM     29  N   UNL     1       2.878   0.878   6.848  0.00  0.00    +0.000 N 
ATOM     30  C   UNL     1       2.615   0.687   5.517  0.00  0.00    +0.000 A 
ATOM     31  O   UNL     1       3.421   1.014   4.654  0.00  0.00    +0.000 OA
ATOM     32  C   UNL     1       1.349   0.038   5.244  0.00  0.00    +0.000 A 
ATOM     33  H   UNL     1       3.755   1.329   7.068  0.00  0.00    +0.000 HD
ENDBRANCH  20  23
ENDBRANCH   1  19
BRANCH   1  34
ATOM     34  C   UNL     1       2.441  -0.116  -0.108  0.00  0.00    +0.000 C 
BRANCH  34  35
ATOM     35  N   UNL     1       2.918   0.342  -1.418  0.00  0.00    +0.000 NA
ATOM     36  H   UNL     1       2.622  -0.334  -2.122  0.00  0.00    +0.000 HD
ATOM     37  H   UNL     1       3.937   0.343  -1.424  0.00  0.00    +0.000 HD
ENDBRANCH  34  35
ENDBRANCH   1  34
TORSDOF 8
