REMARK  Name = 
REMARK  6 active torsions:
REMARK  status: ('A' for Active; 'I' for Inactive)
REMARK    1  A    between atoms: C_2  and  C_20
REMARK    2  A    between atoms: N_3  and  C_4
REMARK    3  A    between atoms: C_4  and  C_5
REMARK    4  A    between atoms: C_8  and  C_9
REMARK    5  A    between atoms: C_9  and  N_10
REMARK    6  A    between atoms: C_11  and  C_13
REMARK                            x       y       z     vdW  Elec       q    Type
REMARK                         _______ _______ _______ _____ _____    ______ ____
ROOT
ATOM      1  C   UNL     1       3.340   1.093  -3.300  0.00  0.00    +0.000 A 
ATOM      2  C   UNL     1       3.473   2.435  -3.682  0.00  0.00    +0.000 A 
ATOM      3  C   UNL     1       4.376   2.806  -4.684  0.00  0.00    +0.000 A 
ATOM      4  C   UNL     1       5.149   1.839  -5.341  0.00  0.00    +0.000 A 
ATOM      5  C   UNL     1       5.008   0.496  -4.965  0.00  0.00    +0.000 A 
ATOM      6  C   UNL     1       4.105   0.125  -3.963  0.00  0.00    +0.000 A 
ENDROOT
BRANCH   1   7
ATOM      7  C   UNL     1       2.352   0.695  -2.233  0.00  0.00    +0.000 C 
BRANCH   7  10
ATOM      8  O   UNL     1       0.139  -0.253  -0.829  0.00  0.00    +0.000 OA
ATOM      9  C   UNL     1       0.011  -0.003  -2.024  0.00  0.00    +0.000 C 
ATOM     10  N   UNL     1       1.064   0.399  -2.805  0.00  0.00    +0.000 N 
ATOM     11  H   UNL     1       0.877   0.794  -3.720  0.00  0.00    +0.000 HD
BRANCH   9  12
ATOM     12  C   UNL     1      -1.279  -0.160  -2.707  0.00  0.00    +0.000 A 
ATOM     13  C   UNL     1      -2.236  -1.027  -2.197  0.00  0.00    +0.000 A 
ATOM     14  S   UNL     1      -3.656  -1.106  -3.140  0.00  0.00    +0.000 S 
ATOM     15  C   UNL     1      -3.061   0.053  -4.234  0.00  0.00    +0.000 A 
ATOM     16  N   UNL     1      -3.808   0.469  -5.293  0.00  0.00    +0.000 NA
ATOM     17  C   UNL     1      -3.246   1.376  -6.019  0.00  0.00    +0.000 A 
ATOM     18  N   UNL     1      -2.003   1.905  -5.788  0.00  0.00    +0.000 N 
ATOM     19  C   UNL     1      -1.201   1.494  -4.751  0.00  0.00    +0.000 A 
ATOM     20  O   UNL     1      -0.073   1.952  -4.601  0.00  0.00    +0.000 OA
ATOM     21  C   UNL     1      -1.790   0.482  -3.895  0.00  0.00    +0.000 A 
ATOM     22  H   UNL     1      -1.615   2.605  -6.401  0.00  0.00    +0.000 HD
ENDBRANCH   9  12
ENDBRANCH   7  10
ENDBRANCH   1   7
BRANCH   4  23
ATOM     23  C   UNL     1       6.103   2.231  -6.438  0.00  0.00    +0.000 C 
BRANCH  23  24
ATOM     24  N   UNL     1       7.440   2.462  -5.957  0.00  0.00    +0.000 N 
ATOM     25  C   UNL     1       8.450   2.830  -6.817  0.00  0.00    +0.000 C 
ATOM     26  O   UNL     1       8.307   2.887  -8.037  0.00  0.00    +0.000 OA
ATOM     27  H   UNL     1       7.629   2.589  -4.965  0.00  0.00    +0.000 HD
BRANCH  25  28
ATOM     28  C   UNL     1       9.804   3.092  -6.146  0.00  0.00    +0.000 C 
ATOM     29  C   UNL     1      10.641   1.832  -6.048  0.00  0.00    +0.000 C 
ATOM     30  C   UNL     1      11.639   2.176  -4.960  0.00  0.00    +0.000 C 
ATOM     31  C   UNL     1      10.903   3.154  -4.054  0.00  0.00    +0.000 C 
ATOM     32  N   UNL     1       9.641   3.488  -4.723  0.00  0.00    +0.000 NA
ATOM     33  H   UNL     1       9.467   4.492  -4.670  0.00  0.00    +0.000 HD
ENDBRANCH  25  28
ENDBRANCH  23  24
ENDBRANCH   4  23
TORSDOF 6
