REMARK  Name = 
REMARK  7 active torsions:
REMARK  status: ('A' for Active; 'I' for Inactive)
REMARK    1  A    between atoms: C_1  and  C_2
REMARK    2  A    between atoms: C_2  and  N_3
REMARK    3  A    between atoms: C_2  and  C_19
REMARK    4  A    between atoms: C_7  and  C_8
REMARK    5  A    between atoms: C_8  and  O_9
REMARK    6  A    between atoms: C_8  and  C_10
REMARK    7  A    between atoms: C_10  and  C_11
REMARK                            x       y       z     vdW  Elec       q    Type
REMARK                         _______ _______ _______ _____ _____    ______ ____
ROOT
ATOM      1  N   UNL     1       2.935   0.148  -1.288  0.00  0.00    +0.000 N 
ATOM      2  C   UNL     1       2.696  -0.669  -2.388  0.00  0.00    +0.000 A 
ATOM      3  C   UNL     1       1.395  -1.107  -2.595  0.00  0.00    +0.000 A 
ATOM      4  C   UNL     1       1.112  -1.970  -3.647  0.00  0.00    +0.000 A 
ATOM      5  C   UNL     1       2.143  -2.334  -4.494  0.00  0.00    +0.000 A 
ATOM      6  N   UNL     1       3.384  -1.829  -4.322  0.00  0.00    +0.000 NA
ATOM      7  N   UNL     1       3.664  -1.014  -3.254  0.00  0.00    +0.000 NA
ATOM      8  H   UNL     1       2.556   1.068  -1.493  0.00  0.00    +0.000 HD
ENDROOT
BRANCH   1  10
ATOM      9  C   UNL     1       5.040  -1.054  -0.582  0.00  0.00    +0.000 C 
ATOM     10  C   UNL     1       4.266   0.270  -0.671  0.00  0.00    +0.000 C 
BRANCH  10  11
ATOM     11  C   UNL     1       4.112   0.832   0.741  0.00  0.00    +0.000 A 
ATOM     12  C   UNL     1       3.073   0.491   1.597  0.00  0.00    +0.000 A 
ATOM     13  S   UNL     1       3.133   1.317   3.089  0.00  0.00    +0.000 S 
ATOM     14  C   UNL     1       4.562   2.131   2.647  0.00  0.00    +0.000 A 
ATOM     15  N   UNL     1       5.156   3.027   3.479  0.00  0.00    +0.000 NA
ATOM     16  C   UNL     1       6.246   3.541   3.011  0.00  0.00    +0.000 A 
ATOM     17  N   UNL     1       6.802   3.234   1.792  0.00  0.00    +0.000 N 
ATOM     18  C   UNL     1       6.230   2.349   0.910  0.00  0.00    +0.000 A 
ATOM     19  O   UNL     1       6.742   2.094  -0.178  0.00  0.00    +0.000 OA
ATOM     20  C   UNL     1       4.997   1.762   1.386  0.00  0.00    +0.000 A 
ATOM     21  H   UNL     1       7.665   3.663   1.494  0.00  0.00    +0.000 HD
ENDBRANCH  10  11
ENDBRANCH   1  10
BRANCH   5  22
ATOM     22  C   UNL     1       1.890  -3.198  -5.711  0.00  0.00    +0.000 C 
BRANCH  22  23
ATOM     23  O   UNL     1       1.484  -2.343  -6.792  0.00  0.00    +0.000 OA
ATOM     24  H   UNL     1       1.998  -1.520  -6.719  0.00  0.00    +0.000 HD
ENDBRANCH  22  23
BRANCH  22  25
ATOM     25  C   UNL     1       3.143  -3.999  -6.096  0.00  0.00    +0.000 C 
BRANCH  25  26
ATOM     26  C   UNL     1       2.882  -4.884  -7.285  0.00  0.00    +0.000 A 
ATOM     27  C   UNL     1       3.118  -4.405  -8.573  0.00  0.00    +0.000 A 
ATOM     28  C   UNL     1       2.806  -5.214  -9.658  0.00  0.00    +0.000 A 
ATOM     29  C   UNL     1       2.274  -6.477  -9.430  0.00  0.00    +0.000 A 
ATOM     30  C   UNL     1       2.084  -6.880  -8.118  0.00  0.00    +0.000 A 
ATOM     31  N   UNL     1       2.373  -6.116  -7.043  0.00  0.00    +0.000 NA
ENDBRANCH  25  26
ENDBRANCH  22  25
ENDBRANCH   5  22
TORSDOF 6
