REMARK  Name = 
REMARK  8 active torsions:
REMARK  status: ('A' for Active; 'I' for Inactive)
REMARK    1  A    between atoms: C_2  and  C_3
REMARK    2  A    between atoms: C_3  and  N_4
REMARK    3  A    between atoms: C_3  and  C_26
REMARK    4  A    between atoms: N_4  and  C_5
REMARK    5  A    between atoms: C_5  and  C_6
REMARK    6  A    between atoms: C_9  and  C_10
REMARK    7  A    between atoms: C_10  and  N_11
REMARK    8  A    between atoms: C_12  and  C_14
REMARK                            x       y       z     vdW  Elec       q    Type
REMARK                         _______ _______ _______ _____ _____    ______ ____
ROOT
ATOM      1  C   UNL     1       4.270   2.764  -2.543  0.00  0.00    +0.000 A 
ATOM      2  C   UNL     1       3.517   3.897  -2.192  0.00  0.00    +0.000 A 
ATOM      3  C   UNL     1       3.864   5.160  -2.678  0.00  0.00    +0.000 A 
ATOM      4  C   UNL     1       4.968   5.314  -3.517  0.00  0.00    +0.000 A 
ATOM      5  C   UNL     1       5.750   4.194  -3.825  0.00  0.00    +0.000 A 
ATOM      6  C   UNL     1       5.400   2.928  -3.350  0.00  0.00    +0.000 A 
ENDROOT
BRANCH   1   7
ATOM      7  C   UNL     1       3.865   1.398  -2.054  0.00  0.00    +0.000 C 
BRANCH   7   8
ATOM      8  N   UNL     1       2.512   1.067  -2.518  0.00  0.00    +0.000 NA
ATOM      9  H   UNL     1       1.870   1.787  -2.191  0.00  0.00    +0.000 HD
BRANCH   8  10
ATOM     10  C   UNL     1       2.031  -0.229  -2.017  0.00  0.00    +0.000 C 
BRANCH  10  11
ATOM     11  C   UNL     1       2.852  -1.409  -2.565  0.00  0.00    +0.000 A 
ATOM     12  C   UNL     1       3.512  -2.326  -1.715  0.00  0.00    +0.000 A 
ATOM     13  C   UNL     1       4.219  -3.409  -2.221  0.00  0.00    +0.000 A 
ATOM     14  C   UNL     1       4.295  -3.598  -3.597  0.00  0.00    +0.000 A 
ATOM     15  C   UNL     1       3.673  -2.695  -4.458  0.00  0.00    +0.000 A 
ATOM     16  C   UNL     1       2.958  -1.607  -3.949  0.00  0.00    +0.000 A 
ENDBRANCH  10  11
BRANCH  10  18
ATOM     17  N   UNL     1       1.980  -0.361   0.761  0.00  0.00    +0.000 NA
ATOM     18  C   UNL     1       2.003  -0.301  -0.499  0.00  0.00    +0.000 C 
ENDBRANCH  10  18
ENDBRANCH   8  10
ENDBRANCH   7   8
ENDBRANCH   1   7
BRANCH   4  19
ATOM     19  C   UNL     1       5.339   6.664  -4.077  0.00  0.00    +0.000 C 
BRANCH  19  20
ATOM     20  N   UNL     1       6.241   7.373  -3.208  0.00  0.00    +0.000 N 
ATOM     21  C   UNL     1       6.687   8.633  -3.521  0.00  0.00    +0.000 C 
ATOM     22  O   UNL     1       6.325   9.223  -4.535  0.00  0.00    +0.000 OA
ATOM     23  H   UNL     1       6.773   6.815  -2.549  0.00  0.00    +0.000 HD
BRANCH  21  24
ATOM     24  C   UNL     1       7.573   9.266  -2.538  0.00  0.00    +0.000 A 
ATOM     25  C   UNL     1       7.618  10.649  -2.433  0.00  0.00    +0.000 A 
ATOM     26  S   UNL     1       8.672  11.206  -1.213  0.00  0.00    +0.000 S 
ATOM     27  C   UNL     1       9.141   9.619  -0.817  0.00  0.00    +0.000 A 
ATOM     28  N   UNL     1      10.068   9.381   0.150  0.00  0.00    +0.000 NA
ATOM     29  C   UNL     1      10.342   8.132   0.331  0.00  0.00    +0.000 A 
ATOM     30  N   UNL     1       9.767   7.097  -0.362  0.00  0.00    +0.000 N 
ATOM     31  C   UNL     1       8.800   7.288  -1.318  0.00  0.00    +0.000 A 
ATOM     32  O   UNL     1       8.256   6.338  -1.871  0.00  0.00    +0.000 OA
ATOM     33  C   UNL     1       8.477   8.677  -1.581  0.00  0.00    +0.000 A 
ATOM     34  H   UNL     1      10.008   6.139  -0.156  0.00  0.00    +0.000 HD
ENDBRANCH  21  24
ENDBRANCH  19  20
ENDBRANCH   4  19
TORSDOF 8
