REMARK  Name = 
REMARK  6 active torsions:
REMARK  status: ('A' for Active; 'I' for Inactive)
REMARK    1  A    between atoms: C_1  and  O_2
REMARK    2  A    between atoms: O_2  and  C_3
REMARK    3  A    between atoms: N_6  and  C_7
REMARK    4  A    between atoms: C_7  and  C_8
REMARK    5  A    between atoms: C_12  and  C_13
REMARK    6  A    between atoms: C_22  and  C_23
REMARK                            x       y       z     vdW  Elec       q    Type
REMARK                         _______ _______ _______ _____ _____    ______ ____
ROOT
ATOM      1  C   UNL     1       3.217   0.383   1.341  0.00  0.00    +0.000 A 
ATOM      2  N   UNL     1       4.315   1.118   1.041  0.00  0.00    +0.000 NA
ATOM      3  C   UNL     1       4.817   1.907   1.992  0.00  0.00    +0.000 A 
ATOM      4  N   UNL     1       5.936   2.638   1.642  0.00  0.00    +0.000 N 
ATOM      5  N   UNL     1       4.291   2.006   3.217  0.00  0.00    +0.000 NA
ATOM      6  C   UNL     1       3.188   1.264   3.477  0.00  0.00    +0.000 A 
ATOM      7  C   UNL     1       2.593   0.415   2.570  0.00  0.00    +0.000 A 
ATOM      8  H   UNL     1       6.368   2.202   0.833  0.00  0.00    +0.000 HD
ENDROOT
BRANCH   7   9
ATOM      9  C   UNL     1       1.420  -0.375   3.003  0.00  0.00    +0.000 C 
ATOM     10  N   UNL     1       0.793  -1.183   2.101  0.00  0.00    +0.000 N 
ATOM     11  O   UNL     1       1.017  -0.314   4.160  0.00  0.00    +0.000 OA
ATOM     12  H   UNL     1       1.085  -1.257   1.134  0.00  0.00    +0.000 HD
ATOM     13  H   UNL     1       0.014  -1.743   2.422  0.00  0.00    +0.000 HD
ENDBRANCH   7   9
BRANCH   1  15
ATOM     14  C   UNL     1       3.530  -0.463  -0.823  0.00  0.00    +0.000 C 
ATOM     15  O   UNL     1       2.720  -0.450   0.354  0.00  0.00    +0.000 OA
ENDBRANCH   1  15
BRANCH   4  16
ATOM     16  C   UNL     1       6.867   2.904   2.734  0.00  0.00    +0.000 C 
BRANCH  16  17
ATOM     17  C   UNL     1       8.102   3.646   2.238  0.00  0.00    +0.000 A 
ATOM     18  N   UNL     1       8.873   3.032   1.314  0.00  0.00    +0.000 NA
ATOM     19  C   UNL     1       9.952   3.713   0.892  0.00  0.00    +0.000 A 
ATOM     20  C   UNL     1      10.283   4.970   1.341  0.00  0.00    +0.000 A 
ATOM     21  C   UNL     1       9.440   5.534   2.281  0.00  0.00    +0.000 A 
ATOM     22  N   UNL     1       8.357   4.872   2.748  0.00  0.00    +0.000 NA
BRANCH  21  23
ATOM     23  C   UNL     1       9.675   6.882   2.841  0.00  0.00    +0.000 A 
ATOM     24  C   UNL     1      10.274   7.900   2.087  0.00  0.00    +0.000 A 
ATOM     25  C   UNL     1      10.509   9.136   2.671  0.00  0.00    +0.000 A 
ATOM     26  N   UNL     1      10.186   9.434   3.944  0.00  0.00    +0.000 NA
ATOM     27  C   UNL     1       9.587   8.459   4.657  0.00  0.00    +0.000 A 
ATOM     28  C   UNL     1       9.311   7.194   4.158  0.00  0.00    +0.000 A 
ENDBRANCH  21  23
ENDBRANCH  16  17
ENDBRANCH   4  16
TORSDOF 5
