REMARK  Name = 
REMARK  7 active torsions:
REMARK  status: ('A' for Active; 'I' for Inactive)
REMARK    1  A    between atoms: N_1  and  C_2
REMARK    2  A    between atoms: C_2  and  C_3
REMARK    3  A    between atoms: C_7  and  C_8
REMARK    4  A    between atoms: C_8  and  C_9
REMARK    5  A    between atoms: C_9  and  O_10
REMARK    6  A    between atoms: O_10  and  C_11
REMARK    7  A    between atoms: C_14  and  C_15
REMARK                            x       y       z     vdW  Elec       q    Type
REMARK                         _______ _______ _______ _____ _____    ______ ____
ROOT
ATOM      1  C   UNL     1       2.399  -5.938   1.751  0.00  0.00    +0.000 C 
ENDROOT
BRANCH   1   2
ATOM      2  C   UNL     1       2.348  -4.905   0.624  0.00  0.00    +0.000 C 
BRANCH   2   7
ATOM      3  C   UNL     1       2.251  -1.502   2.359  0.00  0.00    +0.000 A 
ATOM      4  C   UNL     1       3.597  -1.120   2.278  0.00  0.00    +0.000 A 
ATOM      5  C   UNL     1       4.523  -1.936   1.630  0.00  0.00    +0.000 A 
ATOM      6  C   UNL     1       4.118  -3.147   1.064  0.00  0.00    +0.000 A 
ATOM      7  C   UNL     1       2.778  -3.549   1.133  0.00  0.00    +0.000 A 
ATOM      8  C   UNL     1       1.852  -2.716   1.779  0.00  0.00    +0.000 A 
BRANCH   3   9
ATOM      9  C   UNL     1       1.264  -0.672   3.137  0.00  0.00    +0.000 C 
BRANCH   9  10
ATOM     10  N   UNL     1       1.139  -1.170   4.502  0.00  0.00    +0.000 NA
ATOM     11  H   UNL     1       0.600  -0.509   5.056  0.00  0.00    +0.000 HD
ATOM     12  H   UNL     1       2.066  -1.215   4.922  0.00  0.00    +0.000 HD
ENDBRANCH   9  10
ENDBRANCH   3   9
ENDBRANCH   2   7
ENDBRANCH   1   2
BRANCH   1  13
ATOM     13  O   UNL     1       1.971  -7.224   1.277  0.00  0.00    +0.000 OA
BRANCH  13  14
ATOM     14  C   UNL     1       2.027  -8.178   2.280  0.00  0.00    +0.000 A 
ATOM     15  C   UNL     1       1.628  -9.479   1.989  0.00  0.00    +0.000 A 
ATOM     16  N   UNL     1       1.657 -10.487   2.905  0.00  0.00    +0.000 NA
ATOM     17  C   UNL     1       2.109 -10.117   4.140  0.00  0.00    +0.000 A 
ATOM     18  C   UNL     1       2.503  -8.820   4.430  0.00  0.00    +0.000 A 
ATOM     19  N   UNL     1       2.471  -7.828   3.508  0.00  0.00    +0.000 NA
BRANCH  17  20
ATOM     20  C   UNL     1       2.187 -11.148   5.209  0.00  0.00    +0.000 C 
ATOM     21  N   UNL     1       1.784 -12.409   4.864  0.00  0.00    +0.000 N 
ATOM     22  O   UNL     1       2.590 -10.891   6.337  0.00  0.00    +0.000 OA
ATOM     23  H   UNL     1       1.454 -12.603   3.926  0.00  0.00    +0.000 HD
ATOM     24  H   UNL     1       1.823 -13.143   5.556  0.00  0.00    +0.000 HD
ENDBRANCH  17  20
ENDBRANCH  13  14
ENDBRANCH   1  13
TORSDOF 7
