REMARK  Name = 
REMARK  6 active torsions:
REMARK  status: ('A' for Active; 'I' for Inactive)
REMARK    1  A    between atoms: C_2  and  C_21
REMARK    2  A    between atoms: N_3  and  C_4
REMARK    3  A    between atoms: C_4  and  C_5
REMARK    4  A    between atoms: N_8  and  C_9
REMARK    5  A    between atoms: C_9  and  C_10
REMARK    6  A    between atoms: C_10  and  C_11
REMARK                            x       y       z     vdW  Elec       q    Type
REMARK                         _______ _______ _______ _____ _____    ______ ____
ROOT
ATOM      1  C   UNL     1       2.359  -0.116  -2.364  0.00  0.00    +0.000 C 
ENDROOT
BRANCH   1   2
ATOM      2  C   UNL     1       3.319  -0.202  -3.564  0.00  0.00    +0.000 C 
ATOM      3  C   UNL     1       3.047   0.904  -4.592  0.00  0.00    +0.000 C 
ATOM      4  C   UNL     1       1.724   0.697  -5.326  0.00  0.00    +0.000 C 
ATOM      5  N   UNL     1       1.665  -0.615  -5.996  0.00  0.00    +0.000 NA
ATOM      6  C   UNL     1       1.858  -1.705  -5.020  0.00  0.00    +0.000 C 
ATOM      7  C   UNL     1       3.192  -1.558  -4.273  0.00  0.00    +0.000 C 
BRANCH   5   8
ATOM      8  C   UNL     1       0.370  -0.765  -6.709  0.00  0.00    +0.000 C 
BRANCH   8   9
ATOM      9  C   UNL     1       0.175   0.288  -7.809  0.00  0.00    +0.000 C 
BRANCH   9  10
ATOM     10  C   UNL     1      -1.152   0.143  -8.527  0.00  0.00    +0.000 C 
ATOM     11  O   UNL     1      -1.936  -0.767  -8.258  0.00  0.00    +0.000 OA
ATOM     12  N   UNL     1      -1.452   1.130  -9.461  0.00  0.00    +0.000 N 
ATOM     13  C   UNL     1      -2.773   1.143 -10.076  0.00  0.00    +0.000 C 
ATOM     14  C   UNL     1      -2.681   0.879 -11.574  0.00  0.00    +0.000 C 
ATOM     15  C   UNL     1      -1.705   1.849 -12.239  0.00  0.00    +0.000 C 
ATOM     16  C   UNL     1      -0.346   1.825 -11.539  0.00  0.00    +0.000 C 
ATOM     17  C   UNL     1      -0.483   2.065 -10.036  0.00  0.00    +0.000 C 
ENDBRANCH   9  10
ENDBRANCH   8   9
ENDBRANCH   5   8
ENDBRANCH   1   2
BRANCH   1  20
ATOM     18  O   UNL     1       0.229   1.060  -1.028  0.00  0.00    +0.000 OA
ATOM     19  C   UNL     1       1.327   1.629  -1.009  0.00  0.00    +0.000 C 
ATOM     20  N   UNL     1       2.430   1.142  -1.664  0.00  0.00    +0.000 N 
ATOM     21  H   UNL     1       3.345   1.473  -1.383  0.00  0.00    +0.000 HD
BRANCH  19  22
ATOM     22  C   UNL     1       1.514   2.891  -0.311  0.00  0.00    +0.000 A 
ATOM     23  C   UNL     1       0.495   3.819  -0.154  0.00  0.00    +0.000 A 
ATOM     24  S   UNL     1       0.979   5.190   0.754  0.00  0.00    +0.000 S 
ATOM     25  C   UNL     1       2.549   4.570   0.962  0.00  0.00    +0.000 A 
ATOM     26  N   UNL     1       3.493   5.246   1.665  0.00  0.00    +0.000 NA
ATOM     27  C   UNL     1       4.635   4.645   1.744  0.00  0.00    +0.000 A 
ATOM     28  N   UNL     1       4.919   3.427   1.180  0.00  0.00    +0.000 N 
ATOM     29  C   UNL     1       4.026   2.745   0.410  0.00  0.00    +0.000 A 
ATOM     30  O   UNL     1       4.377   1.729  -0.206  0.00  0.00    +0.000 OA
ATOM     31  C   UNL     1       2.716   3.353   0.327  0.00  0.00    +0.000 A 
ATOM     32  H   UNL     1       5.847   3.037   1.240  0.00  0.00    +0.000 HD
ENDBRANCH  19  22
ENDBRANCH   1  20
TORSDOF 6
