REMARK  Name = 
REMARK  5 active torsions:
REMARK  status: ('A' for Active; 'I' for Inactive)
REMARK    1  A    between atoms: C_2  and  C_4
REMARK    2  A    between atoms: C_7  and  O_8
REMARK    3  A    between atoms: O_8  and  C_9
REMARK    4  A    between atoms: C_9  and  C_10
REMARK    5  A    between atoms: C_14  and  C_15
REMARK                            x       y       z     vdW  Elec       q    Type
REMARK                         _______ _______ _______ _____ _____    ______ ____
ROOT
ATOM      1  C   UNL     1       5.319  -3.462   4.489  0.00  0.00    +0.000 C 
ENDROOT
BRANCH   1   2
ATOM      2  C   UNL     1       6.376  -3.870   5.481  0.00  0.00    +0.000 A 
ATOM      3  C   UNL     1       6.542  -5.212   5.800  0.00  0.00    +0.000 A 
ATOM      4  N   UNL     1       7.424  -5.668   6.711  0.00  0.00    +0.000 NA
ATOM      5  C   UNL     1       8.174  -4.736   7.346  0.00  0.00    +0.000 A 
ATOM      6  C   UNL     1       8.092  -3.356   7.144  0.00  0.00    +0.000 A 
ATOM      7  C   UNL     1       7.153  -2.940   6.185  0.00  0.00    +0.000 A 
BRANCH   6   8
ATOM      8  C   UNL     1       8.936  -2.402   7.889  0.00  0.00    +0.000 A 
ATOM      9  C   UNL     1       9.340  -2.633   9.213  0.00  0.00    +0.000 A 
ATOM     10  C   UNL     1      10.153  -1.717   9.882  0.00  0.00    +0.000 A 
ATOM     11  C   UNL     1      10.540  -0.572   9.212  0.00  0.00    +0.000 A 
ATOM     12  N   UNL     1      10.176  -0.293   7.945  0.00  0.00    +0.000 NA
ATOM     13  C   UNL     1       9.394  -1.209   7.321  0.00  0.00    +0.000 A 
ENDBRANCH   6   8
ENDBRANCH   1   2
BRANCH   1  14
ATOM     14  O   UNL     1       5.724  -2.301   3.754  0.00  0.00    +0.000 OA
BRANCH  14  18
ATOM     15  C   UNL     1       2.829  -1.024   1.111  0.00  0.00    +0.000 A 
ATOM     16  C   UNL     1       4.032  -0.322   1.209  0.00  0.00    +0.000 A 
ATOM     17  C   UNL     1       5.008  -0.763   2.107  0.00  0.00    +0.000 A 
ATOM     18  C   UNL     1       4.745  -1.896   2.867  0.00  0.00    +0.000 A 
ATOM     19  N   UNL     1       3.592  -2.595   2.787  0.00  0.00    +0.000 NA
ATOM     20  C   UNL     1       2.657  -2.140   1.920  0.00  0.00    +0.000 A 
BRANCH  15  22
ATOM     21  N   UNL     1       2.022   0.086  -0.899  0.00  0.00    +0.000 N 
ATOM     22  C   UNL     1       1.717  -0.634   0.221  0.00  0.00    +0.000 C 
ATOM     23  O   UNL     1       0.565  -0.971   0.459  0.00  0.00    +0.000 OA
ATOM     24  H   UNL     1       1.258   0.248  -1.544  0.00  0.00    +0.000 HD
ATOM     25  H   UNL     1       2.962   0.169  -1.260  0.00  0.00    +0.000 HD
ENDBRANCH  15  22
ENDBRANCH  14  18
ENDBRANCH   1  14
TORSDOF 5
