REMARK  Name = 
REMARK  7 active torsions:
REMARK  status: ('A' for Active; 'I' for Inactive)
REMARK    1  A    between atoms: N_1  and  C_2
REMARK    2  A    between atoms: C_2  and  C_3
REMARK    3  A    between atoms: C_2  and  C_18
REMARK    4  A    between atoms: C_3  and  C_4
REMARK    5  A    between atoms: C_7  and  C_8
REMARK    6  A    between atoms: C_8  and  N_9
REMARK    7  A    between atoms: N_9  and  C_10
REMARK                            x       y       z     vdW  Elec       q    Type
REMARK                         _______ _______ _______ _____ _____    ______ ____
ROOT
ATOM      1  C   UNL     1       0.874  -0.089   0.061  0.00  0.00    +0.000 C 
ENDROOT
BRANCH   1   2
ATOM      2  C   UNL     1       0.421  -1.101  -0.958  0.00  0.00    +0.000 A 
ATOM      3  C   UNL     1       1.351  -1.799  -1.733  0.00  0.00    +0.000 A 
ATOM      4  C   UNL     1       0.914  -2.656  -2.738  0.00  0.00    +0.000 A 
ATOM      5  C   UNL     1      -0.454  -2.795  -2.955  0.00  0.00    +0.000 A 
ATOM      6  N   UNL     1      -1.379  -2.162  -2.186  0.00  0.00    +0.000 NA
ATOM      7  C   UNL     1      -0.923  -1.334  -1.216  0.00  0.00    +0.000 A 
BRANCH   5   8
ATOM      8  C   UNL     1      -0.966  -3.691  -4.066  0.00  0.00    +0.000 C 
BRANCH   8   9
ATOM      9  N   UNL     1      -1.186  -5.061  -3.597  0.00  0.00    +0.000 N 
ATOM     10  H   UNL     1      -1.689  -5.031  -2.709  0.00  0.00    +0.000 HD
BRANCH   9  11
ATOM     11  C   UNL     1      -0.154  -6.002  -3.597  0.00  0.00    +0.000 A 
ATOM     12  C   UNL     1       0.828  -6.077  -4.579  0.00  0.00    +0.000 A 
ATOM     13  C   UNL     1       1.752  -7.107  -4.527  0.00  0.00    +0.000 A 
ATOM     14  N   UNL     1       1.743  -8.060  -3.576  0.00  0.00    +0.000 NA
ATOM     15  N   UNL     1       0.773  -8.035  -2.636  0.00  0.00    +0.000 NA
ATOM     16  C   UNL     1      -0.147  -7.042  -2.670  0.00  0.00    +0.000 A 
ENDBRANCH   9  11
ENDBRANCH   8   9
ENDBRANCH   5   8
ENDBRANCH   1   2
BRANCH   1  17
ATOM     17  C   UNL     1       0.497  -0.375   1.535  0.00  0.00    +0.000 C 
BRANCH  17  18
ATOM     18  C   UNL     1       1.045   0.690   2.466  0.00  0.00    +0.000 A 
ATOM     19  C   UNL     1       0.240   1.517   3.234  0.00  0.00    +0.000 A 
ATOM     20  S   UNL     1       1.121   2.682   4.120  0.00  0.00    +0.000 S 
ATOM     21  C   UNL     1       2.607   2.108   3.518  0.00  0.00    +0.000 A 
ATOM     22  N   UNL     1       3.784   2.697   3.860  0.00  0.00    +0.000 NA
ATOM     23  C   UNL     1       4.825   2.161   3.314  0.00  0.00    +0.000 A 
ATOM     24  N   UNL     1       4.800   1.080   2.470  0.00  0.00    +0.000 N 
ATOM     25  C   UNL     1       3.643   0.407   2.154  0.00  0.00    +0.000 A 
ATOM     26  O   UNL     1       3.666  -0.632   1.501  0.00  0.00    +0.000 OA
ATOM     27  C   UNL     1       2.436   1.020   2.684  0.00  0.00    +0.000 A 
ATOM     28  H   UNL     1       5.655   0.684   2.110  0.00  0.00    +0.000 HD
ENDBRANCH  17  18
BRANCH  17  29
ATOM     29  N   UNL     1       0.945  -1.676   2.022  0.00  0.00    +0.000 NA
ATOM     30  H   UNL     1       0.792  -1.740   3.028  0.00  0.00    +0.000 HD
ATOM     31  H   UNL     1       1.953  -1.760   1.872  0.00  0.00    +0.000 HD
ENDBRANCH  17  29
ENDBRANCH   1  17
TORSDOF 7
