REMARK  Name = 
REMARK  7 active torsions:
REMARK  status: ('A' for Active; 'I' for Inactive)
REMARK    1  A    between atoms: C_1  and  C_2
REMARK    2  A    between atoms: C_2  and  N_3
REMARK    3  A    between atoms: C_2  and  C_16
REMARK    4  A    between atoms: C_4  and  C_6
REMARK    5  A    between atoms: C_19  and  O_20
REMARK    6  A    between atoms: O_20  and  C_21
REMARK    7  A    between atoms: C_21  and  C_22
REMARK                            x       y       z     vdW  Elec       q    Type
REMARK                         _______ _______ _______ _____ _____    ______ ____
ROOT
ATOM      1  C   UNL     1       0.805  -0.065   0.025  0.00  0.00    +0.000 C 
ATOM      2  C   UNL     1       2.331   0.057   0.067  0.00  0.00    +0.000 C 
ENDROOT
BRANCH   2   3
ATOM      3  C   UNL     1       2.885  -0.976   1.046  0.00  0.00    +0.000 A 
ATOM      4  C   UNL     1       2.569  -0.936   2.407  0.00  0.00    +0.000 A 
ATOM      5  C   UNL     1       2.951  -1.998   3.231  0.00  0.00    +0.000 A 
ATOM      6  C   UNL     1       3.640  -3.073   2.686  0.00  0.00    +0.000 A 
ATOM      7  C   UNL     1       3.986  -2.994   1.343  0.00  0.00    +0.000 A 
ATOM      8  N   UNL     1       3.618  -1.988   0.517  0.00  0.00    +0.000 NA
BRANCH   6   9
ATOM      9  O   UNL     1       3.901  -4.125   3.518  0.00  0.00    +0.000 OA
BRANCH   9  10
ATOM     10  C   UNL     1       4.108  -5.379   2.850  0.00  0.00    +0.000 C 
BRANCH  10  11
ATOM     11  C   UNL     1       3.822  -6.530   3.785  0.00  0.00    +0.000 A 
ATOM     12  C   UNL     1       2.572  -6.633   4.394  0.00  0.00    +0.000 A 
ATOM     13  C   UNL     1       2.306  -7.736   5.199  0.00  0.00    +0.000 A 
ATOM     14  C   UNL     1       3.289  -8.703   5.373  0.00  0.00    +0.000 A 
ATOM     15  C   UNL     1       4.500  -8.529   4.728  0.00  0.00    +0.000 A 
ATOM     16  N   UNL     1       4.787  -7.473   3.936  0.00  0.00    +0.000 NA
ENDBRANCH  10  11
ENDBRANCH   9  10
ENDBRANCH   6   9
ENDBRANCH   2   3
BRANCH   2  17
ATOM     17  N   UNL     1       2.745   1.411   0.406  0.00  0.00    +0.000 N 
ATOM     18  C   UNL     1       2.451   2.487  -0.402  0.00  0.00    +0.000 C 
ATOM     19  O   UNL     1       1.747   2.412  -1.401  0.00  0.00    +0.000 OA
ATOM     20  H   UNL     1       3.571   1.474   0.992  0.00  0.00    +0.000 HD
BRANCH  18  21
ATOM     21  C   UNL     1       2.986   3.770   0.045  0.00  0.00    +0.000 A 
ATOM     22  C   UNL     1       2.305   4.953  -0.221  0.00  0.00    +0.000 A 
ATOM     23  S   UNL     1       3.112   6.345   0.350  0.00  0.00    +0.000 S 
ATOM     24  C   UNL     1       4.404   5.418   0.952  0.00  0.00    +0.000 A 
ATOM     25  N   UNL     1       5.478   6.001   1.548  0.00  0.00    +0.000 NA
ATOM     26  C   UNL     1       6.385   5.171   1.946  0.00  0.00    +0.000 A 
ATOM     27  N   UNL     1       6.312   3.809   1.812  0.00  0.00    +0.000 N 
ATOM     28  C   UNL     1       5.236   3.179   1.245  0.00  0.00    +0.000 A 
ATOM     29  O   UNL     1       5.168   1.952   1.212  0.00  0.00    +0.000 OA
ATOM     30  C   UNL     1       4.207   4.066   0.754  0.00  0.00    +0.000 A 
ATOM     31  H   UNL     1       7.041   3.211   2.171  0.00  0.00    +0.000 HD
ENDBRANCH  18  21
ENDBRANCH   2  17
TORSDOF 6
