REMARK  Name = 
REMARK  10 active torsions:
REMARK  status: ('A' for Active; 'I' for Inactive)
REMARK    1  A    between atoms: C_1  and  C_2
REMARK    2  A    between atoms: C_2  and  O_3
REMARK    3  A    between atoms: O_3  and  C_4
REMARK    4  A    between atoms: C_6  and  C_7
REMARK    5  A    between atoms: C_7  and  N_8
REMARK    6  A    between atoms: C_9  and  C_11
REMARK    7  A    between atoms: C_23  and  C_24
REMARK    8  A    between atoms: C_24  and  N_25
REMARK    9  A    between atoms: N_25  and  C_26
REMARK   10  A    between atoms: C_26  and  C_27
REMARK                            x       y       z     vdW  Elec       q    Type
REMARK                         _______ _______ _______ _____ _____    ______ ____
ROOT
ATOM      1  C   UNL     1       4.382  -1.317  -0.899  0.00  0.00    +0.000 A 
ATOM      2  C   UNL     1       5.308  -1.302   0.145  0.00  0.00    +0.000 A 
ATOM      3  C   UNL     1       6.666  -1.502  -0.096  0.00  0.00    +0.000 A 
ATOM      4  C   UNL     1       7.061  -1.669  -1.413  0.00  0.00    +0.000 A 
ATOM      5  N   UNL     1       6.207  -1.676  -2.460  0.00  0.00    +0.000 NA
ATOM      6  C   UNL     1       4.875  -1.506  -2.196  0.00  0.00    +0.000 A 
ENDROOT
BRANCH   1   7
ATOM      7  O   UNL     1       3.031  -1.166  -0.719  0.00  0.00    +0.000 OA
BRANCH   7   9
ATOM      8  C   UNL     1       1.079  -1.068   0.691  0.00  0.00    +0.000 C 
ATOM      9  C   UNL     1       2.591  -1.121   0.643  0.00  0.00    +0.000 C 
ENDBRANCH   7   9
ENDBRANCH   1   7
BRANCH   3  10
ATOM     10  C   UNL     1       7.636  -1.513   1.045  0.00  0.00    +0.000 C 
BRANCH  10  11
ATOM     11  N   UNL     1       8.138  -0.194   1.328  0.00  0.00    +0.000 N 
ATOM     12  C   UNL     1       7.630   0.606   2.320  0.00  0.00    +0.000 C 
ATOM     13  O   UNL     1       6.696   0.257   3.034  0.00  0.00    +0.000 OA
ATOM     14  H   UNL     1       8.765   0.206   0.640  0.00  0.00    +0.000 HD
BRANCH  12  15
ATOM     15  C   UNL     1       8.323   1.887   2.529  0.00  0.00    +0.000 A 
ATOM     16  C   UNL     1       8.224   2.528   3.757  0.00  0.00    +0.000 A 
ATOM     17  S   UNL     1       9.121   3.976   3.848  0.00  0.00    +0.000 S 
ATOM     18  C   UNL     1       9.632   3.826   2.232  0.00  0.00    +0.000 A 
ATOM     19  N   UNL     1      10.420   4.773   1.657  0.00  0.00    +0.000 NA
ATOM     20  C   UNL     1      10.707   4.550   0.418  0.00  0.00    +0.000 A 
ATOM     21  N   UNL     1      10.290   3.456  -0.293  0.00  0.00    +0.000 N 
ATOM     22  C   UNL     1       9.546   2.445   0.263  0.00  0.00    +0.000 A 
ATOM     23  O   UNL     1       9.284   1.425  -0.369  0.00  0.00    +0.000 OA
ATOM     24  C   UNL     1       9.155   2.669   1.641  0.00  0.00    +0.000 A 
ATOM     25  H   UNL     1      10.573   3.326  -1.256  0.00  0.00    +0.000 HD
ENDBRANCH  12  15
ENDBRANCH  10  11
ENDBRANCH   3  10
BRANCH   6  26
ATOM     26  C   UNL     1       3.960  -1.522  -3.407  0.00  0.00    +0.000 C 
BRANCH  26  27
ATOM     27  N   UNL     1       4.117  -2.700  -4.277  0.00  0.00    +0.000 NA
ATOM     28  H   UNL     1       5.118  -2.797  -4.467  0.00  0.00    +0.000 HD
BRANCH  27  29
ATOM     29  C   UNL     1       3.683  -3.941  -3.617  0.00  0.00    +0.000 C 
BRANCH  29  30
ATOM     30  C   UNL     1       3.822  -5.129  -4.553  0.00  0.00    +0.000 A 
ATOM     31  C   UNL     1       3.067  -5.180  -5.725  0.00  0.00    +0.000 A 
ATOM     32  C   UNL     1       3.265  -6.233  -6.612  0.00  0.00    +0.000 A 
ATOM     33  C   UNL     1       4.205  -7.209  -6.307  0.00  0.00    +0.000 A 
ATOM     34  C   UNL     1       4.906  -7.093  -5.118  0.00  0.00    +0.000 A 
ATOM     35  N   UNL     1       4.736  -6.083  -4.237  0.00  0.00    +0.000 NA
ENDBRANCH  29  30
ENDBRANCH  27  29
ENDBRANCH  26  27
ENDBRANCH   6  26
TORSDOF 9
