REMARK  Name = 
REMARK  4 active torsions:
REMARK  status: ('A' for Active; 'I' for Inactive)
REMARK    1  A    between atoms: N_1  and  C_2
REMARK    2  A    between atoms: C_2  and  C_3
REMARK    3  A    between atoms: N_7  and  C_8
REMARK    4  A    between atoms: C_8  and  C_9
REMARK                            x       y       z     vdW  Elec       q    Type
REMARK                         _______ _______ _______ _____ _____    ______ ____
ROOT
ATOM      1  C   UNL     1       6.224   2.726  -0.092  0.00  0.00    +0.000 A 
ATOM      2  C   UNL     1       5.637   1.908  -1.037  0.00  0.00    +0.000 A 
ATOM      3  N   UNL     1       4.937   2.360  -2.096  0.00  0.00    +0.000 NA
ATOM      4  C   UNL     1       4.832   3.683  -2.234  0.00  0.00    +0.000 A 
ATOM      5  N   UNL     1       4.161   4.136  -3.345  0.00  0.00    +0.000 N 
ATOM      6  N   UNL     1       5.363   4.566  -1.364  0.00  0.00    +0.000 NA
ATOM      7  C   UNL     1       6.032   4.066  -0.315  0.00  0.00    +0.000 A 
ATOM      8  H   UNL     1       3.636   3.363  -3.744  0.00  0.00    +0.000 HD
ENDROOT
BRANCH   1   9
ATOM      9  C   UNL     1       7.002   2.212   1.070  0.00  0.00    +0.000 C 
BRANCH   9  10
ATOM     10  N   UNL     1       8.157   1.437   0.637  0.00  0.00    +0.000 NA
ATOM     11  H   UNL     1       8.702   1.158   1.450  0.00  0.00    +0.000 HD
ATOM     12  H   UNL     1       8.769   2.026   0.071  0.00  0.00    +0.000 HD
ENDBRANCH   9  10
ENDBRANCH   1   9
BRANCH   5  13
ATOM     13  C   UNL     1       3.463   5.405  -3.218  0.00  0.00    +0.000 C 
BRANCH  13  14
ATOM     14  C   UNL     1       4.018   6.422  -4.235  0.00  0.00    +0.000 C 
ATOM     15  C   UNL     1       3.311   7.785  -4.123  0.00  0.00    +0.000 C 
ATOM     16  C   UNL     1       1.891   7.742  -4.691  0.00  0.00    +0.000 C 
ATOM     17  C   UNL     1       1.860   7.126  -6.089  0.00  0.00    +0.000 C 
ATOM     18  N   UNL     1       2.503   5.814  -6.119  0.00  0.00    +0.000 NA
ATOM     19  C   UNL     1       3.897   5.900  -5.674  0.00  0.00    +0.000 C 
ATOM     20  H   UNL     1       2.480   5.446  -7.070  0.00  0.00    +0.000 HD
ENDBRANCH  13  14
ENDBRANCH   5  13
TORSDOF 4
