REMARK  Name = 
REMARK  9 active torsions:
REMARK  status: ('A' for Active; 'I' for Inactive)
REMARK    1  A    between atoms: N_1  and  C_2
REMARK    2  A    between atoms: C_2  and  C_3
REMARK    3  A    between atoms: C_7  and  C_8
REMARK    4  A    between atoms: C_8  and  C_9
REMARK    5  A    between atoms: C_9  and  N_10
REMARK    6  A    between atoms: N_10  and  C_11
REMARK    7  A    between atoms: C_14  and  C_15
REMARK    8  A    between atoms: C_19  and  C_20
REMARK    9  A    between atoms: C_20  and  O_21
REMARK                            x       y       z     vdW  Elec       q    Type
REMARK                         _______ _______ _______ _____ _____    ______ ____
ROOT
ATOM      1  N   UNL     1       2.900  -7.406  -0.977  0.00  0.00    +0.000 N 
ATOM      2  H   UNL     1       1.915  -7.650  -0.935  0.00  0.00    +0.000 HD
ENDROOT
BRANCH   1   3
ATOM      3  C   UNL     1       3.578  -8.413  -1.707  0.00  0.00    +0.000 A 
ATOM      4  N   UNL     1       4.282  -8.043  -2.802  0.00  0.00    +0.000 NA
ATOM      5  C   UNL     1       4.922  -8.983  -3.533  0.00  0.00    +0.000 A 
ATOM      6  C   UNL     1       4.933 -10.324  -3.207  0.00  0.00    +0.000 A 
ATOM      7  C   UNL     1       4.235 -10.709  -2.069  0.00  0.00    +0.000 A 
ATOM      8  C   UNL     1       3.526  -9.760  -1.304  0.00  0.00    +0.000 A 
BRANCH   6   9
ATOM      9  C   UNL     1       5.640 -11.278  -4.088  0.00  0.00    +0.000 C 
ATOM     10  N   UNL     1       6.068 -12.448  -3.533  0.00  0.00    +0.000 N 
ATOM     11  O   UNL     1       5.843 -11.020  -5.269  0.00  0.00    +0.000 OA
ATOM     12  H   UNL     1       6.097 -12.615  -2.538  0.00  0.00    +0.000 HD
ATOM     13  H   UNL     1       6.599 -13.072  -4.130  0.00  0.00    +0.000 HD
ENDBRANCH   6   9
BRANCH   8  14
ATOM     14  C   UNL     1       2.829 -10.214  -0.049  0.00  0.00    +0.000 C 
BRANCH  14  15
ATOM     15  O   UNL     1       2.356 -11.559  -0.178  0.00  0.00    +0.000 OA
ATOM     16  H   UNL     1       1.697 -11.560  -0.893  0.00  0.00    +0.000 HD
ENDBRANCH  14  15
ENDBRANCH   8  14
ENDBRANCH   1   3
BRANCH   1  17
ATOM     17  C   UNL     1       3.084  -6.068  -1.579  0.00  0.00    +0.000 C 
BRANCH  17  18
ATOM     18  C   UNL     1       2.310  -4.974  -0.831  0.00  0.00    +0.000 C 
BRANCH  18  23
ATOM     19  C   UNL     1       3.945  -1.650  -1.810  0.00  0.00    +0.000 A 
ATOM     20  C   UNL     1       3.084  -1.218  -2.827  0.00  0.00    +0.000 A 
ATOM     21  C   UNL     1       1.955  -1.965  -3.163  0.00  0.00    +0.000 A 
ATOM     22  C   UNL     1       1.679  -3.161  -2.498  0.00  0.00    +0.000 A 
ATOM     23  C   UNL     1       2.533  -3.625  -1.487  0.00  0.00    +0.000 A 
ATOM     24  C   UNL     1       3.660  -2.857  -1.149  0.00  0.00    +0.000 A 
BRANCH  19  25
ATOM     25  C   UNL     1       5.186  -0.863  -1.468  0.00  0.00    +0.000 C 
BRANCH  25  26
ATOM     26  N   UNL     1       4.872   0.505  -1.069  0.00  0.00    +0.000 NA
ATOM     27  H   UNL     1       5.728   0.968  -0.773  0.00  0.00    +0.000 HD
ATOM     28  H   UNL     1       4.263   0.473  -0.253  0.00  0.00    +0.000 HD
ENDBRANCH  25  26
ENDBRANCH  19  25
ENDBRANCH  18  23
ENDBRANCH  17  18
ENDBRANCH   1  17
TORSDOF 9
