REMARK  Name = 
REMARK  7 active torsions:
REMARK  status: ('A' for Active; 'I' for Inactive)
REMARK    1  A    between atoms: C_1  and  N_2
REMARK    2  A    between atoms: N_2  and  C_3
REMARK    3  A    between atoms: N_2  and  C_4
REMARK    4  A    between atoms: C_4  and  C_5
REMARK    5  A    between atoms: C_5  and  C_6
REMARK    6  A    between atoms: N_8  and  C_9
REMARK    7  A    between atoms: C_9  and  C_10
REMARK                            x       y       z     vdW  Elec       q    Type
REMARK                         _______ _______ _______ _____ _____    ______ ____
ROOT
ATOM      1  C   UNL     1       5.031  -0.882   2.648  0.00  0.00    +0.000 A 
ATOM      2  N   UNL     1       5.495  -0.055   3.604  0.00  0.00    +0.000 NA
ATOM      3  N   UNL     1       5.771  -0.887   4.639  0.00  0.00    +0.000 N 
ATOM      4  C   UNL     1       5.463  -2.201   4.384  0.00  0.00    +0.000 A 
ATOM      5  N   UNL     1       5.579  -3.247   5.229  0.00  0.00    +0.000 NA
ATOM      6  C   UNL     1       5.184  -4.416   4.667  0.00  0.00    +0.000 A 
ATOM      7  C   UNL     1       4.708  -4.582   3.372  0.00  0.00    +0.000 A 
ATOM      8  C   UNL     1       4.604  -3.468   2.541  0.00  0.00    +0.000 A 
ATOM      9  C   UNL     1       4.993  -2.231   3.079  0.00  0.00    +0.000 A 
ENDROOT
BRANCH   1  10
ATOM     10  C   UNL     1       4.590  -0.337   1.335  0.00  0.00    +0.000 C 
BRANCH  10  11
ATOM     11  C   UNL     1       5.729   0.390   0.602  0.00  0.00    +0.000 C 
BRANCH  11  13
ATOM     12  C   UNL     1       6.502   1.625  -1.307  0.00  0.00    +0.000 C 
ATOM     13  N   UNL     1       5.345   0.949  -0.711  0.00  0.00    +0.000 NA
ATOM     14  C   UNL     1       4.849  -0.078  -1.627  0.00  0.00    +0.000 C 
ENDBRANCH  11  13
ENDBRANCH  10  11
ENDBRANCH   1  10
BRANCH   3  15
ATOM     15  C   UNL     1       6.229  -0.341   5.912  0.00  0.00    +0.000 C 
BRANCH  15  16
ATOM     16  C   UNL     1       7.735  -0.271   5.990  0.00  0.00    +0.000 A 
ATOM     17  C   UNL     1       8.421   0.874   5.569  0.00  0.00    +0.000 A 
ATOM     18  C   UNL     1       9.808   0.849   5.539  0.00  0.00    +0.000 A 
ATOM     19  N   UNL     1      10.549  -0.214   5.914  0.00  0.00    +0.000 NA
ATOM     20  C   UNL     1       9.873  -1.300   6.342  0.00  0.00    +0.000 A 
ATOM     21  C   UNL     1       8.487  -1.373   6.411  0.00  0.00    +0.000 A 
ENDBRANCH  15  16
ENDBRANCH   3  15
TORSDOF 5
