REMARK  Name = 
REMARK  7 active torsions:
REMARK  status: ('A' for Active; 'I' for Inactive)
REMARK    1  A    between atoms: C_1  and  C_2
REMARK    2  A    between atoms: C_2  and  N_3
REMARK    3  A    between atoms: C_2  and  C_17
REMARK    4  A    between atoms: C_4  and  C_6
REMARK    5  A    between atoms: N_12  and  C_13
REMARK    6  A    between atoms: C_20  and  O_21
REMARK    7  A    between atoms: O_21  and  C_22
REMARK                            x       y       z     vdW  Elec       q    Type
REMARK                         _______ _______ _______ _____ _____    ______ ____
ROOT
ATOM      1  C   UNL     1       2.903   0.816   1.282  0.00  0.00    +0.000 C 
ATOM      2  C   UNL     1       2.476  -0.036   0.083  0.00  0.00    +0.000 C 
ENDROOT
BRANCH   2   3
ATOM      3  C   UNL     1       3.118  -1.415   0.095  0.00  0.00    +0.000 A 
ATOM      4  C   UNL     1       3.427  -2.025  -1.129  0.00  0.00    +0.000 A 
ATOM      5  C   UNL     1       4.161  -3.210  -1.166  0.00  0.00    +0.000 A 
ATOM      6  C   UNL     1       4.612  -3.799   0.018  0.00  0.00    +0.000 A 
ATOM      7  C   UNL     1       4.202  -3.275   1.242  0.00  0.00    +0.000 A 
ATOM      8  C   UNL     1       3.449  -2.098   1.279  0.00  0.00    +0.000 A 
BRANCH   6   9
ATOM      9  O   UNL     1       5.421  -4.912   0.048  0.00  0.00    +0.000 OA
BRANCH   9  10
ATOM     10  C   UNL     1       6.424  -5.000  -0.910  0.00  0.00    +0.000 A 
ATOM     11  C   UNL     1       6.869  -6.263  -1.267  0.00  0.00    +0.000 A 
ATOM     12  N   UNL     1       7.795  -6.463  -2.240  0.00  0.00    +0.000 NA
ATOM     13  C   UNL     1       8.258  -5.338  -2.833  0.00  0.00    +0.000 A 
ATOM     14  C   UNL     1       7.837  -4.074  -2.458  0.00  0.00    +0.000 A 
ATOM     15  N   UNL     1       6.929  -3.877  -1.479  0.00  0.00    +0.000 NA
ENDBRANCH   9  10
ENDBRANCH   6   9
ENDBRANCH   2   3
BRANCH   2  16
ATOM     16  N   UNL     1       1.035  -0.165   0.016  0.00  0.00    +0.000 N 
ATOM     17  C   UNL     1       0.215   0.780  -0.546  0.00  0.00    +0.000 C 
ATOM     18  O   UNL     1       0.643   1.748  -1.168  0.00  0.00    +0.000 OA
ATOM     19  H   UNL     1       0.635  -0.828   0.670  0.00  0.00    +0.000 HD
BRANCH  17  20
ATOM     20  C   UNL     1      -1.226   0.518  -0.416  0.00  0.00    +0.000 A 
ATOM     21  C   UNL     1      -2.117   0.995  -1.367  0.00  0.00    +0.000 A 
ATOM     22  S   UNL     1      -3.731   0.520  -1.076  0.00  0.00    +0.000 S 
ATOM     23  C   UNL     1      -3.295  -0.293   0.356  0.00  0.00    +0.000 A 
ATOM     24  N   UNL     1      -4.221  -0.939   1.115  0.00  0.00    +0.000 NA
ATOM     25  C   UNL     1      -3.757  -1.485   2.185  0.00  0.00    +0.000 A 
ATOM     26  N   UNL     1      -2.441  -1.448   2.592  0.00  0.00    +0.000 N 
ATOM     27  C   UNL     1      -2.032  -2.080   3.829  0.00  0.00    +0.000 C 
ATOM     28  C   UNL     1      -1.463  -0.815   1.837  0.00  0.00    +0.000 A 
ATOM     29  O   UNL     1      -0.280  -0.795   2.168  0.00  0.00    +0.000 OA
ATOM     30  C   UNL     1      -1.943  -0.199   0.611  0.00  0.00    +0.000 A 
ENDBRANCH  17  20
ENDBRANCH   2  16
TORSDOF 5
