REMARK  Name = 
REMARK  7 active torsions:
REMARK  status: ('A' for Active; 'I' for Inactive)
REMARK    1  A    between atoms: C_1  and  C_2
REMARK    2  A    between atoms: N_7  and  C_8
REMARK    3  A    between atoms: C_10  and  C_11
REMARK    4  A    between atoms: C_11  and  C_12
REMARK    5  A    between atoms: C_12  and  N_13
REMARK    6  A    between atoms: N_13  and  C_14
REMARK    7  A    between atoms: C_17  and  C_18
REMARK                            x       y       z     vdW  Elec       q    Type
REMARK                         _______ _______ _______ _____ _____    ______ ____
ROOT
ATOM      1  C   UNL     1       7.247  -3.712   0.633  0.00  0.00    +0.000 C 
ENDROOT
BRANCH   1   4
ATOM      2  C   UNL     1       3.749  -2.107   0.378  0.00  0.00    +0.000 A 
ATOM      3  C   UNL     1       5.065  -2.527   0.092  0.00  0.00    +0.000 A 
ATOM      4  C   UNL     1       5.818  -3.336   0.968  0.00  0.00    +0.000 A 
ATOM      5  C   UNL     1       5.249  -3.733   2.181  0.00  0.00    +0.000 A 
ATOM      6  C   UNL     1       3.948  -3.352   2.490  0.00  0.00    +0.000 A 
ATOM      7  C   UNL     1       3.216  -2.563   1.600  0.00  0.00    +0.000 A 
ATOM      8  F   UNL     1       1.946  -2.289   1.940  0.00  0.00    +0.000 F 
BRANCH   2  15
ATOM      9  C   UNL     1       3.837  -0.132  -2.539  0.00  0.00    +0.000 C 
ATOM     10  C   UNL     1       3.201  -1.401  -1.966  0.00  0.00    +0.000 C 
ATOM     11  C   UNL     1       1.808  -1.660  -2.588  0.00  0.00    +0.000 C 
ATOM     12  O   UNL     1       0.846  -0.664  -2.205  0.00  0.00    +0.000 OA
ATOM     13  C   UNL     1       0.679  -0.662  -0.776  0.00  0.00    +0.000 C 
ATOM     14  C   UNL     1       1.998  -0.355  -0.053  0.00  0.00    +0.000 C 
ATOM     15  N   UNL     1       3.066  -1.274  -0.496  0.00  0.00    +0.000 N 
ENDBRANCH   2  15
ENDBRANCH   1   4
BRANCH   1  16
ATOM     16  C   UNL     1       8.224  -2.655   1.156  0.00  0.00    +0.000 C 
BRANCH  16  17
ATOM     17  N   UNL     1       9.622  -2.991   0.844  0.00  0.00    +0.000 N 
ATOM     18  H   UNL     1       9.755  -3.239  -0.136  0.00  0.00    +0.000 HD
BRANCH  17  19
ATOM     19  C   UNL     1      10.581  -2.055   1.271  0.00  0.00    +0.000 A 
ATOM     20  C   UNL     1      10.473  -1.290   2.427  0.00  0.00    +0.000 A 
ATOM     21  N   UNL     1      11.392  -0.407   2.870  0.00  0.00    +0.000 NA
ATOM     22  C   UNL     1      12.514  -0.321   2.123  0.00  0.00    +0.000 A 
ATOM     23  N   UNL     1      12.781  -1.048   1.022  0.00  0.00    +0.000 NA
ATOM     24  C   UNL     1      11.810  -1.911   0.644  0.00  0.00    +0.000 A 
BRANCH  22  25
ATOM     25  C   UNL     1      13.529   0.701   2.584  0.00  0.00    +0.000 C 
ATOM     26  N   UNL     1      13.175   1.410   3.711  0.00  0.00    +0.000 N 
ATOM     27  O   UNL     1      14.596   0.918   2.020  0.00  0.00    +0.000 OA
ATOM     28  H   UNL     1      12.288   1.225   4.166  0.00  0.00    +0.000 HD
ATOM     29  H   UNL     1      13.803   2.114   4.072  0.00  0.00    +0.000 HD
ENDBRANCH  22  25
ENDBRANCH  17  19
ENDBRANCH  16  17
ENDBRANCH   1  16
TORSDOF 6
