REMARK  Name = 
REMARK  4 active torsions:
REMARK  status: ('A' for Active; 'I' for Inactive)
REMARK    1  A    between atoms: C_1  and  C_2
REMARK    2  A    between atoms: C_2  and  N_3
REMARK    3  A    between atoms: C_2  and  C_13
REMARK    4  A    between atoms: C_7  and  C_8
REMARK                            x       y       z     vdW  Elec       q    Type
REMARK                         _______ _______ _______ _____ _____    ______ ____
ROOT
ATOM      1  N   UNL     1       2.675   1.035   1.044  0.00  0.00    +0.000 N 
ATOM      2  C   UNL     1       2.346   2.351   0.699  0.00  0.00    +0.000 A 
ATOM      3  C   UNL     1       2.140   3.292   1.722  0.00  0.00    +0.000 A 
ATOM      4  N   UNL     1       1.824   4.599   1.518  0.00  0.00    +0.000 NA
ATOM      5  C   UNL     1       1.756   4.954   0.209  0.00  0.00    +0.000 A 
ATOM      6  C   UNL     1       1.995   4.049  -0.816  0.00  0.00    +0.000 A 
ATOM      7  N   UNL     1       2.285   2.736  -0.592  0.00  0.00    +0.000 NA
ATOM      8  H   UNL     1       3.665   1.018   1.284  0.00  0.00    +0.000 HD
ENDROOT
BRANCH   5   9
ATOM      9  C   UNL     1       1.396   6.361  -0.114  0.00  0.00    +0.000 C 
ATOM     10  N   UNL     1       1.086   7.172   0.943  0.00  0.00    +0.000 N 
ATOM     11  O   UNL     1       1.369   6.778  -1.270  0.00  0.00    +0.000 OA
ATOM     12  H   UNL     1       1.087   6.804   1.888  0.00  0.00    +0.000 HD
ATOM     13  H   UNL     1       0.814   8.130   0.772  0.00  0.00    +0.000 HD
ENDBRANCH   5   9
BRANCH   1  15
ATOM     14  C   UNL     1       0.856  -0.163  -0.123  0.00  0.00    +0.000 C 
ATOM     15  C   UNL     1       2.372  -0.023   0.070  0.00  0.00    +0.000 C 
BRANCH  15  16
ATOM     16  C   UNL     1       2.946  -1.331   0.616  0.00  0.00    +0.000 A 
ATOM     17  C   UNL     1       3.891  -2.065  -0.118  0.00  0.00    +0.000 A 
ATOM     18  C   UNL     1       4.442  -3.242   0.401  0.00  0.00    +0.000 A 
ATOM     19  C   UNL     1       4.055  -3.704   1.658  0.00  0.00    +0.000 A 
ATOM     20  C   UNL     1       3.101  -3.001   2.388  0.00  0.00    +0.000 A 
ATOM     21  C   UNL     1       2.550  -1.828   1.871  0.00  0.00    +0.000 A 
ENDBRANCH  15  16
ENDBRANCH   1  15
TORSDOF 3
