REMARK  Name = 
REMARK  6 active torsions:
REMARK  status: ('A' for Active; 'I' for Inactive)
REMARK    1  A    between atoms: C_1  and  C_2
REMARK    2  A    between atoms: N_9  and  C_10
REMARK    3  A    between atoms: C_10  and  C_11
REMARK    4  A    between atoms: C_14  and  C_15
REMARK    5  A    between atoms: C_15  and  N_16
REMARK    6  A    between atoms: C_17  and  C_19
REMARK                            x       y       z     vdW  Elec       q    Type
REMARK                         _______ _______ _______ _____ _____    ______ ____
ROOT
ATOM      1  C   UNL     1      -0.603  -4.089  -0.029  0.00  0.00    +0.000 C 
ATOM      2  C   UNL     1      -1.114  -2.805   0.641  0.00  0.00    +0.000 C 
ATOM      3  C   UNL     1      -2.630  -2.793   0.840  0.00  0.00    +0.000 C 
ATOM      4  C   UNL     1      -3.142  -4.032   1.596  0.00  0.00    +0.000 C 
ATOM      5  C   UNL     1      -2.605  -5.330   0.972  0.00  0.00    +0.000 C 
ATOM      6  C   UNL     1      -1.087  -5.299   0.794  0.00  0.00    +0.000 C 
ENDROOT
BRANCH   1   7
ATOM      7  C   UNL     1      -1.016  -4.209  -1.514  0.00  0.00    +0.000 C 
BRANCH   7  16
ATOM      8  C   UNL     1       3.355  -1.433  -2.686  0.00  0.00    +0.000 C 
ATOM      9  C   UNL     1       2.221  -1.220  -3.620  0.00  0.00    +0.000 A 
ATOM     10  C   UNL     1       2.061  -0.210  -4.552  0.00  0.00    +0.000 A 
ATOM     11  C   UNL     1       0.820  -0.402  -5.190  0.00  0.00    +0.000 A 
ATOM     12  C   UNL     1       0.228  -1.495  -4.599  0.00  0.00    +0.000 A 
ATOM     13  N   UNL     1       1.073  -2.010  -3.622  0.00  0.00    +0.000 N 
ATOM     14  C   UNL     1       0.811  -3.141  -2.809  0.00  0.00    +0.000 C 
ATOM     15  O   UNL     1       1.701  -3.927  -2.528  0.00  0.00    +0.000 OA
ATOM     16  N   UNL     1      -0.497  -3.158  -2.373  0.00  0.00    +0.000 N 
ATOM     17  H   UNL     1      -1.061  -2.326  -2.500  0.00  0.00    +0.000 HD
ENDBRANCH   7  16
ENDBRANCH   1   7
BRANCH   4  18
ATOM     18  C   UNL     1      -4.679  -4.075   1.647  0.00  0.00    +0.000 C 
BRANCH  18  19
ATOM     19  N   UNL     1      -5.244  -2.911   2.288  0.00  0.00    +0.000 N 
ATOM     20  C   UNL     1      -6.601  -2.734   2.388  0.00  0.00    +0.000 C 
ATOM     21  O   UNL     1      -7.403  -3.502   1.869  0.00  0.00    +0.000 OA
ATOM     22  H   UNL     1      -4.630  -2.340   2.863  0.00  0.00    +0.000 HD
BRANCH  20  23
ATOM     23  C   UNL     1      -7.052  -1.561   3.148  0.00  0.00    +0.000 A 
ATOM     24  C   UNL     1      -8.300  -1.007   2.887  0.00  0.00    +0.000 A 
ATOM     25  S   UNL     1      -8.702   0.290   3.920  0.00  0.00    +0.000 S 
ATOM     26  C   UNL     1      -7.249   0.114   4.785  0.00  0.00    +0.000 A 
ATOM     27  N   UNL     1      -7.001   0.862   5.897  0.00  0.00    +0.000 NA
ATOM     28  C   UNL     1      -5.869   0.612   6.466  0.00  0.00    +0.000 A 
ATOM     29  N   UNL     1      -4.939  -0.281   6.000  0.00  0.00    +0.000 N 
ATOM     30  C   UNL     1      -5.116  -1.005   4.843  0.00  0.00    +0.000 A 
ATOM     31  O   UNL     1      -4.215  -1.689   4.375  0.00  0.00    +0.000 OA
ATOM     32  C   UNL     1      -6.421  -0.840   4.229  0.00  0.00    +0.000 A 
ATOM     33  H   UNL     1      -4.043  -0.380   6.456  0.00  0.00    +0.000 HD
ENDBRANCH  20  23
ENDBRANCH  18  19
ENDBRANCH   4  18
TORSDOF 5
