REMARK  Name = 
REMARK  8 active torsions:
REMARK  status: ('A' for Active; 'I' for Inactive)
REMARK    1  A    between atoms: N_1  and  C_2
REMARK    2  A    between atoms: C_2  and  C_3
REMARK    3  A    between atoms: C_3  and  N_4
REMARK    4  A    between atoms: C_3  and  C_17
REMARK    5  A    between atoms: C_5  and  C_7
REMARK    6  A    between atoms: C_20  and  O_21
REMARK    7  A    between atoms: O_21  and  C_22
REMARK    8  A    between atoms: C_22  and  C_23
REMARK                            x       y       z     vdW  Elec       q    Type
REMARK                         _______ _______ _______ _____ _____    ______ ____
ROOT
ATOM      1  C   UNL     1       2.945  -0.421  -1.239  0.00  0.00    +0.000 C 
ENDROOT
BRANCH   1   2
ATOM      2  C   UNL     1       4.468  -0.437  -1.355  0.00  0.00    +0.000 A 
ATOM      3  C   UNL     1       5.161  -1.617  -1.655  0.00  0.00    +0.000 A 
ATOM      4  C   UNL     1       6.557  -1.608  -1.765  0.00  0.00    +0.000 A 
ATOM      5  C   UNL     1       7.272  -0.422  -1.593  0.00  0.00    +0.000 A 
ATOM      6  C   UNL     1       6.591   0.748  -1.259  0.00  0.00    +0.000 A 
ATOM      7  C   UNL     1       5.202   0.745  -1.162  0.00  0.00    +0.000 A 
BRANCH   5   8
ATOM      8  O   UNL     1       8.627  -0.505  -1.780  0.00  0.00    +0.000 OA
BRANCH   8   9
ATOM      9  C   UNL     1       9.261   0.743  -2.091  0.00  0.00    +0.000 C 
BRANCH   9  10
ATOM     10  C   UNL     1      10.594   0.544  -2.771  0.00  0.00    +0.000 A 
ATOM     11  C   UNL     1      11.442  -0.501  -2.416  0.00  0.00    +0.000 A 
ATOM     12  C   UNL     1      12.666  -0.620  -3.067  0.00  0.00    +0.000 A 
ATOM     13  C   UNL     1      13.017   0.308  -4.041  0.00  0.00    +0.000 A 
ATOM     14  C   UNL     1      12.127   1.329  -4.321  0.00  0.00    +0.000 A 
ATOM     15  N   UNL     1      10.934   1.470  -3.707  0.00  0.00    +0.000 NA
ENDBRANCH   9  10
ENDBRANCH   8   9
ENDBRANCH   5   8
ENDBRANCH   1   2
BRANCH   1  16
ATOM     16  N   UNL     1       2.427   0.441  -2.295  0.00  0.00    +0.000 N 
ATOM     17  C   UNL     1       1.092   0.607  -2.553  0.00  0.00    +0.000 C 
ATOM     18  O   UNL     1       0.210   0.144  -1.838  0.00  0.00    +0.000 OA
ATOM     19  H   UNL     1       3.076   0.620  -3.055  0.00  0.00    +0.000 HD
BRANCH  17  20
ATOM     20  C   UNL     1       0.772   1.442  -3.715  0.00  0.00    +0.000 A 
ATOM     21  C   UNL     1      -0.399   2.186  -3.740  0.00  0.00    +0.000 A 
ATOM     22  S   UNL     1      -0.588   3.107  -5.164  0.00  0.00    +0.000 S 
ATOM     23  C   UNL     1       0.864   2.502  -5.815  0.00  0.00    +0.000 A 
ATOM     24  N   UNL     1       1.287   2.869  -7.054  0.00  0.00    +0.000 NA
ATOM     25  C   UNL     1       2.387   2.305  -7.430  0.00  0.00    +0.000 A 
ATOM     26  N   UNL     1       3.111   1.416  -6.677  0.00  0.00    +0.000 N 
ATOM     27  C   UNL     1       2.748   1.052  -5.405  0.00  0.00    +0.000 A 
ATOM     28  O   UNL     1       3.455   0.322  -4.720  0.00  0.00    +0.000 OA
ATOM     29  C   UNL     1       1.500   1.635  -4.945  0.00  0.00    +0.000 A 
ATOM     30  H   UNL     1       3.975   1.028  -7.019  0.00  0.00    +0.000 HD
ENDBRANCH  17  20
ENDBRANCH   1  16
BRANCH   1  31
ATOM     31  C   UNL     1       2.505   0.045   0.184  0.00  0.00    +0.000 C 
BRANCH  31  32
ATOM     32  N   UNL     1       3.047  -0.769   1.283  0.00  0.00    +0.000 NA
ATOM     33  H   UNL     1       2.930  -0.257   2.156  0.00  0.00    +0.000 HD
ATOM     34  H   UNL     1       4.052  -0.887   1.157  0.00  0.00    +0.000 HD
ENDBRANCH  31  32
ENDBRANCH   1  31
TORSDOF 8
