REMARK  Name = 
REMARK  7 active torsions:
REMARK  status: ('A' for Active; 'I' for Inactive)
REMARK    1  A    between atoms: C_1  and  C_2
REMARK    2  A    between atoms: C_5  and  C_6
REMARK    3  A    between atoms: C_9  and  C_10
REMARK    4  A    between atoms: C_11  and  C_12
REMARK    5  A    between atoms: C_12  and  N_13
REMARK    6  A    between atoms: N_13  and  C_14
REMARK    7  A    between atoms: C_17  and  C_18
REMARK                            x       y       z     vdW  Elec       q    Type
REMARK                         _______ _______ _______ _____ _____    ______ ____
ROOT
ATOM      1  C   UNL     1       2.583   0.809   0.015  0.00  0.00    +0.000 C 
ATOM      2  C   UNL     1       1.184   0.260   0.010  0.00  0.00    +0.000 A 
ATOM      3  C   UNL     1       1.016  -1.121  -0.018  0.00  0.00    +0.000 A 
ATOM      4  N   UNL     1      -0.175  -1.742  -0.048  0.00  0.00    +0.000 NA
ATOM      5  C   UNL     1      -1.292  -0.957  -0.090  0.00  0.00    +0.000 A 
ATOM      6  C   UNL     1      -1.250   0.450  -0.100  0.00  0.00    +0.000 A 
ATOM      7  C   UNL     1      -2.493   1.296  -0.187  0.00  0.00    +0.000 C 
ATOM      8  C   UNL     1       0.026   1.072   0.016  0.00  0.00    +0.000 A 
ENDROOT
BRANCH   5   9
ATOM      9  C   UNL     1      -2.569  -1.776  -0.084  0.00  0.00    +0.000 C 
ATOM     10  N   UNL     1      -2.386  -3.131  -0.199  0.00  0.00    +0.000 N 
ATOM     11  O   UNL     1      -3.699  -1.321   0.038  0.00  0.00    +0.000 OA
ATOM     12  H   UNL     1      -1.442  -3.500  -0.187  0.00  0.00    +0.000 HD
ATOM     13  H   UNL     1      -3.182  -3.747  -0.137  0.00  0.00    +0.000 HD
ENDBRANCH   5   9
BRANCH   8  14
ATOM     14  C   UNL     1       0.156   2.583   0.194  0.00  0.00    +0.000 C 
BRANCH  14  15
ATOM     15  N   UNL     1       0.231   3.259  -1.097  0.00  0.00    +0.000 N 
ATOM     16  H   UNL     1      -0.658   3.214  -1.592  0.00  0.00    +0.000 HD
BRANCH  15  17
ATOM     17  C   UNL     1       0.810   4.530  -1.197  0.00  0.00    +0.000 A 
ATOM     18  C   UNL     1       1.884   4.954  -0.415  0.00  0.00    +0.000 A 
ATOM     19  C   UNL     1       2.525   6.171  -0.669  0.00  0.00    +0.000 A 
ATOM     20  C   UNL     1       2.100   6.968  -1.730  0.00  0.00    +0.000 A 
ATOM     21  N   UNL     1       1.051   6.590  -2.512  0.00  0.00    +0.000 NA
ATOM     22  C   UNL     1       0.460   5.396  -2.238  0.00  0.00    +0.000 A 
BRANCH  20  23
ATOM     23  C   UNL     1       2.846   8.259  -2.051  0.00  0.00    +0.000 C 
ATOM     24  F   UNL     1       3.907   8.486  -1.215  0.00  0.00    +0.000 F 
ATOM     25  F   UNL     1       3.375   8.275  -3.308  0.00  0.00    +0.000 F 
ATOM     26  F   UNL     1       2.067   9.373  -1.952  0.00  0.00    +0.000 F 
ENDBRANCH  20  23
ENDBRANCH  15  17
ENDBRANCH  14  15
ENDBRANCH   8  14
TORSDOF 5
