REMARK  Name = 
REMARK  9 active torsions:
REMARK  status: ('A' for Active; 'I' for Inactive)
REMARK    1  A    between atoms: C_2  and  C_22
REMARK    2  A    between atoms: N_3  and  CA_4
REMARK    3  A    between atoms: CA_4  and  C_5
REMARK    4  A    between atoms: CA_4  and  C_7
REMARK    5  A    between atoms: C_5  and  O_6
REMARK    6  A    between atoms: C_10  and  C_11
REMARK    7  A    between atoms: C_11  and  N_12
REMARK    8  A    between atoms: N_12  and  C_13
REMARK    9  A    between atoms: C_13  and  C_14
REMARK                            x       y       z     vdW  Elec       q    Type
REMARK                         _______ _______ _______ _____ _____    ______ ____
ROOT
ATOM      1  CA  UNL     1       2.187   1.626  -2.178  0.00  0.00    +0.000 C 
ENDROOT
BRANCH   1   2
ATOM      2  C   UNL     1       3.164   2.469  -2.956  0.00  0.00    +0.000 A 
ATOM      3  C   UNL     1       3.088   3.867  -2.990  0.00  0.00    +0.000 A 
ATOM      4  C   UNL     1       4.007   4.598  -3.735  0.00  0.00    +0.000 A 
ATOM      5  C   UNL     1       5.001   3.918  -4.429  0.00  0.00    +0.000 A 
ATOM      6  N   UNL     1       5.103   2.564  -4.411  0.00  0.00    +0.000 NA
ATOM      7  C   UNL     1       4.202   1.879  -3.670  0.00  0.00    +0.000 A 
BRANCH   5   8
ATOM      8  C   UNL     1       5.981   4.691  -5.294  0.00  0.00    +0.000 C 
BRANCH   8   9
ATOM      9  N   UNL     1       5.987   4.286  -6.708  0.00  0.00    +0.000 NA
ATOM     10  H   UNL     1       6.214   3.289  -6.721  0.00  0.00    +0.000 HD
BRANCH   9  11
ATOM     11  C   UNL     1       4.683   4.470  -7.348  0.00  0.00    +0.000 C 
BRANCH  11  12
ATOM     12  C   UNL     1       4.716   4.025  -8.776  0.00  0.00    +0.000 A 
ATOM     13  C   UNL     1       3.908   3.010  -9.250  0.00  0.00    +0.000 A 
ATOM     14  N   UNL     1       3.922   2.567 -10.523  0.00  0.00    +0.000 NA
ATOM     15  C   UNL     1       4.789   3.184 -11.340  0.00  0.00    +0.000 A 
ATOM     16  N   UNL     1       5.606   4.194 -11.008  0.00  0.00    +0.000 NA
ATOM     17  C   UNL     1       5.548   4.592  -9.720  0.00  0.00    +0.000 A 
ENDBRANCH  11  12
ENDBRANCH   9  11
ENDBRANCH   8   9
ENDBRANCH   5   8
ENDBRANCH   1   2
BRANCH   1  20
ATOM     18  O   UNL     1       4.069   0.705  -0.171  0.00  0.00    +0.000 OA
ATOM     19  C   UNL     1       3.178   1.490   0.107  0.00  0.00    +0.000 C 
ATOM     20  N   UNL     1       2.243   1.972  -0.781  0.00  0.00    +0.000 N 
ATOM     21  H   UNL     1       1.359   2.252  -0.382  0.00  0.00    +0.000 HD
BRANCH  19  22
ATOM     22  C   UNL     1       2.743   1.813   1.461  0.00  0.00    +0.000 A 
ATOM     23  C   UNL     1       2.815   0.883   2.481  0.00  0.00    +0.000 A 
ATOM     24  S   UNL     1       1.391   0.992   3.441  0.00  0.00    +0.000 S 
ATOM     25  C   UNL     1       0.957   2.483   2.729  0.00  0.00    +0.000 A 
ATOM     26  N   UNL     1      -0.220   3.098   3.009  0.00  0.00    +0.000 NA
ATOM     27  C   UNL     1      -0.336   4.273   2.482  0.00  0.00    +0.000 A 
ATOM     28  N   UNL     1       0.611   4.890   1.702  0.00  0.00    +0.000 N 
ATOM     29  C   UNL     1       1.785   4.271   1.322  0.00  0.00    +0.000 A 
ATOM     30  O   UNL     1       2.598   4.824   0.598  0.00  0.00    +0.000 OA
ATOM     31  C   UNL     1       1.929   2.925   1.867  0.00  0.00    +0.000 A 
ATOM     32  H   UNL     1       0.470   5.835   1.375  0.00  0.00    +0.000 HD
ENDBRANCH  19  22
ENDBRANCH   1  20
BRANCH   1  33
ATOM     33  C   UNL     1       0.739   1.823  -2.707  0.00  0.00    +0.000 C 
BRANCH  33  34
ATOM     34  O   UNL     1      -0.248   1.127  -1.936  0.00  0.00    +0.000 OA
ATOM     35  H   UNL     1       0.113   0.276  -1.633  0.00  0.00    +0.000 HD
ENDBRANCH  33  34
ENDBRANCH   1  33
TORSDOF 9
