REMARK  Name = 
REMARK  8 active torsions:
REMARK  status: ('A' for Active; 'I' for Inactive)
REMARK    1  A    between atoms: C_1  and  N_2
REMARK    2  A    between atoms: N_2  and  C_3
REMARK    3  A    between atoms: C_3  and  C_4
REMARK    4  A    between atoms: C_7  and  C_8
REMARK    5  A    between atoms: C_8  and  O_9
REMARK    6  A    between atoms: O_9  and  C_10
REMARK    7  A    between atoms: C_10  and  C_11
REMARK    8  A    between atoms: C_18  and  C_20
REMARK                            x       y       z     vdW  Elec       q    Type
REMARK                         _______ _______ _______ _____ _____    ______ ____
ROOT
ATOM      1  C   UNL     1       3.103   0.167  -1.381  0.00  0.00    +0.000 C 
ENDROOT
BRANCH   1   2
ATOM      2  C   UNL     1       2.146   0.580  -2.462  0.00  0.00    +0.000 A 
ATOM      3  C   UNL     1       1.380  -0.386  -3.134  0.00  0.00    +0.000 A 
ATOM      4  C   UNL     1       0.454   0.001  -4.099  0.00  0.00    +0.000 A 
ATOM      5  C   UNL     1       0.278   1.355  -4.407  0.00  0.00    +0.000 A 
ATOM      6  C   UNL     1       1.056   2.315  -3.745  0.00  0.00    +0.000 A 
ATOM      7  C   UNL     1       1.986   1.931  -2.783  0.00  0.00    +0.000 A 
BRANCH   5   8
ATOM      8  C   UNL     1      -0.732   1.770  -5.440  0.00  0.00    +0.000 C 
BRANCH   8   9
ATOM      9  O   UNL     1      -2.018   1.337  -5.004  0.00  0.00    +0.000 OA
BRANCH   9  10
ATOM     10  C   UNL     1      -3.028   1.714  -5.941  0.00  0.00    +0.000 C 
BRANCH  10  11
ATOM     11  C   UNL     1      -4.333   1.229  -5.418  0.00  0.00    +0.000 A 
ATOM     12  N   UNL     1      -5.518   1.370  -5.980  0.00  0.00    +0.000 NA
ATOM     13  C   UNL     1      -6.406   0.759  -5.132  0.00  0.00    +0.000 A 
ATOM     14  C   UNL     1      -5.757   0.237  -4.039  0.00  0.00    +0.000 A 
ATOM     15  N   UNL     1      -4.441   0.545  -4.231  0.00  0.00    +0.000 N 
ATOM     16  H   UNL     1      -3.656   0.328  -3.630  0.00  0.00    +0.000 HD
ENDBRANCH  10  11
ENDBRANCH   9  10
ENDBRANCH   8   9
ENDBRANCH   5   8
ENDBRANCH   1   2
BRANCH   1  18
ATOM     17  C   UNL     1       4.862  -0.153  -3.172  0.00  0.00    +0.000 C 
ATOM     18  N   UNL     1       4.474  -0.167  -1.767  0.00  0.00    +0.000 N 
ATOM     19  C   UNL     1       5.535  -0.180  -0.840  0.00  0.00    +0.000 C 
ATOM     20  O   UNL     1       6.705  -0.210  -1.219  0.00  0.00    +0.000 OA
BRANCH  19  21
ATOM     21  C   UNL     1       5.235  -0.197   0.599  0.00  0.00    +0.000 A 
ATOM     22  C   UNL     1       4.228  -0.947   1.184  0.00  0.00    +0.000 A 
ATOM     23  S   UNL     1       4.157  -0.808   2.882  0.00  0.00    +0.000 S 
ATOM     24  C   UNL     1       5.564   0.146   2.906  0.00  0.00    +0.000 A 
ATOM     25  N   UNL     1       6.124   0.524   4.085  0.00  0.00    +0.000 NA
ATOM     26  C   UNL     1       7.223   1.191   3.953  0.00  0.00    +0.000 A 
ATOM     27  N   UNL     1       7.788   1.545   2.759  0.00  0.00    +0.000 N 
ATOM     28  C   UNL     1       7.181   1.306   1.539  0.00  0.00    +0.000 A 
ATOM     29  O   UNL     1       7.577   1.851   0.519  0.00  0.00    +0.000 OA
ATOM     30  C   UNL     1       6.014   0.441   1.632  0.00  0.00    +0.000 A 
ATOM     31  H   UNL     1       8.604   2.135   2.728  0.00  0.00    +0.000 HD
ENDBRANCH  19  21
ENDBRANCH   1  18
TORSDOF 7
