REMARK  Name = 
REMARK  8 active torsions:
REMARK  status: ('A' for Active; 'I' for Inactive)
REMARK    1  A    between atoms: C_1  and  O_2
REMARK    2  A    between atoms: O_2  and  C_3
REMARK    3  A    between atoms: C_10  and  C_11
REMARK    4  A    between atoms: N_13  and  C_14
REMARK    5  A    between atoms: C_14  and  C_15
REMARK    6  A    between atoms: C_18  and  N_19
REMARK    7  A    between atoms: N_19  and  C_20
REMARK    8  A    between atoms: C_20  and  C_21
REMARK                            x       y       z     vdW  Elec       q    Type
REMARK                         _______ _______ _______ _____ _____    ______ ____
ROOT
ATOM      1  C   UNL     1       2.979  -1.265   3.003  0.00  0.00    +0.000 C 
ENDROOT
BRANCH   1   2
ATOM      2  C   UNL     1       1.835  -0.303   3.228  0.00  0.00    +0.000 A 
ATOM      3  C   UNL     1       0.573  -0.781   3.592  0.00  0.00    +0.000 A 
ATOM      4  C   UNL     1      -0.471   0.103   3.892  0.00  0.00    +0.000 A 
ATOM      5  C   UNL     1      -0.315   1.492   3.809  0.00  0.00    +0.000 A 
ATOM      6  C   UNL     1       0.949   1.964   3.435  0.00  0.00    +0.000 A 
ATOM      7  C   UNL     1       1.998   1.084   3.109  0.00  0.00    +0.000 A 
BRANCH   5   8
ATOM      8  N   UNL     1      -1.299   2.397   4.212  0.00  0.00    +0.000 N 
ATOM      9  H   UNL     1      -1.306   3.287   3.715  0.00  0.00    +0.000 HD
BRANCH   8  10
ATOM     10  C   UNL     1      -2.622   1.913   4.611  0.00  0.00    +0.000 C 
BRANCH  10  11
ATOM     11  C   UNL     1      -3.588   3.065   4.935  0.00  0.00    +0.000 C 
ATOM     12  C   UNL     1      -4.933   2.479   5.396  0.00  0.00    +0.000 C 
ATOM     13  O   UNL     1      -5.865   3.523   5.710  0.00  0.00    +0.000 OA
ATOM     14  C   UNL     1      -6.061   4.366   4.566  0.00  0.00    +0.000 C 
ATOM     15  C   UNL     1      -4.727   4.954   4.104  0.00  0.00    +0.000 C 
ATOM     16  O   UNL     1      -3.798   3.904   3.777  0.00  0.00    +0.000 OA
ENDBRANCH  10  11
ENDBRANCH   8  10
ENDBRANCH   5   8
ENDBRANCH   1   2
BRANCH   1  19
ATOM     17  C   UNL     1       3.960  -2.626   1.179  0.00  0.00    +0.000 C 
ATOM     18  O   UNL     1       4.826  -3.110   1.915  0.00  0.00    +0.000 OA
ATOM     19  N   UNL     1       3.047  -1.721   1.645  0.00  0.00    +0.000 N 
ATOM     20  H   UNL     1       2.384  -1.307   1.003  0.00  0.00    +0.000 HD
BRANCH  17  28
ATOM     21  C   UNL     1       1.816  -1.695  -1.314  0.00  0.00    +0.000 A 
ATOM     22  N   UNL     1       1.119  -1.499  -2.449  0.00  0.00    +0.000 NA
ATOM     23  C   UNL     1       1.522  -2.132  -3.543  0.00  0.00    +0.000 A 
ATOM     24  N   UNL     1       2.550  -2.969  -3.662  0.00  0.00    +0.000 NA
ATOM     25  C   UNL     1       3.208  -3.155  -2.504  0.00  0.00    +0.000 A 
ATOM     26  S   UNL     1       4.555  -4.189  -2.451  0.00  0.00    +0.000 S 
ATOM     27  C   UNL     1       4.783  -3.888  -0.789  0.00  0.00    +0.000 A 
ATOM     28  C   UNL     1       3.869  -2.995  -0.247  0.00  0.00    +0.000 A 
ATOM     29  C   UNL     1       2.922  -2.565  -1.276  0.00  0.00    +0.000 A 
BRANCH  21  31
ATOM     30  C   UNL     1       0.427  -0.019  -0.430  0.00  0.00    +0.000 C 
ATOM     31  O   UNL     1       1.438  -0.994  -0.198  0.00  0.00    +0.000 OA
ENDBRANCH  21  31
ENDBRANCH  17  28
ENDBRANCH   1  19
TORSDOF 7
