REMARK  Name = 
REMARK  5 active torsions:
REMARK  status: ('A' for Active; 'I' for Inactive)
REMARK    1  A    between atoms: N_1  and  C_2
REMARK    2  A    between atoms: C_2  and  C_3
REMARK    3  A    between atoms: C_6  and  O_7
REMARK    4  A    between atoms: O_7  and  C_8
REMARK    5  A    between atoms: C_8  and  C_9
REMARK                            x       y       z     vdW  Elec       q    Type
REMARK                         _______ _______ _______ _____ _____    ______ ____
ROOT
ATOM      1  C   UNL     1       2.898   1.184   0.985  0.00  0.00    +0.000 A 
ATOM      2  C   UNL     1       3.607   0.887   2.161  0.00  0.00    +0.000 A 
ATOM      3  C   UNL     1       3.961   1.898   3.058  0.00  0.00    +0.000 A 
ATOM      4  C   UNL     1       3.595   3.220   2.813  0.00  0.00    +0.000 A 
ATOM      5  C   UNL     1       2.922   3.537   1.634  0.00  0.00    +0.000 A 
ATOM      6  C   UNL     1       2.566   2.525   0.734  0.00  0.00    +0.000 A 
ATOM      7 CL   UNL     1       1.681   2.994  -0.677  0.00  0.00    +0.000 Cl
ENDROOT
BRANCH   1   8
ATOM      8  C   UNL     1       2.483   0.053   0.079  0.00  0.00    +0.000 C 
BRANCH   8   9
ATOM      9  N   UNL     1       1.172  -0.466   0.452  0.00  0.00    +0.000 NA
ATOM     10  H   UNL     1       0.881  -1.159  -0.235  0.00  0.00    +0.000 HD
ATOM     11  H   UNL     1       0.491   0.291   0.391  0.00  0.00    +0.000 HD
ENDBRANCH   8   9
ENDBRANCH   1   8
BRANCH   4  12
ATOM     12  O   UNL     1       3.949   4.114   3.787  0.00  0.00    +0.000 OA
BRANCH  12  13
ATOM     13  C   UNL     1       3.135   5.290   3.875  0.00  0.00    +0.000 C 
BRANCH  13  14
ATOM     14  C   UNL     1       3.185   5.861   5.276  0.00  0.00    +0.000 A 
ATOM     15  N   UNL     1       4.123   6.791   5.553  0.00  0.00    +0.000 NA
ATOM     16  C   UNL     1       4.116   7.295   6.803  0.00  0.00    +0.000 A 
ATOM     17  C   UNL     1       3.216   6.917   7.773  0.00  0.00    +0.000 A 
ATOM     18  C   UNL     1       2.301   5.967   7.391  0.00  0.00    +0.000 A 
ATOM     19  N   UNL     1       2.259   5.425   6.160  0.00  0.00    +0.000 NA
ENDBRANCH  13  14
ENDBRANCH  12  13
ENDBRANCH   4  12
TORSDOF 5
