REMARK  Name = 
REMARK  5 active torsions:
REMARK  status: ('A' for Active; 'I' for Inactive)
REMARK    1  A    between atoms: C_2  and  C_4
REMARK    2  A    between atoms: N_8  and  C_9
REMARK    3  A    between atoms: C_9  and  C_10
REMARK    4  A    between atoms: C_10  and  C_11
REMARK    5  A    between atoms: C_15  and  N_16
REMARK                            x       y       z     vdW  Elec       q    Type
REMARK                         _______ _______ _______ _____ _____    ______ ____
ROOT
ATOM      1  C   UNL     1       4.805   3.990   4.860  0.00  0.00    +0.000 C 
ENDROOT
BRANCH   1   6
ATOM      2  C   UNL     1       2.297   3.671   0.476  0.00  0.00    +0.000 A 
ATOM      3  C   UNL     1       1.981   4.386   1.626  0.00  0.00    +0.000 A 
ATOM      4  C   UNL     1       2.930   4.493   2.642  0.00  0.00    +0.000 A 
ATOM      5  C   UNL     1       4.166   3.865   2.508  0.00  0.00    +0.000 A 
ATOM      6  N   UNL     1       5.178   3.979   3.452  0.00  0.00    +0.000 N 
ATOM      7  N   UNL     1       4.475   3.149   1.408  0.00  0.00    +0.000 NA
ATOM      8  C   UNL     1       3.540   3.061   0.421  0.00  0.00    +0.000 A 
ATOM      9  H   UNL     1       5.897   3.310   3.185  0.00  0.00    +0.000 HD
BRANCH   2  11
ATOM     10  N   UNL     1       0.433   4.524  -0.827  0.00  0.00    +0.000 N 
ATOM     11  C   UNL     1       1.365   3.536  -0.662  0.00  0.00    +0.000 C 
ATOM     12  O   UNL     1       1.441   2.599  -1.445  0.00  0.00    +0.000 OA
ATOM     13  H   UNL     1      -0.136   4.476  -1.663  0.00  0.00    +0.000 HD
ATOM     14  H   UNL     1       0.498   5.419  -0.362  0.00  0.00    +0.000 HD
ENDBRANCH   2  11
ENDBRANCH   1   6
BRANCH   1  15
ATOM     15  C   UNL     1       6.048   4.028   5.758  0.00  0.00    +0.000 C 
BRANCH  15  16
ATOM     16  C   UNL     1       5.657   4.180   7.205  0.00  0.00    +0.000 A 
ATOM     17  C   UNL     1       5.479   5.439   7.765  0.00  0.00    +0.000 A 
ATOM     18  N   UNL     1       5.052   5.642   9.025  0.00  0.00    +0.000 NA
ATOM     19  C   UNL     1       4.792   4.532   9.762  0.00  0.00    +0.000 A 
ATOM     20  C   UNL     1       4.933   3.209   9.332  0.00  0.00    +0.000 A 
ATOM     21  C   UNL     1       5.381   3.067   8.013  0.00  0.00    +0.000 A 
BRANCH  20  22
ATOM     22  N   UNL     1       4.651   2.121  10.131  0.00  0.00    +0.000 N 
ATOM     23  C   UNL     1       3.619   2.137  11.178  0.00  0.00    +0.000 C 
ATOM     24  C   UNL     1       4.229   1.709  12.522  0.00  0.00    +0.000 C 
ATOM     25  O   UNL     1       4.880   0.432  12.418  0.00  0.00    +0.000 OA
ATOM     26  C   UNL     1       5.933   0.486  11.440  0.00  0.00    +0.000 C 
ATOM     27  C   UNL     1       5.400   0.859  10.044  0.00  0.00    +0.000 C 
ENDBRANCH  20  22
ENDBRANCH  15  16
ENDBRANCH   1  15
TORSDOF 5
