REMARK  Name = 
REMARK  5 active torsions:
REMARK  status: ('A' for Active; 'I' for Inactive)
REMARK    1  A    between atoms: C_1  and  C_2
REMARK    2  A    between atoms: C_7  and  C_8
REMARK    3  A    between atoms: C_8  and  N_9
REMARK    4  A    between atoms: N_9  and  C_10
REMARK    5  A    between atoms: C_13  and  C_14
REMARK                            x       y       z     vdW  Elec       q    Type
REMARK                         _______ _______ _______ _____ _____    ______ ____
ROOT
ATOM      1  C   UNL     1       0.293  -3.577   0.132  0.00  0.00    +0.000 A 
ATOM      2  C   UNL     1      -1.041  -3.585   0.553  0.00  0.00    +0.000 A 
ATOM      3  C   UNL     1      -1.784  -4.765   0.544  0.00  0.00    +0.000 A 
ATOM      4  C   UNL     1      -1.172  -5.916   0.075  0.00  0.00    +0.000 A 
ATOM      5  N   UNL     1       0.098  -5.953  -0.413  0.00  0.00    +0.000 NA
ATOM      6  C   UNL     1       0.778  -4.780  -0.388  0.00  0.00    +0.000 A 
ENDROOT
BRANCH   4   7
ATOM      7  C   UNL     1      -1.910  -7.221   0.106  0.00  0.00    +0.000 C 
ATOM      8  N   UNL     1      -1.209  -8.294  -0.373  0.00  0.00    +0.000 N 
ATOM      9  O   UNL     1      -3.047  -7.333   0.543  0.00  0.00    +0.000 OA
ATOM     10  H   UNL     1      -0.255  -8.161  -0.691  0.00  0.00    +0.000 HD
ATOM     11  H   UNL     1      -1.615  -9.217  -0.335  0.00  0.00    +0.000 HD
ENDBRANCH   4   7
BRANCH   1  12
ATOM     12  N   UNL     1       1.002  -2.368   0.138  0.00  0.00    +0.000 N 
ATOM     13  H   UNL     1       0.620  -1.727   0.839  0.00  0.00    +0.000 HD
BRANCH  12  14
ATOM     14  C   UNL     1       2.466  -2.429   0.266  0.00  0.00    +0.000 C 
BRANCH  14  21
ATOM     15  C   UNL     1       4.563  -0.652  -1.098  0.00  0.00    +0.000 C 
ATOM     16  C   UNL     1       3.960  -0.333   0.237  0.00  0.00    +0.000 A 
ATOM     17  C   UNL     1       4.354   0.829   0.908  0.00  0.00    +0.000 A 
ATOM     18  C   UNL     1       3.786   1.120   2.132  0.00  0.00    +0.000 A 
ATOM     19  N   UNL     1       2.863   0.331   2.704  0.00  0.00    +0.000 NA
ATOM     20  N   UNL     1       2.467  -0.801   2.059  0.00  0.00    +0.000 NA
ATOM     21  C   UNL     1       2.994  -1.134   0.850  0.00  0.00    +0.000 A 
ENDBRANCH  14  21
ENDBRANCH  12  14
ENDBRANCH   1  12
TORSDOF 4
