REMARK  Name = 
REMARK  9 active torsions:
REMARK  status: ('A' for Active; 'I' for Inactive)
REMARK    1  A    between atoms: C_1  and  O_2
REMARK    2  A    between atoms: O_2  and  C_3
REMARK    3  A    between atoms: C_10  and  C_11
REMARK    4  A    between atoms: N_13  and  C_14
REMARK    5  A    between atoms: C_14  and  C_15
REMARK    6  A    between atoms: C_18  and  C_19
REMARK    7  A    between atoms: C_19  and  N_20
REMARK    8  A    between atoms: N_20  and  C_21
REMARK    9  A    between atoms: C_21  and  C_22
REMARK                            x       y       z     vdW  Elec       q    Type
REMARK                         _______ _______ _______ _____ _____    ______ ____
ROOT
ATOM      1  C   UNL     1       2.881  -0.415   3.257  0.00  0.00    +0.000 C 
ENDROOT
BRANCH   1   2
ATOM      2  C   UNL     1       1.805   0.625   3.199  0.00  0.00    +0.000 A 
ATOM      3  C   UNL     1       0.455   0.269   3.188  0.00  0.00    +0.000 A 
ATOM      4  C   UNL     1      -0.522   1.258   3.143  0.00  0.00    +0.000 A 
ATOM      5  C   UNL     1      -0.127   2.593   3.118  0.00  0.00    +0.000 A 
ATOM      6  N   UNL     1       1.181   2.964   3.190  0.00  0.00    +0.000 NA
ATOM      7  C   UNL     1       2.108   1.981   3.213  0.00  0.00    +0.000 A 
BRANCH   5   8
ATOM      8  C   UNL     1      -1.177   3.688   3.009  0.00  0.00    +0.000 C 
BRANCH   8   9
ATOM      9  N   UNL     1      -0.693   4.936   2.387  0.00  0.00    +0.000 NA
ATOM     10  H   UNL     1       0.170   5.164   2.889  0.00  0.00    +0.000 HD
BRANCH   9  11
ATOM     11  C   UNL     1      -0.345   4.743   0.974  0.00  0.00    +0.000 C 
BRANCH  11  12
ATOM     12  C   UNL     1       0.149   6.050   0.314  0.00  0.00    +0.000 C 
ATOM     13  C   UNL     1       0.544   5.763  -1.147  0.00  0.00    +0.000 C 
ATOM     14  C   UNL     1       1.093   6.999  -1.853  0.00  0.00    +0.000 C 
ATOM     15  C   UNL     1       2.258   7.613  -1.085  0.00  0.00    +0.000 C 
ATOM     16  C   UNL     1       1.863   7.927   0.352  0.00  0.00    +0.000 C 
ATOM     17  C   UNL     1       1.327   6.691   1.070  0.00  0.00    +0.000 C 
ENDBRANCH  11  12
ENDBRANCH   9  11
ENDBRANCH   8   9
ENDBRANCH   5   8
ENDBRANCH   1   2
BRANCH   1  20
ATOM     18  C   UNL     1       3.716  -1.992   4.948  0.00  0.00    +0.000 C 
ATOM     19  O   UNL     1       3.961  -2.837   4.090  0.00  0.00    +0.000 OA
ATOM     20  N   UNL     1       3.142  -0.796   4.621  0.00  0.00    +0.000 N 
ATOM     21  H   UNL     1       3.012  -0.092   5.336  0.00  0.00    +0.000 HD
BRANCH  18  29
ATOM     22  C   UNL     1       3.592  -0.017   7.769  0.00  0.00    +0.000 A 
ATOM     23  N   UNL     1       3.625   0.509   9.009  0.00  0.00    +0.000 NA
ATOM     24  C   UNL     1       4.015  -0.278  10.016  0.00  0.00    +0.000 A 
ATOM     25  N   UNL     1       4.387  -1.553   9.938  0.00  0.00    +0.000 NA
ATOM     26  C   UNL     1       4.330  -2.040   8.687  0.00  0.00    +0.000 A 
ATOM     27  S   UNL     1       4.781  -3.653   8.400  0.00  0.00    +0.000 S 
ATOM     28  C   UNL     1       4.468  -3.493   6.739  0.00  0.00    +0.000 A 
ATOM     29  C   UNL     1       4.015  -2.233   6.368  0.00  0.00    +0.000 A 
ATOM     30  C   UNL     1       3.940  -1.361   7.538  0.00  0.00    +0.000 A 
BRANCH  22  32
ATOM     31  C   UNL     1       3.332   2.182   7.006  0.00  0.00    +0.000 C 
ATOM     32  O   UNL     1       3.174   0.791   6.730  0.00  0.00    +0.000 OA
ENDBRANCH  22  32
ENDBRANCH  18  29
ENDBRANCH   1  20
TORSDOF 8
