REMARK  Name = 
REMARK  4 active torsions:
REMARK  status: ('A' for Active; 'I' for Inactive)
REMARK    1  A    between atoms: C_2  and  C_4
REMARK    2  A    between atoms: C_7  and  C_8
REMARK    3  A    between atoms: C_8  and  N_9
REMARK    4  A    between atoms: C_14  and  C_15
REMARK                            x       y       z     vdW  Elec       q    Type
REMARK                         _______ _______ _______ _____ _____    ______ ____
ROOT
ATOM      1  N   UNL     1       4.911   0.966   6.022  0.00  0.00    +0.000 N 
ATOM      2  C   UNL     1       5.545   1.254   7.224  0.00  0.00    +0.000 A 
ATOM      3  C   UNL     1       6.382   2.355   7.418  0.00  0.00    +0.000 A 
ATOM      4  N   UNL     1       6.975   2.659   8.594  0.00  0.00    +0.000 NA
ATOM      5  C   UNL     1       6.665   1.822   9.608  0.00  0.00    +0.000 A 
ATOM      6  C   UNL     1       5.820   0.725   9.469  0.00  0.00    +0.000 A 
ATOM      7  N   UNL     1       5.254   0.433   8.262  0.00  0.00    +0.000 NA
ATOM      8  H   UNL     1       4.546   0.018   6.068  0.00  0.00    +0.000 HD
ENDROOT
BRANCH   6   9
ATOM      9  C   UNL     1       5.460  -0.128  10.612  0.00  0.00    +0.000 A 
ATOM     10  C   UNL     1       6.341  -0.375  11.678  0.00  0.00    +0.000 A 
ATOM     11  C   UNL     1       5.930  -1.108  12.791  0.00  0.00    +0.000 A 
ATOM     12  C   UNL     1       4.638  -1.596  12.810  0.00  0.00    +0.000 A 
ATOM     13  N   UNL     1       3.760  -1.417  11.802  0.00  0.00    +0.000 NA
ATOM     14  C   UNL     1       4.192  -0.697  10.733  0.00  0.00    +0.000 A 
ENDBRANCH   6   9
BRANCH   1  15
ATOM     15  C   UNL     1       5.564   1.336   4.778  0.00  0.00    +0.000 C 
BRANCH  15  19
ATOM     16  C   UNL     1       3.292   0.339   1.228  0.00  0.00    +0.000 A 
ATOM     17  C   UNL     1       2.619   0.641   2.417  0.00  0.00    +0.000 A 
ATOM     18  C   UNL     1       3.344   0.955   3.572  0.00  0.00    +0.000 A 
ATOM     19  C   UNL     1       4.747   0.948   3.564  0.00  0.00    +0.000 A 
ATOM     20  C   UNL     1       5.410   0.659   2.360  0.00  0.00    +0.000 A 
ATOM     21  C   UNL     1       4.690   0.347   1.204  0.00  0.00    +0.000 A 
BRANCH  16  23
ATOM     22  N   UNL     1       1.310   0.498  -0.179  0.00  0.00    +0.000 N 
ATOM     23  C   UNL     1       2.568  -0.010  -0.021  0.00  0.00    +0.000 C 
ATOM     24  O   UNL     1       3.087  -0.692  -0.896  0.00  0.00    +0.000 OA
ATOM     25  H   UNL     1       0.873   0.340  -1.079  0.00  0.00    +0.000 HD
ATOM     26  H   UNL     1       0.957   1.257   0.386  0.00  0.00    +0.000 HD
ENDBRANCH  16  23
ENDBRANCH  15  19
ENDBRANCH   1  15
TORSDOF 4
