REMARK  Name = 
REMARK  8 active torsions:
REMARK  status: ('A' for Active; 'I' for Inactive)
REMARK    1  A    between atoms: N_1  and  C_2
REMARK    2  A    between atoms: C_2  and  C_3
REMARK    3  A    between atoms: C_3  and  C_4
REMARK    4  A    between atoms: C_7  and  C_8
REMARK    5  A    between atoms: C_8  and  N_9
REMARK    6  A    between atoms: C_14  and  C_15
REMARK    7  A    between atoms: C_15  and  O_17
REMARK    8  A    between atoms: C_19  and  C_20
REMARK                            x       y       z     vdW  Elec       q    Type
REMARK                         _______ _______ _______ _____ _____    ______ ____
ROOT
ATOM      1  N   UNL     1       9.390  -0.503  -1.408  0.00  0.00    +0.000 N 
ATOM      2  C   UNL     1       8.704  -1.529  -2.009  0.00  0.00    +0.000 A 
ATOM      3  N   UNL     1       9.472  -2.553  -2.279  0.00  0.00    +0.000 NA
ATOM      4  C   UNL     1      10.710  -2.191  -1.837  0.00  0.00    +0.000 A 
ATOM      5  C   UNL     1      11.882  -2.947  -1.924  0.00  0.00    +0.000 A 
ATOM      6  C   UNL     1      13.071  -2.391  -1.458  0.00  0.00    +0.000 A 
ATOM      7  C   UNL     1      13.062  -1.133  -0.840  0.00  0.00    +0.000 A 
ATOM      8  C   UNL     1      11.886  -0.350  -0.707  0.00  0.00    +0.000 A 
ATOM      9  C   UNL     1      10.709  -0.915  -1.260  0.00  0.00    +0.000 A 
ENDROOT
BRANCH   8  10
ATOM     10  C   UNL     1      11.967   0.976   0.011  0.00  0.00    +0.000 C 
ATOM     11  F   UNL     1      13.229   1.333   0.374  0.00  0.00    +0.000 F 
ATOM     12  F   UNL     1      11.497   2.004  -0.751  0.00  0.00    +0.000 F 
ATOM     13  F   UNL     1      11.232   0.992   1.155  0.00  0.00    +0.000 F 
ENDBRANCH   8  10
BRANCH   6  14
ATOM     14  C   UNL     1      14.355  -3.122  -1.563  0.00  0.00    +0.000 C 
ATOM     15  O   UNL     1      15.262  -2.972  -0.760  0.00  0.00    +0.000 OA
BRANCH  14  16
ATOM     16  O   UNL     1      14.457  -3.917  -2.648  0.00  0.00    +0.000 OA
ATOM     17  H   UNL     1      13.735  -3.845  -3.300  0.00  0.00    +0.000 HD
ENDBRANCH  14  16
ENDBRANCH   6  14
BRANCH   1  18
ATOM     18  C   UNL     1       8.829   0.819  -1.116  0.00  0.00    +0.000 C 
BRANCH  18  22
ATOM     19  C   UNL     1       4.529   0.523  -0.795  0.00  0.00    +0.000 A 
ATOM     20  C   UNL     1       5.121   0.863  -2.020  0.00  0.00    +0.000 A 
ATOM     21  C   UNL     1       6.506   1.018  -2.122  0.00  0.00    +0.000 A 
ATOM     22  C   UNL     1       7.326   0.822  -1.000  0.00  0.00    +0.000 A 
ATOM     23  C   UNL     1       6.721   0.525   0.223  0.00  0.00    +0.000 A 
ATOM     24  F   UNL     1       7.481   0.348   1.313  0.00  0.00    +0.000 F 
ATOM     25  C   UNL     1       5.342   0.379   0.335  0.00  0.00    +0.000 A 
BRANCH  19  26
ATOM     26  C   UNL     1       3.035   0.333  -0.692  0.00  0.00    +0.000 C 
BRANCH  26  27
ATOM     27  C   UNL     1       2.325   1.642  -0.337  0.00  0.00    +0.000 C 
BRANCH  27  28
ATOM     28  N   UNL     1       0.882   1.446  -0.219  0.00  0.00    +0.000 NA
ATOM     29  H   UNL     1       0.445   2.331   0.039  0.00  0.00    +0.000 HD
ATOM     30  H   UNL     1       0.684   0.801   0.544  0.00  0.00    +0.000 HD
ENDBRANCH  27  28
ENDBRANCH  26  27
ENDBRANCH  19  26
ENDBRANCH  18  22
ENDBRANCH   1  18
TORSDOF 8
