REMARK  Name = 
REMARK  4 active torsions:
REMARK  status: ('A' for Active; 'I' for Inactive)
REMARK    1  A    between atoms: C_2  and  C_4
REMARK    2  A    between atoms: N_8  and  C_9
REMARK    3  A    between atoms: C_9  and  C_10
REMARK    4  A    between atoms: C_12  and  C_13
REMARK                            x       y       z     vdW  Elec       q    Type
REMARK                         _______ _______ _______ _____ _____    ______ ____
ROOT
ATOM      1  C   UNL     1       5.196  -3.001  -5.252  0.00  0.00    +0.000 C 
ATOM      2  C   UNL     1       5.245  -1.833  -6.224  0.00  0.00    +0.000 C 
ATOM      3  C   UNL     1       3.947  -2.534  -5.993  0.00  0.00    +0.000 C 
ENDROOT
BRANCH   1   8
ATOM      4  C   UNL     1       8.562  -0.836  -1.997  0.00  0.00    +0.000 A 
ATOM      5  C   UNL     1       8.782  -1.505  -3.197  0.00  0.00    +0.000 A 
ATOM      6  C   UNL     1       7.712  -2.155  -3.821  0.00  0.00    +0.000 A 
ATOM      7  C   UNL     1       6.445  -2.109  -3.242  0.00  0.00    +0.000 A 
ATOM      8  N   UNL     1       5.322  -2.713  -3.811  0.00  0.00    +0.000 N 
ATOM      9  N   UNL     1       6.230  -1.488  -2.064  0.00  0.00    +0.000 NA
ATOM     10  C   UNL     1       7.285  -0.877  -1.462  0.00  0.00    +0.000 A 
ATOM     11  H   UNL     1       4.505  -2.443  -3.274  0.00  0.00    +0.000 HD
BRANCH   4  13
ATOM     12  N   UNL     1      10.654   0.399  -2.006  0.00  0.00    +0.000 N 
ATOM     13  C   UNL     1       9.622  -0.110  -1.267  0.00  0.00    +0.000 C 
ATOM     14  O   UNL     1       9.560   0.067  -0.058  0.00  0.00    +0.000 OA
ATOM     15  H   UNL     1      11.319   0.981  -1.511  0.00  0.00    +0.000 HD
ATOM     16  H   UNL     1      10.606   0.497  -3.011  0.00  0.00    +0.000 HD
ENDBRANCH   4  13
ENDBRANCH   1   8
BRANCH   1  17
ATOM     17  C   UNL     1       5.694  -4.389  -5.684  0.00  0.00    +0.000 A 
ATOM     18  C   UNL     1       5.200  -5.542  -5.053  0.00  0.00    +0.000 A 
ATOM     19  C   UNL     1       5.574  -6.823  -5.482  0.00  0.00    +0.000 A 
ATOM     20  C   UNL     1       6.455  -6.885  -6.565  0.00  0.00    +0.000 A 
ATOM     21  C   UNL     1       6.910  -5.713  -7.144  0.00  0.00    +0.000 A 
ATOM     22  N   UNL     1       6.562  -4.482  -6.724  0.00  0.00    +0.000 NA
BRANCH  19  23
ATOM     23  C   UNL     1       5.058  -8.053  -4.832  0.00  0.00    +0.000 A 
ATOM     24  C   UNL     1       4.851  -9.236  -5.567  0.00  0.00    +0.000 A 
ATOM     25  C   UNL     1       4.406 -10.413  -4.958  0.00  0.00    +0.000 A 
ATOM     26  C   UNL     1       4.138 -10.432  -3.592  0.00  0.00    +0.000 A 
ATOM     27  C   UNL     1       4.313  -9.274  -2.843  0.00  0.00    +0.000 A 
ATOM     28  C   UNL     1       4.769  -8.100  -3.455  0.00  0.00    +0.000 A 
ENDBRANCH  19  23
ENDBRANCH   1  17
TORSDOF 4
