REMARK  Name = 
REMARK  8 active torsions:
REMARK  status: ('A' for Active; 'I' for Inactive)
REMARK    1  A    between atoms: N_1  and  C_2
REMARK    2  A    between atoms: C_2  and  C_3
REMARK    3  A    between atoms: C_6  and  C_7
REMARK    4  A    between atoms: N_9  and  C_10
REMARK    5  A    between atoms: C_10  and  C_11
REMARK    6  A    between atoms: C_14  and  C_15
REMARK    7  A    between atoms: C_15  and  N_16
REMARK    8  A    between atoms: C_17  and  C_19
REMARK                            x       y       z     vdW  Elec       q    Type
REMARK                         _______ _______ _______ _____ _____    ______ ____
ROOT
ATOM      1  C   UNL     1       9.063   5.021  -8.726  0.00  0.00    +0.000 C 
ATOM      2  C   UNL     1       8.046   5.913  -7.992  0.00  0.00    +0.000 C 
ATOM      3  C   UNL     1       6.640   5.317  -7.921  0.00  0.00    +0.000 C 
ATOM      4  C   UNL     1       6.603   3.882  -7.364  0.00  0.00    +0.000 C 
ATOM      5  C   UNL     1       7.617   2.993  -8.098  0.00  0.00    +0.000 C 
ATOM      6  C   UNL     1       9.024   3.591  -8.162  0.00  0.00    +0.000 C 
ENDROOT
BRANCH   1   7
ATOM      7  C   UNL     1       8.885   5.019 -10.260  0.00  0.00    +0.000 C 
BRANCH   7  10
ATOM      8  C   UNL     1      10.291   6.874 -11.128  0.00  0.00    +0.000 C 
ATOM      9  O   UNL     1      11.340   6.250 -11.011  0.00  0.00    +0.000 OA
ATOM     10  N   UNL     1       9.053   6.334 -10.847  0.00  0.00    +0.000 N 
ATOM     11  H   UNL     1       8.226   6.897 -11.002  0.00  0.00    +0.000 HD
BRANCH   8  15
ATOM     12  C   UNL     1      11.549  10.366 -11.427  0.00  0.00    +0.000 C 
ATOM     13  C   UNL     1      10.677  10.266 -10.180  0.00  0.00    +0.000 C 
ATOM     14  C   UNL     1       9.612   9.236 -10.528  0.00  0.00    +0.000 C 
ATOM     15  C   UNL     1      10.216   8.325 -11.608  0.00  0.00    +0.000 C 
ATOM     16  C   UNL     1      11.581   8.930 -11.957  0.00  0.00    +0.000 C 
BRANCH  12  17
ATOM     17  C   UNL     1      12.960  10.899 -11.155  0.00  0.00    +0.000 C 
BRANCH  17  18
ATOM     18  N   UNL     1      12.937  12.255 -10.618  0.00  0.00    +0.000 NA
ATOM     19  H   UNL     1      13.896  12.558 -10.447  0.00  0.00    +0.000 HD
ATOM     20  H   UNL     1      12.482  12.255  -9.706  0.00  0.00    +0.000 HD
ENDBRANCH  17  18
ENDBRANCH  12  17
ENDBRANCH   8  15
ENDBRANCH   7  10
ENDBRANCH   1   7
BRANCH   4  21
ATOM     21  C   UNL     1       6.824   3.824  -5.842  0.00  0.00    +0.000 C 
BRANCH  21  22
ATOM     22  N   UNL     1       5.806   4.547  -5.109  0.00  0.00    +0.000 N 
ATOM     23  C   UNL     1       4.609   4.012  -4.709  0.00  0.00    +0.000 C 
ATOM     24  O   UNL     1       4.248   2.884  -5.013  0.00  0.00    +0.000 OA
ATOM     25  H   UNL     1       6.075   5.470  -4.784  0.00  0.00    +0.000 HD
BRANCH  23  26
ATOM     26  C   UNL     1       3.764   4.910  -3.904  0.00  0.00    +0.000 A 
ATOM     27  C   UNL     1       2.392   4.711  -3.839  0.00  0.00    +0.000 A 
ATOM     28  S   UNL     1       1.588   5.828  -2.826  0.00  0.00    +0.000 S 
ATOM     29  C   UNL     1       3.051   6.590  -2.406  0.00  0.00    +0.000 A 
ATOM     30  N   UNL     1       3.083   7.615  -1.511  0.00  0.00    +0.000 NA
ATOM     31  C   UNL     1       4.265   8.058  -1.245  0.00  0.00    +0.000 A 
ATOM     32  N   UNL     1       5.419   7.582  -1.806  0.00  0.00    +0.000 N 
ATOM     33  C   UNL     1       5.426   6.636  -2.796  0.00  0.00    +0.000 A 
ATOM     34  O   UNL     1       6.453   6.383  -3.419  0.00  0.00    +0.000 OA
ATOM     35  C   UNL     1       4.132   6.033  -3.069  0.00  0.00    +0.000 A 
ATOM     36  H   UNL     1       6.308   8.012  -1.598  0.00  0.00    +0.000 HD
ENDBRANCH  23  26
ENDBRANCH  21  22
ENDBRANCH   4  21
TORSDOF 8
