REMARK  Name = 
REMARK  8 active torsions:
REMARK  status: ('A' for Active; 'I' for Inactive)
REMARK    1  A    between atoms: C_1  and  O_2
REMARK    2  A    between atoms: O_2  and  C_3
REMARK    3  A    between atoms: C_6  and  C_7
REMARK    4  A    between atoms: C_7  and  N_8
REMARK    5  A    between atoms: C_9  and  C_11
REMARK    6  A    between atoms: C_22  and  C_23
REMARK    7  A    between atoms: C_23  and  N_24
REMARK    8  A    between atoms: C_25  and  C_27
REMARK                            x       y       z     vdW  Elec       q    Type
REMARK                         _______ _______ _______ _____ _____    ______ ____
ROOT
ATOM      1  C   UNL     1       4.046   7.013  -1.546  0.00  0.00    +0.000 A 
ATOM      2  C   UNL     1       4.526   8.218  -2.077  0.00  0.00    +0.000 A 
ATOM      3  C   UNL     1       4.288   8.559  -3.408  0.00  0.00    +0.000 A 
ATOM      4  C   UNL     1       3.593   7.689  -4.247  0.00  0.00    +0.000 A 
ATOM      5  C   UNL     1       3.105   6.486  -3.717  0.00  0.00    +0.000 A 
ATOM      6  C   UNL     1       3.325   6.130  -2.372  0.00  0.00    +0.000 A 
ENDROOT
BRANCH   1   8
ATOM      7  C   UNL     1       4.553   7.652   0.684  0.00  0.00    +0.000 C 
ATOM      8  O   UNL     1       4.278   6.612  -0.253  0.00  0.00    +0.000 OA
ENDBRANCH   1   8
BRANCH   4   9
ATOM      9  C   UNL     1       3.346   8.061  -5.682  0.00  0.00    +0.000 C 
BRANCH   9  10
ATOM     10  N   UNL     1       2.080   8.723  -5.837  0.00  0.00    +0.000 N 
ATOM     11  C   UNL     1       1.945  10.088  -5.900  0.00  0.00    +0.000 C 
ATOM     12  O   UNL     1       2.904  10.849  -5.841  0.00  0.00    +0.000 OA
ATOM     13  H   UNL     1       1.260   8.154  -5.647  0.00  0.00    +0.000 HD
BRANCH  11  14
ATOM     14  C   UNL     1       0.580  10.582  -6.126  0.00  0.00    +0.000 A 
ATOM     15  C   UNL     1       0.386  11.829  -6.702  0.00  0.00    +0.000 A 
ATOM     16  S   UNL     1      -1.255  12.213  -6.966  0.00  0.00    +0.000 S 
ATOM     17  C   UNL     1      -1.768  10.750  -6.268  0.00  0.00    +0.000 A 
ATOM     18  N   UNL     1      -3.090  10.446  -6.163  0.00  0.00    +0.000 NA
ATOM     19  C   UNL     1      -3.335   9.314  -5.592  0.00  0.00    +0.000 A 
ATOM     20  N   UNL     1      -2.379   8.456  -5.116  0.00  0.00    +0.000 N 
ATOM     21  C   UNL     1      -1.034   8.699  -5.239  0.00  0.00    +0.000 A 
ATOM     22  O   UNL     1      -0.204   7.874  -4.873  0.00  0.00    +0.000 OA
ATOM     23  C   UNL     1      -0.701   9.969  -5.858  0.00  0.00    +0.000 A 
ATOM     24  H   UNL     1      -2.632   7.573  -4.700  0.00  0.00    +0.000 HD
ENDBRANCH  11  14
ENDBRANCH   9  10
ENDBRANCH   4   9
BRANCH   6  25
ATOM     25  C   UNL     1       2.754   4.822  -1.875  0.00  0.00    +0.000 C 
BRANCH  25  26
ATOM     26  N   UNL     1       1.420   4.962  -1.323  0.00  0.00    +0.000 N 
ATOM     27  C   UNL     1       0.272   4.836  -2.089  0.00  0.00    +0.000 C 
ATOM     28  O   UNL     1       0.295   4.612  -3.295  0.00  0.00    +0.000 OA
ATOM     29  H   UNL     1       1.346   5.292  -0.372  0.00  0.00    +0.000 HD
BRANCH  27  30
ATOM     30  C   UNL     1      -1.044   4.979  -1.269  0.00  0.00    +0.000 C 
ATOM     31  C   UNL     1      -2.323   4.887  -2.112  0.00  0.00    +0.000 C 
ATOM     32  C   UNL     1      -2.569   3.481  -2.656  0.00  0.00    +0.000 C 
ATOM     33  C   UNL     1      -2.503   2.449  -1.537  0.00  0.00    +0.000 C 
ATOM     34  C   UNL     1      -1.252   2.616  -0.678  0.00  0.00    +0.000 C 
ATOM     35  N   UNL     1      -1.098   3.983  -0.170  0.00  0.00    +0.000 NA
ATOM     36  H   UNL     1      -0.242   4.033   0.379  0.00  0.00    +0.000 HD
ENDBRANCH  27  30
ENDBRANCH  25  26
ENDBRANCH   6  25
TORSDOF 7
