REMARK  Name = 
REMARK  8 active torsions:
REMARK  status: ('A' for Active; 'I' for Inactive)
REMARK    1  A    between atoms: N_1  and  C_2
REMARK    2  A    between atoms: C_2  and  C_3
REMARK    3  A    between atoms: C_2  and  C_18
REMARK    4  A    between atoms: C_3  and  C_4
REMARK    5  A    between atoms: C_7  and  C_8
REMARK    6  A    between atoms: C_8  and  O_9
REMARK    7  A    between atoms: O_9  and  C_10
REMARK    8  A    between atoms: C_18  and  C_20
REMARK                            x       y       z     vdW  Elec       q    Type
REMARK                         _______ _______ _______ _____ _____    ______ ____
ROOT
ATOM      1  C   UNL     1       2.418  -0.243  -0.047  0.00  0.00    +0.000 C 
ENDROOT
BRANCH   1   2
ATOM      2  N   UNL     1       0.939  -0.167  -0.137  0.00  0.00    +0.000 NA
ATOM      3  H   UNL     1       0.583   0.320   0.689  0.00  0.00    +0.000 HD
ATOM      4  H   UNL     1       0.556  -1.113  -0.083  0.00  0.00    +0.000 HD
ENDBRANCH   1   2
BRANCH   1   5
ATOM      5  C   UNL     1       2.942  -1.172  -1.160  0.00  0.00    +0.000 C 
ATOM      6  O   UNL     1       3.137  -2.370  -0.934  0.00  0.00    +0.000 OA
BRANCH   5   7
ATOM      7  C   UNL     1       3.067  -0.680  -2.530  0.00  0.00    +0.000 A 
ATOM      8  C   UNL     1       2.295   0.329  -3.075  0.00  0.00    +0.000 A 
ATOM      9  S   UNL     1       2.352   0.324  -4.788  0.00  0.00    +0.000 S 
ATOM     10  C   UNL     1       3.513  -0.923  -4.805  0.00  0.00    +0.000 A 
ATOM     11  N   UNL     1       3.955  -1.484  -5.961  0.00  0.00    +0.000 NA
ATOM     12  C   UNL     1       4.893  -2.360  -5.796  0.00  0.00    +0.000 A 
ATOM     13  N   UNL     1       5.456  -2.697  -4.589  0.00  0.00    +0.000 N 
ATOM     14  C   UNL     1       5.064  -2.132  -3.393  0.00  0.00    +0.000 A 
ATOM     15  O   UNL     1       5.700  -2.293  -2.363  0.00  0.00    +0.000 OA
ATOM     16  C   UNL     1       3.924  -1.243  -3.530  0.00  0.00    +0.000 A 
ATOM     17  H   UNL     1       6.268  -3.294  -4.548  0.00  0.00    +0.000 HD
ENDBRANCH   5   7
ENDBRANCH   1   5
BRANCH   1  18
ATOM     18  C   UNL     1       2.928  -0.820   1.288  0.00  0.00    +0.000 C 
BRANCH  18  19
ATOM     19  C   UNL     1       2.525  -0.061   2.523  0.00  0.00    +0.000 A 
ATOM     20  C   UNL     1       1.334  -0.397   3.181  0.00  0.00    +0.000 A 
ATOM     21  C   UNL     1       0.973   0.244   4.361  0.00  0.00    +0.000 A 
ATOM     22  C   UNL     1       1.800   1.238   4.898  0.00  0.00    +0.000 A 
ATOM     23  C   UNL     1       2.992   1.573   4.243  0.00  0.00    +0.000 A 
ATOM     24  C   UNL     1       3.348   0.936   3.056  0.00  0.00    +0.000 A 
BRANCH  22  25
ATOM     25  C   UNL     1       1.412   1.932   6.173  0.00  0.00    +0.000 C 
BRANCH  25  26
ATOM     26  O   UNL     1       1.924   1.207   7.291  0.00  0.00    +0.000 OA
BRANCH  26  27
ATOM     27  C   UNL     1       1.632   1.746   8.505  0.00  0.00    +0.000 A 
ATOM     28  C   UNL     1       0.923   2.906   8.757  0.00  0.00    +0.000 A 
ATOM     29  N   UNL     1       0.666   3.386   9.990  0.00  0.00    +0.000 NA
ATOM     30  C   UNL     1       1.145   2.655  11.008  0.00  0.00    +0.000 A 
ATOM     31  N   UNL     1       1.845   1.516  10.898  0.00  0.00    +0.000 NA
ATOM     32  C   UNL     1       2.071   1.089   9.636  0.00  0.00    +0.000 A 
ENDBRANCH  26  27
ENDBRANCH  25  26
ENDBRANCH  22  25
ENDBRANCH  18  19
ENDBRANCH   1  18
TORSDOF 8
