REMARK  Name = 
REMARK  6 active torsions:
REMARK  status: ('A' for Active; 'I' for Inactive)
REMARK    1  A    between atoms: C_1  and  C_2
REMARK    2  A    between atoms: C_2  and  N_3
REMARK    3  A    between atoms: C_2  and  C_16
REMARK    4  A    between atoms: C_4  and  C_6
REMARK    5  A    between atoms: C_19  and  C_20
REMARK    6  A    between atoms: C_20  and  N_21
REMARK                            x       y       z     vdW  Elec       q    Type
REMARK                         _______ _______ _______ _____ _____    ______ ____
ROOT
ATOM      1  C   UNL     1       3.794  -1.309  -0.440  0.00  0.00    +0.000 C 
ATOM      2  C   UNL     1       2.557  -0.544   0.031  0.00  0.00    +0.000 C 
ENDROOT
BRANCH   2   3
ATOM      3  C   UNL     1       2.861   0.470   1.126  0.00  0.00    +0.000 A 
ATOM      4  C   UNL     1       2.645   1.828   0.861  0.00  0.00    +0.000 A 
ATOM      5  C   UNL     1       2.870   2.800   1.839  0.00  0.00    +0.000 A 
ATOM      6  C   UNL     1       3.305   2.451   3.123  0.00  0.00    +0.000 A 
ATOM      7  C   UNL     1       3.534   1.093   3.392  0.00  0.00    +0.000 A 
ATOM      8  C   UNL     1       3.322   0.115   2.404  0.00  0.00    +0.000 A 
BRANCH   6   9
ATOM      9  C   UNL     1       3.620   3.537   4.131  0.00  0.00    +0.000 C 
BRANCH   9  10
ATOM     10  N   UNL     1       2.564   4.065   4.993  0.00  0.00    +0.000 NA
ATOM     11  C   UNL     1       2.026   3.171   6.018  0.00  0.00    +0.000 C 
ATOM     12  C   UNL     1       0.780   2.379   5.591  0.00  0.00    +0.000 C 
ATOM     13  O   UNL     1      -0.234   3.224   5.033  0.00  0.00    +0.000 OA
ATOM     14  C   UNL     1       0.275   3.992   3.936  0.00  0.00    +0.000 C 
ATOM     15  C   UNL     1       1.492   4.831   4.353  0.00  0.00    +0.000 C 
ENDBRANCH   9  10
ENDBRANCH   6   9
ENDBRANCH   2   3
BRANCH   2  16
ATOM     16  N   UNL     1       1.516  -1.450   0.473  0.00  0.00    +0.000 N 
ATOM     17  C   UNL     1       0.617  -2.041  -0.374  0.00  0.00    +0.000 C 
ATOM     18  O   UNL     1       0.616  -1.811  -1.580  0.00  0.00    +0.000 OA
ATOM     19  H   UNL     1       1.534  -1.709   1.452  0.00  0.00    +0.000 HD
BRANCH  17  20
ATOM     20  C   UNL     1      -0.367  -2.955   0.232  0.00  0.00    +0.000 A 
ATOM     21  C   UNL     1      -1.350  -3.524  -0.569  0.00  0.00    +0.000 A 
ATOM     22  S   UNL     1      -2.434  -4.531   0.278  0.00  0.00    +0.000 S 
ATOM     23  C   UNL     1      -1.635  -4.244   1.750  0.00  0.00    +0.000 A 
ATOM     24  N   UNL     1      -2.081  -4.809   2.905  0.00  0.00    +0.000 NA
ATOM     25  C   UNL     1      -1.395  -4.502   3.953  0.00  0.00    +0.000 A 
ATOM     26  N   UNL     1      -0.293  -3.689   3.951  0.00  0.00    +0.000 N 
ATOM     27  C   UNL     1       0.221  -3.136   2.803  0.00  0.00    +0.000 A 
ATOM     28  O   UNL     1       1.259  -2.483   2.838  0.00  0.00    +0.000 OA
ATOM     29  C   UNL     1      -0.540  -3.410   1.597  0.00  0.00    +0.000 A 
ATOM     30  H   UNL     1       0.217  -3.505   4.801  0.00  0.00    +0.000 HD
ENDBRANCH  17  20
ENDBRANCH   2  16
TORSDOF 5
