REMARK  Name = 
REMARK  10 active torsions:
REMARK  status: ('A' for Active; 'I' for Inactive)
REMARK    1  A    between atoms: C_1  and  C_2
REMARK    2  A    between atoms: C_2  and  N_3
REMARK    3  A    between atoms: C_2  and  C_21
REMARK    4  A    between atoms: N_3  and  C_4
REMARK    5  A    between atoms: C_4  and  C_5
REMARK    6  A    between atoms: C_8  and  C_9
REMARK    7  A    between atoms: C_9  and  C_10
REMARK    8  A    between atoms: C_10  and  C_11
REMARK    9  A    between atoms: C_11  and  O_12
REMARK   10  A    between atoms: C_11  and  C_13
REMARK                            x       y       z     vdW  Elec       q    Type
REMARK                         _______ _______ _______ _____ _____    ______ ____
ROOT
ATOM      1  C   UNL     1      -0.893  -0.555  -1.230  0.00  0.00    +0.000 A 
ATOM      2  C   UNL     1      -1.542  -1.645  -0.657  0.00  0.00    +0.000 A 
ATOM      3  C   UNL     1      -2.933  -1.685  -0.677  0.00  0.00    +0.000 A 
ATOM      4  C   UNL     1      -3.646  -0.640  -1.263  0.00  0.00    +0.000 A 
ATOM      5  C   UNL     1      -2.916   0.404  -1.818  0.00  0.00    +0.000 A 
ATOM      6  N   UNL     1      -1.569   0.464  -1.818  0.00  0.00    +0.000 NA
ENDROOT
BRANCH   1   7
ATOM      7  C   UNL     1       0.623  -0.501  -1.265  0.00  0.00    +0.000 C 
BRANCH   7   8
ATOM      8  N   UNL     1       1.160   0.686  -0.595  0.00  0.00    +0.000 NA
ATOM      9  H   UNL     1       0.803   0.724   0.358  0.00  0.00    +0.000 HD
BRANCH   8  11
ATOM     10  C   UNL     1       3.220   0.651  -1.995  0.00  0.00    +0.000 C 
ATOM     11  C   UNL     1       2.622   0.747  -0.582  0.00  0.00    +0.000 C 
BRANCH  11  12
ATOM     12  C   UNL     1       2.999   2.065   0.069  0.00  0.00    +0.000 A 
ATOM     13  C   UNL     1       2.598   3.303  -0.414  0.00  0.00    +0.000 A 
ATOM     14  S   UNL     1       3.232   4.617   0.469  0.00  0.00    +0.000 S 
ATOM     15  C   UNL     1       4.048   3.577   1.541  0.00  0.00    +0.000 A 
ATOM     16  N   UNL     1       4.816   4.074   2.549  0.00  0.00    +0.000 NA
ATOM     17  C   UNL     1       5.371   3.170   3.285  0.00  0.00    +0.000 A 
ATOM     18  N   UNL     1       5.222   1.819   3.115  0.00  0.00    +0.000 N 
ATOM     19  C   UNL     1       4.435   1.269   2.126  0.00  0.00    +0.000 A 
ATOM     20  O   UNL     1       4.278   0.053   2.036  0.00  0.00    +0.000 OA
ATOM     21  C   UNL     1       3.820   2.245   1.245  0.00  0.00    +0.000 A 
ATOM     22  H   UNL     1       5.664   1.166   3.745  0.00  0.00    +0.000 HD
ENDBRANCH  11  12
ENDBRANCH   8  11
ENDBRANCH   7   8
ENDBRANCH   1   7
BRANCH   4  23
ATOM     23  C   UNL     1      -5.146  -0.658  -1.343  0.00  0.00    +0.000 C 
BRANCH  23  24
ATOM     24  C   UNL     1      -5.619  -1.328  -2.636  0.00  0.00    +0.000 C 
BRANCH  24  25
ATOM     25  C   UNL     1      -7.145  -1.335  -2.742  0.00  0.00    +0.000 C 
BRANCH  25  26
ATOM     26  C   UNL     1      -7.600  -2.042  -4.007  0.00  0.00    +0.000 A 
ATOM     27  C   UNL     1      -7.835  -3.415  -4.010  0.00  0.00    +0.000 A 
ATOM     28  C   UNL     1      -8.255  -4.019  -5.192  0.00  0.00    +0.000 A 
ATOM     29  C   UNL     1      -8.422  -3.243  -6.334  0.00  0.00    +0.000 A 
ATOM     30  C   UNL     1      -8.160  -1.886  -6.248  0.00  0.00    +0.000 A 
ATOM     31  N   UNL     1      -7.756  -1.268  -5.116  0.00  0.00    +0.000 NA
ENDBRANCH  25  26
BRANCH  25  32
ATOM     32  O   UNL     1      -7.599   0.024  -2.770  0.00  0.00    +0.000 OA
ATOM     33  H   UNL     1      -7.761   0.211  -3.719  0.00  0.00    +0.000 HD
ENDBRANCH  25  32
ENDBRANCH  24  25
ENDBRANCH  23  24
ENDBRANCH   4  23
TORSDOF 9
