REMARK  Name = 
REMARK  10 active torsions:
REMARK  status: ('A' for Active; 'I' for Inactive)
REMARK    1  A    between atoms: C_1  and  O_2
REMARK    2  A    between atoms: O_2  and  C_3
REMARK    3  A    between atoms: C_10  and  C_11
REMARK    4  A    between atoms: N_13  and  C_14
REMARK    5  A    between atoms: C_14  and  C_15
REMARK    6  A    between atoms: C_18  and  C_19
REMARK    7  A    between atoms: C_19  and  N_20
REMARK    8  A    between atoms: N_20  and  C_21
REMARK    9  A    between atoms: C_21  and  C_22
REMARK   10  A    between atoms: C_21  and  C_23
REMARK                            x       y       z     vdW  Elec       q    Type
REMARK                         _______ _______ _______ _____ _____    ______ ____
ROOT
ATOM      1  C   UNL     1      -5.447  -4.516  -9.560  0.00  0.00    +0.000 A 
ATOM      2  C   UNL     1      -4.949  -3.497  -8.736  0.00  0.00    +0.000 A 
ATOM      3  C   UNL     1      -4.390  -3.797  -7.488  0.00  0.00    +0.000 A 
ATOM      4  C   UNL     1      -4.323  -5.122  -7.034  0.00  0.00    +0.000 A 
ATOM      5  C   UNL     1      -4.775  -6.141  -7.887  0.00  0.00    +0.000 A 
ATOM      6  C   UNL     1      -5.329  -5.844  -9.135  0.00  0.00    +0.000 A 
ENDROOT
BRANCH   1   7
ATOM      7  C   UNL     1      -6.048  -4.201 -10.906  0.00  0.00    +0.000 C 
BRANCH   7  10
ATOM      8  C   UNL     1      -5.313  -3.838 -13.225  0.00  0.00    +0.000 C 
ATOM      9  O   UNL     1      -6.463  -3.594 -13.592  0.00  0.00    +0.000 OA
ATOM     10  N   UNL     1      -5.032  -4.150 -11.920  0.00  0.00    +0.000 N 
ATOM     11  H   UNL     1      -4.095  -4.420 -11.654  0.00  0.00    +0.000 HD
BRANCH   8  19
ATOM     12  C   UNL     1      -1.915  -4.291 -12.861  0.00  0.00    +0.000 A 
ATOM     13  N   UNL     1      -0.581  -4.384 -13.000  0.00  0.00    +0.000 NA
ATOM     14  C   UNL     1      -0.055  -4.181 -14.212  0.00  0.00    +0.000 A 
ATOM     15  N   UNL     1      -0.715  -3.888 -15.330  0.00  0.00    +0.000 NA
ATOM     16  C   UNL     1      -2.044  -3.807 -15.149  0.00  0.00    +0.000 A 
ATOM     17  S   UNL     1      -3.045  -3.444 -16.471  0.00  0.00    +0.000 S 
ATOM     18  C   UNL     1      -4.437  -3.505 -15.499  0.00  0.00    +0.000 A 
ATOM     19  C   UNL     1      -4.180  -3.797 -14.163  0.00  0.00    +0.000 A 
ATOM     20  C   UNL     1      -2.743  -3.989 -13.959  0.00  0.00    +0.000 A 
BRANCH  12  22
ATOM     21  C   UNL     1      -1.542  -4.318 -10.551  0.00  0.00    +0.000 C 
ATOM     22  O   UNL     1      -2.454  -4.554 -11.622  0.00  0.00    +0.000 OA
ENDBRANCH  12  22
ENDBRANCH   8  19
ENDBRANCH   7  10
ENDBRANCH   1   7
BRANCH   4  23
ATOM     23  C   UNL     1      -3.686  -5.511  -5.716  0.00  0.00    +0.000 C 
BRANCH  23  24
ATOM     24  N   UNL     1      -3.884  -4.524  -4.653  0.00  0.00    +0.000 NA
ATOM     25  H   UNL     1      -4.885  -4.402  -4.513  0.00  0.00    +0.000 HD
BRANCH  24  26
ATOM     26  C   UNL     1      -3.256  -4.899  -3.366  0.00  0.00    +0.000 C 
ATOM     27  C   UNL     1      -1.725  -4.902  -3.515  0.00  0.00    +0.000 C 
BRANCH  26  28
ATOM     28  C   UNL     1      -3.855  -6.156  -2.733  0.00  0.00    +0.000 A 
ATOM     29  C   UNL     1      -3.073  -7.264  -2.368  0.00  0.00    +0.000 A 
ATOM     30  C   UNL     1      -3.651  -8.406  -1.803  0.00  0.00    +0.000 A 
ATOM     31  C   UNL     1      -5.025  -8.464  -1.595  0.00  0.00    +0.000 A 
ATOM     32  C   UNL     1      -5.818  -7.370  -1.923  0.00  0.00    +0.000 A 
ATOM     33  C   UNL     1      -5.238  -6.221  -2.472  0.00  0.00    +0.000 A 
ENDBRANCH  26  28
ENDBRANCH  24  26
ENDBRANCH  23  24
ENDBRANCH   4  23
TORSDOF 8
