REMARK  Name = 
REMARK  8 active torsions:
REMARK  status: ('A' for Active; 'I' for Inactive)
REMARK    1  A    between atoms: C_1  and  C_2
REMARK    2  A    between atoms: C_2  and  O_3
REMARK    3  A    between atoms: C_2  and  C_25
REMARK    4  A    between atoms: O_3  and  C_4
REMARK    5  A    between atoms: C_4  and  C_5
REMARK    6  A    between atoms: C_8  and  C_9
REMARK    7  A    between atoms: C_9  and  N_10
REMARK    8  A    between atoms: C_11  and  C_13
REMARK                            x       y       z     vdW  Elec       q    Type
REMARK                         _______ _______ _______ _____ _____    ______ ____
ROOT
ATOM      1  C   UNL     1       3.096   1.907   3.060  0.00  0.00    +0.000 A 
ATOM      2  C   UNL     1       3.139   3.227   3.509  0.00  0.00    +0.000 A 
ATOM      3  C   UNL     1       3.540   3.499   4.814  0.00  0.00    +0.000 A 
ATOM      4  C   UNL     1       3.879   2.439   5.650  0.00  0.00    +0.000 A 
ATOM      5  N   UNL     1       3.882   1.150   5.226  0.00  0.00    +0.000 NA
ATOM      6  C   UNL     1       3.500   0.918   3.950  0.00  0.00    +0.000 A 
ENDROOT
BRANCH   1   7
ATOM      7  C   UNL     1       2.567   1.549   1.703  0.00  0.00    +0.000 C 
BRANCH   7   8
ATOM      8  O   UNL     1       3.323   2.199   0.688  0.00  0.00    +0.000 OA
BRANCH   8  10
ATOM      9  C   UNL     1       2.884   0.502  -1.027  0.00  0.00    +0.000 C 
ATOM     10  C   UNL     1       2.819   1.980  -0.639  0.00  0.00    +0.000 C 
BRANCH  10  11
ATOM     11  C   UNL     1       3.635   2.819  -1.611  0.00  0.00    +0.000 A 
ATOM     12  C   UNL     1       3.042   3.329  -2.779  0.00  0.00    +0.000 A 
ATOM     13  C   UNL     1       3.779   4.125  -3.663  0.00  0.00    +0.000 A 
ATOM     14  C   UNL     1       5.115   4.409  -3.392  0.00  0.00    +0.000 A 
ATOM     15 CL   UNL     1       6.012   5.415  -4.462  0.00  0.00    +0.000 Cl
ATOM     16  C   UNL     1       5.728   3.887  -2.257  0.00  0.00    +0.000 A 
ATOM     17  C   UNL     1       4.993   3.091  -1.375  0.00  0.00    +0.000 A 
ENDBRANCH  10  11
ENDBRANCH   8  10
ENDBRANCH   7   8
ENDBRANCH   1   7
BRANCH   4  18
ATOM     18  C   UNL     1       4.259   2.694   7.087  0.00  0.00    +0.000 C 
BRANCH  18  19
ATOM     19  N   UNL     1       5.676   2.890   7.254  0.00  0.00    +0.000 N 
ATOM     20  C   UNL     1       6.248   4.135   7.312  0.00  0.00    +0.000 C 
ATOM     21  O   UNL     1       5.586   5.163   7.220  0.00  0.00    +0.000 OA
ATOM     22  H   UNL     1       6.255   2.076   7.074  0.00  0.00    +0.000 HD
BRANCH  20  23
ATOM     23  C   UNL     1       7.694   4.168   7.563  0.00  0.00    +0.000 A 
ATOM     24  C   UNL     1       8.263   5.291   8.149  0.00  0.00    +0.000 A 
ATOM     25  S   UNL     1       9.945   5.153   8.401  0.00  0.00    +0.000 S 
ATOM     26  C   UNL     1       9.980   3.607   7.692  0.00  0.00    +0.000 A 
ATOM     27  N   UNL     1      11.150   2.925   7.557  0.00  0.00    +0.000 NA
ATOM     28  C   UNL     1      11.033   1.777   6.977  0.00  0.00    +0.000 A 
ATOM     29  N   UNL     1       9.852   1.243   6.532  0.00  0.00    +0.000 N 
ATOM     30  C   UNL     1       8.641   1.869   6.701  0.00  0.00    +0.000 A 
ATOM     31  O   UNL     1       7.593   1.316   6.388  0.00  0.00    +0.000 OA
ATOM     32  C   UNL     1       8.720   3.185   7.305  0.00  0.00    +0.000 A 
ATOM     33  H   UNL     1       9.822   0.326   6.112  0.00  0.00    +0.000 HD
ENDBRANCH  20  23
ENDBRANCH  18  19
ENDBRANCH   4  18
TORSDOF 7
