REMARK  Name = 
REMARK  5 active torsions:
REMARK  status: ('A' for Active; 'I' for Inactive)
REMARK    1  A    between atoms: N_1  and  C_2
REMARK    2  A    between atoms: C_2  and  C_3
REMARK    3  A    between atoms: C_6  and  S_7
REMARK    4  A    between atoms: S_7  and  C_8
REMARK    5  A    between atoms: C_8  and  C_9
REMARK                            x       y       z     vdW  Elec       q    Type
REMARK                         _______ _______ _______ _____ _____    ______ ____
ROOT
ATOM      1  C   UNL     1       2.762  -0.815   1.209  0.00  0.00    +0.000 A 
ATOM      2  C   UNL     1       3.128  -0.283   2.453  0.00  0.00    +0.000 A 
ATOM      3  C   UNL     1       3.403  -1.122   3.543  0.00  0.00    +0.000 A 
ATOM      4  C   UNL     1       3.307  -2.509   3.413  0.00  0.00    +0.000 A 
ATOM      5  C   UNL     1       2.965  -3.041   2.163  0.00  0.00    +0.000 A 
ATOM      6  C   UNL     1       2.692  -2.205   1.074  0.00  0.00    +0.000 A 
ENDROOT
BRANCH   1   7
ATOM      7  C   UNL     1       2.414   0.085   0.050  0.00  0.00    +0.000 C 
BRANCH   7   8
ATOM      8  N   UNL     1       3.505   0.987  -0.296  0.00  0.00    +0.000 NA
ATOM      9  H   UNL     1       3.266   1.481  -1.155  0.00  0.00    +0.000 HD
ATOM     10  H   UNL     1       4.333   0.432  -0.507  0.00  0.00    +0.000 HD
ENDBRANCH   7   8
ENDBRANCH   1   7
BRANCH   4  11
ATOM     11  S   UNL     1       3.670  -3.665   4.727  0.00  0.00    +0.000 S 
BRANCH  11  12
ATOM     12  C   UNL     1       3.028  -2.802   6.210  0.00  0.00    +0.000 C 
BRANCH  12  13
ATOM     13  C   UNL     1       3.123  -3.665   7.450  0.00  0.00    +0.000 A 
ATOM     14  N   UNL     1       4.281  -3.639   8.146  0.00  0.00    +0.000 NA
ATOM     15  C   UNL     1       4.346  -4.423   9.239  0.00  0.00    +0.000 A 
ATOM     16  C   UNL     1       3.308  -5.213   9.669  0.00  0.00    +0.000 A 
ATOM     17  C   UNL     1       2.169  -5.162   8.903  0.00  0.00    +0.000 A 
ATOM     18  N   UNL     1       2.048  -4.401   7.799  0.00  0.00    +0.000 NA
ENDBRANCH  12  13
ENDBRANCH  11  12
ENDBRANCH   4  11
TORSDOF 5
