REMARK  Name = 
REMARK  5 active torsions:
REMARK  status: ('A' for Active; 'I' for Inactive)
REMARK    1  A    between atoms: C_2  and  C_4
REMARK    2  A    between atoms: C_7  and  N_8
REMARK    3  A    between atoms: N_8  and  C_9
REMARK    4  A    between atoms: C_9  and  C_10
REMARK    5  A    between atoms: C_12  and  C_13
REMARK                            x       y       z     vdW  Elec       q    Type
REMARK                         _______ _______ _______ _____ _____    ______ ____
ROOT
ATOM      1  C   UNL     1       5.944   2.659  -6.701  0.00  0.00    +0.000 A 
ATOM      2  C   UNL     1       6.510   1.545  -7.357  0.00  0.00    +0.000 A 
ATOM      3  C   UNL     1       7.398   1.677  -8.445  0.00  0.00    +0.000 A 
ATOM      4  C   UNL     1       7.712   2.983  -8.858  0.00  0.00    +0.000 A 
ATOM      5  C   UNL     1       7.163   4.089  -8.212  0.00  0.00    +0.000 A 
ATOM      6  F   UNL     1       7.488   5.320  -8.635  0.00  0.00    +0.000 F 
ATOM      7  C   UNL     1       6.282   3.933  -7.149  0.00  0.00    +0.000 A 
ATOM      8  F   UNL     1       5.759   5.014  -6.554  0.00  0.00    +0.000 F 
ENDROOT
BRANCH   3   9
ATOM      9  C   UNL     1       7.970   0.489  -9.127  0.00  0.00    +0.000 A 
ATOM     10  C   UNL     1       7.234  -0.706  -9.265  0.00  0.00    +0.000 A 
ATOM     11  C   UNL     1       7.768  -1.832  -9.904  0.00  0.00    +0.000 A 
ATOM     12  C   UNL     1       9.053  -1.784 -10.432  0.00  0.00    +0.000 A 
ATOM     13  C   UNL     1       9.789  -0.615 -10.312  0.00  0.00    +0.000 A 
ATOM     14  F   UNL     1      11.026  -0.561 -10.824  0.00  0.00    +0.000 F 
ATOM     15  C   UNL     1       9.267   0.505  -9.667  0.00  0.00    +0.000 A 
ENDBRANCH   3   9
BRANCH   1  16
ATOM     16  C   UNL     1       4.962   2.459  -5.573  0.00  0.00    +0.000 C 
BRANCH  16  17
ATOM     17  N   UNL     1       5.620   1.695  -4.518  0.00  0.00    +0.000 N 
ATOM     18  H   UNL     1       6.242   2.283  -3.969  0.00  0.00    +0.000 HD
BRANCH  17  22
ATOM     19  C   UNL     1       3.327  -0.682  -2.074  0.00  0.00    +0.000 A 
ATOM     20  C   UNL     1       2.740   0.067  -3.081  0.00  0.00    +0.000 A 
ATOM     21  N   UNL     1       3.457   0.888  -3.896  0.00  0.00    +0.000 NA
ATOM     22  C   UNL     1       4.788   0.945  -3.680  0.00  0.00    +0.000 A 
ATOM     23  C   UNL     1       5.361   0.172  -2.658  0.00  0.00    +0.000 A 
ATOM     24  N   UNL     1       4.663  -0.646  -1.826  0.00  0.00    +0.000 NA
BRANCH  19  26
ATOM     25  N   UNL     1       3.150  -2.240  -0.229  0.00  0.00    +0.000 N 
ATOM     26  C   UNL     1       2.488  -1.570  -1.223  0.00  0.00    +0.000 C 
ATOM     27  O   UNL     1       1.283  -1.693  -1.395  0.00  0.00    +0.000 OA
ATOM     28  H   UNL     1       2.634  -2.849   0.389  0.00  0.00    +0.000 HD
ATOM     29  H   UNL     1       4.147  -2.107  -0.102  0.00  0.00    +0.000 HD
ENDBRANCH  19  26
ENDBRANCH  17  22
ENDBRANCH  16  17
ENDBRANCH   1  16
TORSDOF 5
