REMARK  Name = 
REMARK  6 active torsions:
REMARK  status: ('A' for Active; 'I' for Inactive)
REMARK    1  A    between atoms: C_1  and  C_2
REMARK    2  A    between atoms: C_2  and  C_3
REMARK    3  A    between atoms: C_2  and  C_14
REMARK    4  A    between atoms: C_3  and  N_4
REMARK    5  A    between atoms: N_4  and  C_5
REMARK    6  A    between atoms: C_8  and  C_9
REMARK                            x       y       z     vdW  Elec       q    Type
REMARK                         _______ _______ _______ _____ _____    ______ ____
ROOT
ATOM      1  N   UNL     1       2.668  -2.022   1.325  0.00  0.00    +0.000 N 
ATOM      2  H   UNL     1       1.664  -2.000   1.499  0.00  0.00    +0.000 HD
ENDROOT
BRANCH   1   3
ATOM      3  C   UNL     1       3.210  -3.278   1.634  0.00  0.00    +0.000 A 
ATOM      4  C   UNL     1       2.552  -4.113   2.542  0.00  0.00    +0.000 A 
ATOM      5  C   UNL     1       3.085  -5.360   2.874  0.00  0.00    +0.000 A 
ATOM      6  C   UNL     1       4.297  -5.725   2.307  0.00  0.00    +0.000 A 
ATOM      7  N   UNL     1       5.013  -4.924   1.474  0.00  0.00    +0.000 NA
ATOM      8  C   UNL     1       4.459  -3.723   1.186  0.00  0.00    +0.000 A 
BRANCH   6   9
ATOM      9  C   UNL     1       4.885  -7.073   2.585  0.00  0.00    +0.000 C 
ATOM     10  N   UNL     1       6.076  -7.324   1.955  0.00  0.00    +0.000 N 
ATOM     11  O   UNL     1       4.345  -7.900   3.308  0.00  0.00    +0.000 OA
ATOM     12  H   UNL     1       6.476  -6.612   1.354  0.00  0.00    +0.000 HD
ATOM     13  H   UNL     1       6.527  -8.218   2.069  0.00  0.00    +0.000 HD
ENDBRANCH   6   9
ENDBRANCH   1   3
BRANCH   1  14
ATOM     14  C   UNL     1       2.983  -1.476   0.007  0.00  0.00    +0.000 C 
BRANCH  14  16
ATOM     15  C   UNL     1       2.674   0.991   0.644  0.00  0.00    +0.000 C 
ATOM     16  C   UNL     1       2.222  -0.198  -0.146  0.00  0.00    +0.000 C 
BRANCH  16  17
ATOM     17  C   UNL     1       0.947  -0.154  -0.877  0.00  0.00    +0.000 A 
ATOM     18  C   UNL     1       0.786  -0.795  -2.112  0.00  0.00    +0.000 A 
ATOM     19  C   UNL     1      -0.433  -0.729  -2.794  0.00  0.00    +0.000 A 
ATOM     20  C   UNL     1      -1.506  -0.027  -2.246  0.00  0.00    +0.000 A 
ATOM     21  C   UNL     1      -1.360   0.611  -1.021  0.00  0.00    +0.000 A 
ATOM     22  C   UNL     1      -0.140   0.552  -0.344  0.00  0.00    +0.000 A 
ENDBRANCH  16  17
ENDBRANCH  14  16
ENDBRANCH   1  14
TORSDOF 5
