REMARK  Name = 
REMARK  7 active torsions:
REMARK  status: ('A' for Active; 'I' for Inactive)
REMARK    1  A    between atoms: C_2  and  C_4
REMARK    2  A    between atoms: C_7  and  O_8
REMARK    3  A    between atoms: O_8  and  C_9
REMARK    4  A    between atoms: C_9  and  C_10
REMARK    5  A    between atoms: C_10  and  C_11
REMARK    6  A    between atoms: C_15  and  O_16
REMARK    7  A    between atoms: O_16  and  C_17
REMARK                            x       y       z     vdW  Elec       q    Type
REMARK                         _______ _______ _______ _____ _____    ______ ____
ROOT
ATOM      1  C   UNL     1       5.034   0.890   5.772  0.00  0.00    +0.000 C 
ENDROOT
BRANCH   1   2
ATOM      2  O   UNL     1       5.272   1.561   4.527  0.00  0.00    +0.000 OA
BRANCH   2   6
ATOM      3  C   UNL     1       2.602   0.451   1.587  0.00  0.00    +0.000 A 
ATOM      4  C   UNL     1       3.612   1.368   1.290  0.00  0.00    +0.000 A 
ATOM      5  C   UNL     1       4.509   1.744   2.294  0.00  0.00    +0.000 A 
ATOM      6  C   UNL     1       4.360   1.186   3.557  0.00  0.00    +0.000 A 
ATOM      7  N   UNL     1       3.381   0.310   3.871  0.00  0.00    +0.000 NA
ATOM      8  C   UNL     1       2.519  -0.030   2.885  0.00  0.00    +0.000 A 
BRANCH   3  10
ATOM      9  N   UNL     1       1.984  -0.039  -0.711  0.00  0.00    +0.000 N 
ATOM     10  C   UNL     1       1.608  -0.025   0.602  0.00  0.00    +0.000 C 
ATOM     11  O   UNL     1       0.511  -0.436   0.950  0.00  0.00    +0.000 OA
ATOM     12  H   UNL     1       1.340  -0.490  -1.350  0.00  0.00    +0.000 HD
ATOM     13  H   UNL     1       2.949   0.035  -1.001  0.00  0.00    +0.000 HD
ENDBRANCH   3  10
ENDBRANCH   2   6
ENDBRANCH   1   2
BRANCH   1  14
ATOM     14  C   UNL     1       6.075   1.327   6.802  0.00  0.00    +0.000 C 
BRANCH  14  15
ATOM     15  C   UNL     1       5.847   0.648   8.131  0.00  0.00    +0.000 A 
ATOM     16  C   UNL     1       5.018   1.228   9.098  0.00  0.00    +0.000 A 
ATOM     17  C   UNL     1       4.765   0.564  10.301  0.00  0.00    +0.000 A 
ATOM     18  C   UNL     1       5.335  -0.686  10.554  0.00  0.00    +0.000 A 
ATOM     19  C   UNL     1       6.167  -1.269   9.600  0.00  0.00    +0.000 A 
ATOM     20  C   UNL     1       6.411  -0.608   8.393  0.00  0.00    +0.000 A 
BRANCH  19  21
ATOM     21  O   UNL     1       6.758  -2.500   9.721  0.00  0.00    +0.000 OA
BRANCH  21  22
ATOM     22  C   UNL     1       6.976  -3.048  11.040  0.00  0.00    +0.000 C 
ATOM     23  C   UNL     1       8.024  -2.377  11.938  0.00  0.00    +0.000 C 
ATOM     24  O   UNL     1       8.789  -3.599  12.054  0.00  0.00    +0.000 OA
ATOM     25  C   UNL     1       7.928  -4.251  11.093  0.00  0.00    +0.000 C 
ENDBRANCH  21  22
ENDBRANCH  19  21
ENDBRANCH  14  15
ENDBRANCH   1  14
TORSDOF 7
