REMARK  Name = 
REMARK  5 active torsions:
REMARK  status: ('A' for Active; 'I' for Inactive)
REMARK    1  A    between atoms: C_2  and  C_4
REMARK    2  A    between atoms: N_8  and  C_9
REMARK    3  A    between atoms: C_9  and  C_10
REMARK    4  A    between atoms: C_10  and  C_13
REMARK    5  A    between atoms: C_17  and  C_18
REMARK                            x       y       z     vdW  Elec       q    Type
REMARK                         _______ _______ _______ _____ _____    ______ ____
ROOT
ATOM      1  C   UNL     1       6.158   4.069   5.819  0.00  0.00    +0.000 C 
ATOM      2  F   UNL     1       7.378   3.468   5.642  0.00  0.00    +0.000 F 
ATOM      3  F   UNL     1       6.311   5.328   5.311  0.00  0.00    +0.000 F 
ENDROOT
BRANCH   1   4
ATOM      4  C   UNL     1       5.739   4.090   7.275  0.00  0.00    +0.000 A 
ATOM      5  C   UNL     1       4.972   5.147   7.779  0.00  0.00    +0.000 A 
ATOM      6  C   UNL     1       4.554   5.136   9.106  0.00  0.00    +0.000 A 
ATOM      7  C   UNL     1       4.879   4.059   9.934  0.00  0.00    +0.000 A 
ATOM      8  C   UNL     1       5.622   2.963   9.458  0.00  0.00    +0.000 A 
ATOM      9  C   UNL     1       6.064   3.016   8.123  0.00  0.00    +0.000 A 
BRANCH   8  10
ATOM     10  C   UNL     1       5.889   1.785  10.308  0.00  0.00    +0.000 A 
ATOM     11  C   UNL     1       7.063   1.023  10.197  0.00  0.00    +0.000 A 
ATOM     12  C   UNL     1       7.261  -0.099  11.000  0.00  0.00    +0.000 A 
ATOM     13  C   UNL     1       6.281  -0.436  11.919  0.00  0.00    +0.000 A 
ATOM     14  N   UNL     1       5.134   0.256  12.065  0.00  0.00    +0.000 NA
ATOM     15  C   UNL     1       4.969   1.335  11.258  0.00  0.00    +0.000 A 
ENDBRANCH   8  10
ENDBRANCH   1   4
BRANCH   1  16
ATOM     16  C   UNL     1       5.121   3.294   4.966  0.00  0.00    +0.000 C 
BRANCH  16  21
ATOM     17  C   UNL     1       2.912   1.131   1.040  0.00  0.00    +0.000 A 
ATOM     18  C   UNL     1       4.020   1.781   0.503  0.00  0.00    +0.000 A 
ATOM     19  C   UNL     1       4.861   2.504   1.349  0.00  0.00    +0.000 A 
ATOM     20  C   UNL     1       4.598   2.554   2.717  0.00  0.00    +0.000 A 
ATOM     21  N   UNL     1       5.422   3.351   3.519  0.00  0.00    +0.000 N 
ATOM     22  N   UNL     1       3.525   1.932   3.246  0.00  0.00    +0.000 NA
ATOM     23  C   UNL     1       2.707   1.244   2.411  0.00  0.00    +0.000 A 
ATOM     24  H   UNL     1       6.405   3.186   3.323  0.00  0.00    +0.000 HD
BRANCH  17  26
ATOM     25  N   UNL     1       2.420  -0.192  -0.933  0.00  0.00    +0.000 N 
ATOM     26  C   UNL     1       1.950   0.361   0.225  0.00  0.00    +0.000 C 
ATOM     27  O   UNL     1       0.795   0.201   0.587  0.00  0.00    +0.000 OA
ATOM     28  H   UNL     1       1.778  -0.790  -1.439  0.00  0.00    +0.000 HD
ATOM     29  H   UNL     1       3.405  -0.285  -1.139  0.00  0.00    +0.000 HD
ENDBRANCH  17  26
ENDBRANCH  16  21
ENDBRANCH   1  16
TORSDOF 5
