REMARK  Name = 
REMARK  3 active torsions:
REMARK  status: ('A' for Active; 'I' for Inactive)
REMARK    1  A    between atoms: C_2  and  C_4
REMARK    2  A    between atoms: N_8  and  C_9
REMARK    3  A    between atoms: C_9  and  C_10
REMARK                            x       y       z     vdW  Elec       q    Type
REMARK                         _______ _______ _______ _____ _____    ______ ____
ROOT
ATOM      1  C   UNL     1       2.890   0.059   1.442  0.00  0.00    +0.000 A 
ATOM      2  C   UNL     1       4.129   0.651   1.219  0.00  0.00    +0.000 A 
ATOM      3  C   UNL     1       5.004   0.812   2.296  0.00  0.00    +0.000 A 
ATOM      4  C   UNL     1       4.626   0.398   3.574  0.00  0.00    +0.000 A 
ATOM      5  N   UNL     1       5.560   0.544   4.612  0.00  0.00    +0.000 N 
ATOM      6  N   UNL     1       3.426  -0.177   3.797  0.00  0.00    +0.000 NA
ATOM      7  C   UNL     1       2.584  -0.322   2.740  0.00  0.00    +0.000 A 
ATOM      8  H   UNL     1       5.962   1.474   4.562  0.00  0.00    +0.000 HD
ENDROOT
BRANCH   1  10
ATOM      9  N   UNL     1       2.358  -0.297  -0.904  0.00  0.00    +0.000 N 
ATOM     10  C   UNL     1       1.890  -0.154   0.374  0.00  0.00    +0.000 C 
ATOM     11  O   UNL     1       0.697  -0.234   0.624  0.00  0.00    +0.000 OA
ATOM     12  H   UNL     1       1.671  -0.544  -1.606  0.00  0.00    +0.000 HD
ATOM     13  H   UNL     1       3.327  -0.491  -1.111  0.00  0.00    +0.000 HD
ENDBRANCH   1  10
BRANCH   5  14
ATOM     14  C   UNL     1       5.064   0.211   5.947  0.00  0.00    +0.000 C 
BRANCH  14  15
ATOM     15  C   UNL     1       6.095   0.558   7.041  0.00  0.00    +0.000 C 
ATOM     16  C   UNL     1       6.356   2.069   7.165  0.00  0.00    +0.000 C 
ATOM     17  C   UNL     1       7.441   2.353   8.197  0.00  0.00    +0.000 C 
ATOM     18  O   UNL     1       8.634   1.636   7.885  0.00  0.00    +0.000 OA
ATOM     19  C   UNL     1       8.433   0.224   7.915  0.00  0.00    +0.000 C 
ATOM     20  C   UNL     1       7.419  -0.198   6.858  0.00  0.00    +0.000 C 
ENDBRANCH  14  15
ENDBRANCH   5  14
TORSDOF 3
