REMARK  Name = 
REMARK  5 active torsions:
REMARK  status: ('A' for Active; 'I' for Inactive)
REMARK    1  A    between atoms: C_1  and  C_2
REMARK    2  A    between atoms: C_12  and  C_13
REMARK    3  A    between atoms: C_13  and  N_14
REMARK    4  A    between atoms: N_14  and  C_15
REMARK    5  A    between atoms: C_18  and  C_19
REMARK                            x       y       z     vdW  Elec       q    Type
REMARK                         _______ _______ _______ _____ _____    ______ ____
ROOT
ATOM      1  C   UNL     1       6.857  -4.118   0.011  0.00  0.00    +0.000 C 
ATOM      2  C   UNL     1       8.137  -3.566   0.609  0.00  0.00    +0.000 C 
ATOM      3  C   UNL     1       7.665  -3.030  -0.702  0.00  0.00    +0.000 C 
ENDROOT
BRANCH   1  15
ATOM      4  C   UNL     1       0.727  -0.314   0.086  0.00  0.00    +0.000 C 
ATOM      5  C   UNL     1       2.255  -0.331   0.133  0.00  0.00    +0.000 C 
ATOM      6  C   UNL     1       2.854   0.823  -0.704  0.00  0.00    +0.000 C 
ATOM      7  O   UNL     1       2.658   0.634  -2.113  0.00  0.00    +0.000 OA
ATOM      8  C   UNL     1       3.331  -0.563  -2.534  0.00  0.00    +0.000 C 
ATOM      9  C   UNL     1       2.777  -1.803  -1.826  0.00  0.00    +0.000 C 
ATOM     10  N   UNL     1       2.721  -1.638  -0.366  0.00  0.00    +0.000 N 
ATOM     11  C   UNL     1       3.564  -2.404   0.418  0.00  0.00    +0.000 A 
ATOM     12  C   UNL     1       3.196  -2.737   1.720  0.00  0.00    +0.000 A 
ATOM     13  C   UNL     1       3.988  -3.600   2.468  0.00  0.00    +0.000 A 
ATOM     14  C   UNL     1       5.165  -4.077   1.913  0.00  0.00    +0.000 A 
ATOM     15  C   UNL     1       5.524  -3.678   0.628  0.00  0.00    +0.000 A 
ATOM     16  N   UNL     1       4.707  -2.879  -0.116  0.00  0.00    +0.000 NA
ENDBRANCH   1  15
BRANCH   1  17
ATOM     17  N   UNL     1       6.789  -5.387  -0.745  0.00  0.00    +0.000 N 
ATOM     18  H   UNL     1       6.066  -5.361  -1.462  0.00  0.00    +0.000 HD
BRANCH  17  19
ATOM     19  C   UNL     1       6.917  -6.677  -0.196  0.00  0.00    +0.000 A 
ATOM     20  C   UNL     1       7.456  -6.952   1.061  0.00  0.00    +0.000 A 
ATOM     21  C   UNL     1       7.644  -8.275   1.491  0.00  0.00    +0.000 A 
ATOM     22  C   UNL     1       7.315  -9.350   0.653  0.00  0.00    +0.000 A 
ATOM     23  C   UNL     1       6.809  -9.087  -0.619  0.00  0.00    +0.000 A 
ATOM     24  C   UNL     1       6.622  -7.767  -1.036  0.00  0.00    +0.000 A 
BRANCH  22  25
ATOM     25  C   UNL     1       7.575 -10.740   1.122  0.00  0.00    +0.000 C 
ATOM     26  N   UNL     1       6.861 -11.745   0.534  0.00  0.00    +0.000 N 
ATOM     27  O   UNL     1       8.381 -10.974   2.009  0.00  0.00    +0.000 OA
ATOM     28  H   UNL     1       6.048 -11.588  -0.043  0.00  0.00    +0.000 HD
ATOM     29  H   UNL     1       6.999 -12.674   0.910  0.00  0.00    +0.000 HD
ENDBRANCH  22  25
ENDBRANCH  17  19
ENDBRANCH   1  17
TORSDOF 4
