REMARK  Name = 
REMARK  8 active torsions:
REMARK  status: ('A' for Active; 'I' for Inactive)
REMARK    1  A    between atoms: N_1  and  C_2
REMARK    2  A    between atoms: C_2  and  C_3
REMARK    3  A    between atoms: C_2  and  C_14
REMARK    4  A    between atoms: C_3  and  N_4
REMARK    5  A    between atoms: C_5  and  C_7
REMARK    6  A    between atoms: C_17  and  C_18
REMARK    7  A    between atoms: C_18  and  N_19
REMARK    8  A    between atoms: C_20  and  C_22
REMARK                            x       y       z     vdW  Elec       q    Type
REMARK                         _______ _______ _______ _____ _____    ______ ____
ROOT
ATOM      1  C   UNL     1       3.018  -0.180   1.344  0.00  0.00    +0.000 A 
ATOM      2  C   UNL     1       3.292   0.944   2.155  0.00  0.00    +0.000 A 
ATOM      3  C   UNL     1       3.698   0.811   3.486  0.00  0.00    +0.000 A 
ATOM      4  C   UNL     1       3.835  -0.455   4.058  0.00  0.00    +0.000 A 
ATOM      5  C   UNL     1       3.518  -1.574   3.282  0.00  0.00    +0.000 A 
ATOM      6  C   UNL     1       3.115  -1.442   1.951  0.00  0.00    +0.000 A 
ENDROOT
BRANCH   1   7
ATOM      7  C   UNL     1       2.559  -0.019  -0.107  0.00  0.00    +0.000 C 
BRANCH   7   8
ATOM      8  N   UNL     1       2.923  -1.155  -0.972  0.00  0.00    +0.000 NA
ATOM      9  H   UNL     1       2.622  -2.033  -0.565  0.00  0.00    +0.000 HD
ATOM     10  H   UNL     1       3.937  -1.188  -1.069  0.00  0.00    +0.000 HD
ENDBRANCH   7   8
BRANCH   7  11
ATOM     11  C   UNL     1       3.099   1.267  -0.785  0.00  0.00    +0.000 C 
BRANCH  11  12
ATOM     12  N   UNL     1       4.556   1.330  -0.833  0.00  0.00    +0.000 N 
ATOM     13  C   UNL     1       5.169   2.456  -1.328  0.00  0.00    +0.000 C 
ATOM     14  O   UNL     1       4.522   3.390  -1.804  0.00  0.00    +0.000 OA
ATOM     15  H   UNL     1       5.089   0.751  -0.183  0.00  0.00    +0.000 HD
BRANCH  13  16
ATOM     16  C   UNL     1       6.690   2.424  -1.324  0.00  0.00    +0.000 C 
ATOM     17  C   UNL     1       7.270   3.703  -1.937  0.00  0.00    +0.000 C 
ATOM     18  C   UNL     1       7.299   4.835  -0.916  0.00  0.00    +0.000 C 
ATOM     19  C   UNL     1       8.169   4.421   0.256  0.00  0.00    +0.000 C 
ATOM     20  N   UNL     1       7.795   3.129   0.784  0.00  0.00    +0.000 N 
ATOM     21  C   UNL     1       7.254   2.113   0.050  0.00  0.00    +0.000 C 
ATOM     22  O   UNL     1       7.153   0.990   0.547  0.00  0.00    +0.000 OA
ATOM     23  H   UNL     1       8.183   2.836   1.674  0.00  0.00    +0.000 HD
ENDBRANCH  13  16
ENDBRANCH  11  12
ENDBRANCH   7  11
ENDBRANCH   1   7
BRANCH   4  24
ATOM     24  C   UNL     1       4.256  -0.631   5.490  0.00  0.00    +0.000 C 
BRANCH  24  25
ATOM     25  N   UNL     1       3.109  -0.656   6.361  0.00  0.00    +0.000 N 
ATOM     26  C   UNL     1       3.248  -0.767   7.720  0.00  0.00    +0.000 C 
ATOM     27  O   UNL     1       4.347  -0.812   8.265  0.00  0.00    +0.000 OA
ATOM     28  H   UNL     1       2.220  -0.903   5.937  0.00  0.00    +0.000 HD
BRANCH  26  29
ATOM     29  C   UNL     1       2.004  -0.767   8.499  0.00  0.00    +0.000 A 
ATOM     30  C   UNL     1       2.011  -0.324   9.815  0.00  0.00    +0.000 A 
ATOM     31  S   UNL     1       0.476  -0.367  10.558  0.00  0.00    +0.000 S 
ATOM     32  C   UNL     1      -0.243  -1.022   9.161  0.00  0.00    +0.000 A 
ATOM     33  N   UNL     1      -1.565  -1.342   9.139  0.00  0.00    +0.000 NA
ATOM     34  C   UNL     1      -1.971  -1.850   8.023  0.00  0.00    +0.000 A 
ATOM     35  N   UNL     1      -1.177  -2.057   6.924  0.00  0.00    +0.000 N 
ATOM     36  C   UNL     1       0.156  -1.729   6.892  0.00  0.00    +0.000 A 
ATOM     37  O   UNL     1       0.826  -1.886   5.877  0.00  0.00    +0.000 OA
ATOM     38  C   UNL     1       0.668  -1.174   8.131  0.00  0.00    +0.000 A 
ATOM     39  H   UNL     1      -1.560  -2.446   6.075  0.00  0.00    +0.000 HD
ENDBRANCH  26  29
ENDBRANCH  24  25
ENDBRANCH   4  24
TORSDOF 8
