REMARK  Name = 
REMARK  3 active torsions:
REMARK  status: ('A' for Active; 'I' for Inactive)
REMARK    1  A    between atoms: C_8  and  C_9
REMARK    2  A    between atoms: N_11  and  C_12
REMARK    3  A    between atoms: C_12  and  C_13
REMARK                            x       y       z     vdW  Elec       q    Type
REMARK                         _______ _______ _______ _____ _____    ______ ____
ROOT
ATOM      1  C   UNL     1       6.795  -1.915   1.074  0.00  0.00    +0.000 C 
ATOM      2  O   UNL     1       7.287  -2.067   2.190  0.00  0.00    +0.000 OA
ATOM      3  N   UNL     1       7.546  -2.056  -0.063  0.00  0.00    +0.000 N 
ATOM      4  H   UNL     1       7.126  -1.903  -0.975  0.00  0.00    +0.000 HD
ENDROOT
BRANCH   1  12
ATOM      5  N   UNL     1       0.858  -0.762  -0.610  0.00  0.00    +0.000 N 
ATOM      6  C   UNL     1       2.174  -0.973  -0.918  0.00  0.00    +0.000 A 
ATOM      7  N   UNL     1       2.492  -0.995  -2.190  0.00  0.00    +0.000 NA
ATOM      8  N   UNL     1       3.804  -1.223  -2.541  0.00  0.00    +0.000 N 
ATOM      9  C   UNL     1       4.866  -1.460  -1.684  0.00  0.00    +0.000 A 
ATOM     10  O   UNL     1       5.995  -1.685  -2.113  0.00  0.00    +0.000 OA
ATOM     11  C   UNL     1       4.539  -1.413  -0.266  0.00  0.00    +0.000 A 
ATOM     12  C   UNL     1       5.365  -1.595   0.913  0.00  0.00    +0.000 A 
ATOM     13  C   UNL     1       4.583  -1.435   2.053  0.00  0.00    +0.000 A 
ATOM     14  S   UNL     1       2.942  -1.102   1.731  0.00  0.00    +0.000 S 
ATOM     15  C   UNL     1       3.221  -1.166   0.064  0.00  0.00    +0.000 A 
ATOM     16  H   UNL     1       0.321  -0.363  -1.369  0.00  0.00    +0.000 HD
ATOM     17  H   UNL     1       0.662  -0.371   0.304  0.00  0.00    +0.000 HD
ATOM     18  H   UNL     1       3.998  -1.253  -3.534  0.00  0.00    +0.000 HD
ENDBRANCH   1  12
BRANCH   3  19
ATOM     19  C   UNL     1       8.930  -2.461  -0.031  0.00  0.00    +0.000 C 
BRANCH  19  20
ATOM     20  C   UNL     1       9.870  -1.294  -0.003  0.00  0.00    +0.000 A 
ATOM     21  C   UNL     1      10.339  -0.751   1.194  0.00  0.00    +0.000 A 
ATOM     22  C   UNL     1      11.241   0.313   1.168  0.00  0.00    +0.000 A 
ATOM     23  C   UNL     1      11.622   0.851  -0.056  0.00  0.00    +0.000 A 
ATOM     24  N   UNL     1      12.489   1.959  -0.071  0.00  0.00    +0.000 N 
ATOM     25  C   UNL     1      12.615   2.844  -1.156  0.00  0.00    +0.000 A 
ATOM     26  C   UNL     1      11.488   3.296  -1.836  0.00  0.00    +0.000 A 
ATOM     27  C   UNL     1      11.630   4.169  -2.907  0.00  0.00    +0.000 A 
ATOM     28  C   UNL     1      12.903   4.570  -3.242  0.00  0.00    +0.000 A 
ATOM     29  N   UNL     1      13.990   4.162  -2.559  0.00  0.00    +0.000 NA
ATOM     30  N   UNL     1      13.839   3.300  -1.499  0.00  0.00    +0.000 NA
ATOM     31  N   UNL     1      11.157   0.349  -1.221  0.00  0.00    +0.000 NA
ATOM     32  C   UNL     1      10.310  -0.701  -1.175  0.00  0.00    +0.000 A 
ATOM     33  H   UNL     1      13.412   1.719   0.274  0.00  0.00    +0.000 HD
ENDBRANCH  19  20
ENDBRANCH   3  19
TORSDOF 3
