REMARK  Name = 
REMARK  9 active torsions:
REMARK  status: ('A' for Active; 'I' for Inactive)
REMARK    1  A    between atoms: C_1  and  O_2
REMARK    2  A    between atoms: O_2  and  C_3
REMARK    3  A    between atoms: C_10  and  C_11
REMARK    4  A    between atoms: N_13  and  C_14
REMARK    5  A    between atoms: C_14  and  C_15
REMARK    6  A    between atoms: C_18  and  C_19
REMARK    7  A    between atoms: C_19  and  N_20
REMARK    8  A    between atoms: N_20  and  C_21
REMARK    9  A    between atoms: C_21  and  C_22
REMARK                            x       y       z     vdW  Elec       q    Type
REMARK                         _______ _______ _______ _____ _____    ______ ____
ROOT
ATOM      1  C   UNL     1       4.663   3.299   3.140  0.00  0.00    +0.000 C 
ENDROOT
BRANCH   1   2
ATOM      2  C   UNL     1       5.587   4.065   4.051  0.00  0.00    +0.000 A 
ATOM      3  C   UNL     1       5.487   5.459   4.150  0.00  0.00    +0.000 A 
ATOM      4  C   UNL     1       6.384   6.185   4.938  0.00  0.00    +0.000 A 
ATOM      5  C   UNL     1       7.397   5.535   5.655  0.00  0.00    +0.000 A 
ATOM      6  C   UNL     1       7.489   4.140   5.568  0.00  0.00    +0.000 A 
ATOM      7  C   UNL     1       6.597   3.413   4.769  0.00  0.00    +0.000 A 
BRANCH   5   8
ATOM      8  C   UNL     1       8.387   6.335   6.475  0.00  0.00    +0.000 C 
BRANCH   8   9
ATOM      9  N   UNL     1       7.702   7.137   7.486  0.00  0.00    +0.000 NA
ATOM     10  H   UNL     1       7.189   6.514   8.108  0.00  0.00    +0.000 HD
BRANCH   9  11
ATOM     11  C   UNL     1       8.638   7.938   8.271  0.00  0.00    +0.000 C 
BRANCH  11  12
ATOM     12  C   UNL     1       7.900   8.723   9.329  0.00  0.00    +0.000 A 
ATOM     13  C   UNL     1       8.163   8.531  10.688  0.00  0.00    +0.000 A 
ATOM     14  C   UNL     1       7.437   9.263  11.615  0.00  0.00    +0.000 A 
ATOM     15  N   UNL     1       6.484  10.162  11.288  0.00  0.00    +0.000 NA
ATOM     16  C   UNL     1       6.247  10.336   9.971  0.00  0.00    +0.000 A 
ATOM     17  C   UNL     1       6.922   9.656   8.970  0.00  0.00    +0.000 A 
ENDBRANCH  11  12
ENDBRANCH   9  11
ENDBRANCH   8   9
ENDBRANCH   5   8
ENDBRANCH   1   2
BRANCH   1  20
ATOM     18  C   UNL     1       4.553   2.512   0.818  0.00  0.00    +0.000 C 
ATOM     19  O   UNL     1       3.498   1.919   1.029  0.00  0.00    +0.000 OA
ATOM     20  N   UNL     1       5.235   3.149   1.823  0.00  0.00    +0.000 N 
ATOM     21  H   UNL     1       6.022   3.740   1.583  0.00  0.00    +0.000 HD
BRANCH  18  29
ATOM     22  C   UNL     1       6.571   4.752  -0.710  0.00  0.00    +0.000 A 
ATOM     23  N   UNL     1       7.365   5.509  -1.505  0.00  0.00    +0.000 NA
ATOM     24  C   UNL     1       7.655   5.089  -2.745  0.00  0.00    +0.000 A 
ATOM     25  C   UNL     1       7.195   3.908  -3.283  0.00  0.00    +0.000 A 
ATOM     26  C   UNL     1       6.377   3.125  -2.457  0.00  0.00    +0.000 A 
ATOM     27  S   UNL     1       5.661   1.628  -2.891  0.00  0.00    +0.000 S 
ATOM     28  C   UNL     1       4.885   1.489  -1.391  0.00  0.00    +0.000 A 
ATOM     29  C   UNL     1       5.169   2.525  -0.517  0.00  0.00    +0.000 A 
ATOM     30  C   UNL     1       6.047   3.513  -1.149  0.00  0.00    +0.000 A 
BRANCH  22  32
ATOM     31  C   UNL     1       6.522   6.601   0.718  0.00  0.00    +0.000 C 
ATOM     32  O   UNL     1       6.315   5.201   0.568  0.00  0.00    +0.000 OA
ENDBRANCH  22  32
ENDBRANCH  18  29
ENDBRANCH   1  20
TORSDOF 8
