REMARK  Name = 
REMARK  5 active torsions:
REMARK  status: ('A' for Active; 'I' for Inactive)
REMARK    1  A    between atoms: N_1  and  C_2
REMARK    2  A    between atoms: C_2  and  C_3
REMARK    3  A    between atoms: C_7  and  C_8
REMARK    4  A    between atoms: C_8  and  C_9
REMARK    5  A    between atoms: C_9  and  C_10
REMARK                            x       y       z     vdW  Elec       q    Type
REMARK                         _______ _______ _______ _____ _____    ______ ____
ROOT
ATOM      1  C   UNL     1       3.508   1.222   0.406  0.00  0.00    +0.000 A 
ATOM      2  C   UNL     1       3.818   1.136   1.760  0.00  0.00    +0.000 A 
ATOM      3  C   UNL     1       3.632   2.258   2.550  0.00  0.00    +0.000 A 
ATOM      4  N   UNL     1       3.149   3.437   2.092  0.00  0.00    +0.000 NA
ATOM      5  C   UNL     1       2.840   3.521   0.776  0.00  0.00    +0.000 A 
ATOM      6  C   UNL     1       3.031   2.442  -0.087  0.00  0.00    +0.000 A 
ENDROOT
BRANCH   1   7
ATOM      7  C   UNL     1       3.642   0.040  -0.515  0.00  0.00    +0.000 C 
BRANCH   7   8
ATOM      8  N   UNL     1       4.540   0.324  -1.626  0.00  0.00    +0.000 NA
ATOM      9  H   UNL     1       4.636  -0.511  -2.201  0.00  0.00    +0.000 HD
ATOM     10  H   UNL     1       5.467   0.527  -1.256  0.00  0.00    +0.000 HD
ENDBRANCH   7   8
ENDBRANCH   1   7
BRANCH   5  11
ATOM     11  C   UNL     1       2.310   4.853   0.291  0.00  0.00    +0.000 C 
BRANCH  11  12
ATOM     12  C   UNL     1       1.317   4.741  -0.872  0.00  0.00    +0.000 C 
BRANCH  12  13
ATOM     13  C   UNL     1       0.727   6.057  -1.305  0.00  0.00    +0.000 A 
ATOM     14  C   UNL     1       1.361   6.837  -2.277  0.00  0.00    +0.000 A 
ATOM     15  C   UNL     1       0.746   8.006  -2.695  0.00  0.00    +0.000 A 
ATOM     16  N   UNL     1      -0.433   8.450  -2.211  0.00  0.00    +0.000 NA
ATOM     17  C   UNL     1      -1.020   7.690  -1.261  0.00  0.00    +0.000 A 
ATOM     18  C   UNL     1      -0.485   6.506  -0.778  0.00  0.00    +0.000 A 
ENDBRANCH  12  13
ENDBRANCH  11  12
ENDBRANCH   5  11
TORSDOF 5
