REMARK  Name = 
REMARK  4 active torsions:
REMARK  status: ('A' for Active; 'I' for Inactive)
REMARK    1  A    between atoms: C_5  and  O_6
REMARK    2  A    between atoms: O_6  and  C_7
REMARK    3  A    between atoms: C_7  and  C_8
REMARK    4  A    between atoms: C_12  and  C_13
REMARK                            x       y       z     vdW  Elec       q    Type
REMARK                         _______ _______ _______ _____ _____    ______ ____
ROOT
ATOM      1  C   UNL     1       3.368  -3.819  -0.038  0.00  0.00    +0.000 A 
ATOM      2  C   UNL     1       2.458  -4.867   0.033  0.00  0.00    +0.000 A 
ATOM      3  N   UNL     1       2.831  -6.163   0.006  0.00  0.00    +0.000 NA
ATOM      4  C   UNL     1       4.167  -6.376  -0.076  0.00  0.00    +0.000 A 
ATOM      5  C   UNL     1       5.113  -5.350  -0.142  0.00  0.00    +0.000 A 
ATOM      6  N   UNL     1       4.710  -4.051  -0.121  0.00  0.00    +0.000 NA
ENDROOT
BRANCH   5   7
ATOM      7  C   UNL     1       6.560  -5.598  -0.216  0.00  0.00    +0.000 A 
ATOM      8  C   UNL     1       7.499  -4.711   0.333  0.00  0.00    +0.000 A 
ATOM      9  C   UNL     1       8.863  -5.003   0.291  0.00  0.00    +0.000 A 
ATOM     10  C   UNL     1       9.266  -6.178  -0.313  0.00  0.00    +0.000 A 
ATOM     11  N   UNL     1       8.412  -7.055  -0.878  0.00  0.00    +0.000 NA
ATOM     12  C   UNL     1       7.094  -6.740  -0.820  0.00  0.00    +0.000 A 
ENDBRANCH   5   7
BRANCH   1  13
ATOM     13  C   UNL     1       2.880  -2.391  -0.029  0.00  0.00    +0.000 C 
BRANCH  13  14
ATOM     14  O   UNL     1       2.738  -1.947   1.321  0.00  0.00    +0.000 OA
BRANCH  14  19
ATOM     15  C   UNL     1       1.553   1.534   0.868  0.00  0.00    +0.000 A 
ATOM     16  C   UNL     1       1.493   1.864   2.212  0.00  0.00    +0.000 A 
ATOM     17  N   UNL     1       1.823   1.011   3.202  0.00  0.00    +0.000 NA
ATOM     18  C   UNL     1       2.229  -0.226   2.824  0.00  0.00    +0.000 A 
ATOM     19  C   UNL     1       2.321  -0.661   1.505  0.00  0.00    +0.000 A 
ATOM     20  C   UNL     1       1.976   0.253   0.511  0.00  0.00    +0.000 A 
ENDBRANCH  14  19
ENDBRANCH  13  14
ENDBRANCH   1  13
TORSDOF 4
