REMARK  Name = 
REMARK  6 active torsions:
REMARK  status: ('A' for Active; 'I' for Inactive)
REMARK    1  A    between atoms: N_1  and  C_2
REMARK    2  A    between atoms: C_2  and  C_3
REMARK    3  A    between atoms: C_7  and  C_8
REMARK    4  A    between atoms: C_8  and  C_9
REMARK    5  A    between atoms: C_9  and  C_10
REMARK    6  A    between atoms: C_10  and  C_11
REMARK                            x       y       z     vdW  Elec       q    Type
REMARK                         _______ _______ _______ _____ _____    ______ ____
ROOT
ATOM      1  C   UNL     1       2.567   0.964   2.708  0.00  0.00    +0.000 A 
ATOM      2  C   UNL     1       3.802   0.563   2.195  0.00  0.00    +0.000 A 
ATOM      3  C   UNL     1       4.571   1.496   1.517  0.00  0.00    +0.000 A 
ATOM      4  N   UNL     1       4.203   2.780   1.323  0.00  0.00    +0.000 NA
ATOM      5  C   UNL     1       3.005   3.166   1.823  0.00  0.00    +0.000 A 
ATOM      6  C   UNL     1       2.165   2.290   2.508  0.00  0.00    +0.000 A 
ENDROOT
BRANCH   1   7
ATOM      7  C   UNL     1       1.698   0.006   3.478  0.00  0.00    +0.000 C 
BRANCH   7   8
ATOM      8  N   UNL     1       0.406  -0.185   2.831  0.00  0.00    +0.000 NA
ATOM      9  H   UNL     1      -0.119  -0.896   3.337  0.00  0.00    +0.000 HD
ATOM     10  H   UNL     1       0.559  -0.555   1.893  0.00  0.00    +0.000 HD
ENDBRANCH   7   8
ENDBRANCH   1   7
BRANCH   5  11
ATOM     11  C   UNL     1       2.595   4.600   1.596  0.00  0.00    +0.000 C 
BRANCH  11  12
ATOM     12  C   UNL     1       1.862   4.772   0.265  0.00  0.00    +0.000 C 
BRANCH  12  13
ATOM     13  C   UNL     1       1.457   6.231   0.036  0.00  0.00    +0.000 C 
BRANCH  13  14
ATOM     14  C   UNL     1       0.764   6.417  -1.292  0.00  0.00    +0.000 A 
ATOM     15  C   UNL     1      -0.625   6.266  -1.401  0.00  0.00    +0.000 A 
ATOM     16  C   UNL     1      -1.259   6.417  -2.636  0.00  0.00    +0.000 A 
ATOM     17  C   UNL     1      -0.512   6.716  -3.773  0.00  0.00    +0.000 A 
ATOM     18  C   UNL     1       0.871   6.862  -3.678  0.00  0.00    +0.000 A 
ATOM     19  C   UNL     1       1.507   6.711  -2.443  0.00  0.00    +0.000 A 
ENDBRANCH  13  14
ENDBRANCH  12  13
ENDBRANCH  11  12
ENDBRANCH   5  11
TORSDOF 6
