REMARK  Name = 
REMARK  6 active torsions:
REMARK  status: ('A' for Active; 'I' for Inactive)
REMARK    1  A    between atoms: C_1  and  C_2
REMARK    2  A    between atoms: N_6  and  C_7
REMARK    3  A    between atoms: C_7  and  C_8
REMARK    4  A    between atoms: C_8  and  C_11
REMARK    5  A    between atoms: C_15  and  O_16
REMARK    6  A    between atoms: O_16  and  C_17
REMARK                            x       y       z     vdW  Elec       q    Type
REMARK                         _______ _______ _______ _____ _____    ______ ____
ROOT
ATOM      1  C   UNL     1       5.284  -1.082  -0.139  0.00  0.00    +0.000 C 
ATOM      2  F   UNL     1       4.194  -1.224  -0.957  0.00  0.00    +0.000 F 
ATOM      3  F   UNL     1       6.026  -0.085  -0.713  0.00  0.00    +0.000 F 
ENDROOT
BRANCH   1   4
ATOM      4  C   UNL     1       6.082  -2.367  -0.029  0.00  0.00    +0.000 A 
ATOM      5  C   UNL     1       7.469  -2.327   0.179  0.00  0.00    +0.000 A 
ATOM      6  C   UNL     1       8.204  -3.510   0.283  0.00  0.00    +0.000 A 
ATOM      7  C   UNL     1       7.568  -4.750   0.177  0.00  0.00    +0.000 A 
ATOM      8  C   UNL     1       6.193  -4.804  -0.037  0.00  0.00    +0.000 A 
ATOM      9  C   UNL     1       5.456  -3.619  -0.132  0.00  0.00    +0.000 A 
BRANCH   8  10
ATOM     10  O   UNL     1       5.453  -5.955  -0.128  0.00  0.00    +0.000 OA
BRANCH  10  11
ATOM     11  C   UNL     1       6.102  -7.198  -0.472  0.00  0.00    +0.000 C 
ATOM     12  C   UNL     1       6.596  -7.362  -1.932  0.00  0.00    +0.000 C 
ATOM     13  C   UNL     1       6.003  -8.781  -1.934  0.00  0.00    +0.000 C 
ATOM     14  C   UNL     1       5.110  -8.356  -0.760  0.00  0.00    +0.000 C 
ENDBRANCH  10  11
ENDBRANCH   8  10
ENDBRANCH   1   4
BRANCH   1  15
ATOM     15  C   UNL     1       4.779  -0.599   1.246  0.00  0.00    +0.000 C 
BRANCH  15  21
ATOM     16  C   UNL     1       2.113   3.026   5.845  0.00  0.00    +0.000 C 
ATOM     17  C   UNL     1       2.635   2.366   4.617  0.00  0.00    +0.000 A 
ATOM     18  C   UNL     1       3.688   1.479   4.628  0.00  0.00    +0.000 A 
ATOM     19  N   UNL     1       4.188   0.894   3.521  0.00  0.00    +0.000 NA
ATOM     20  C   UNL     1       3.619   1.217   2.352  0.00  0.00    +0.000 A 
ATOM     21  N   UNL     1       4.120   0.709   1.170  0.00  0.00    +0.000 N 
ATOM     22  N   UNL     1       2.572   2.044   2.235  0.00  0.00    +0.000 NA
ATOM     23  C   UNL     1       2.108   2.608   3.370  0.00  0.00    +0.000 A 
ATOM     24  H   UNL     1       3.411   0.815   0.452  0.00  0.00    +0.000 HD
ENDBRANCH  15  21
ENDBRANCH   1  15
TORSDOF 5
