REMARK  Name = 
REMARK  8 active torsions:
REMARK  status: ('A' for Active; 'I' for Inactive)
REMARK    1  A    between atoms: C_2  and  C_4
REMARK    2  A    between atoms: N_8  and  C_9
REMARK    3  A    between atoms: C_9  and  C_10
REMARK    4  A    between atoms: C_10  and  C_11
REMARK    5  A    between atoms: C_10  and  C_13
REMARK    6  A    between atoms: C_11  and  O_12
REMARK    7  A    between atoms: C_15  and  C_16
REMARK    8  A    between atoms: C_19  and  C_20
REMARK                            x       y       z     vdW  Elec       q    Type
REMARK                         _______ _______ _______ _____ _____    ______ ____
ROOT
ATOM      1  C   UNL     1       6.648  -4.924   4.742  0.00  0.00    +0.000 C 
ENDROOT
BRANCH   1   2
ATOM      2  C   UNL     1       6.398  -6.402   5.032  0.00  0.00    +0.000 A 
ATOM      3  C   UNL     1       5.259  -6.821   5.722  0.00  0.00    +0.000 A 
ATOM      4  C   UNL     1       5.049  -8.184   5.995  0.00  0.00    +0.000 A 
ATOM      5  C   UNL     1       6.036  -9.072   5.560  0.00  0.00    +0.000 A 
ATOM      6  C   UNL     1       7.150  -8.580   4.900  0.00  0.00    +0.000 A 
ATOM      7  N   UNL     1       7.345  -7.271   4.627  0.00  0.00    +0.000 NA
BRANCH   4   8
ATOM      8  C   UNL     1       3.841  -8.639   6.722  0.00  0.00    +0.000 A 
ATOM      9  C   UNL     1       2.605  -7.982   6.585  0.00  0.00    +0.000 A 
ATOM     10  C   UNL     1       1.468  -8.391   7.292  0.00  0.00    +0.000 A 
ATOM     11  C   UNL     1       1.525  -9.490   8.154  0.00  0.00    +0.000 A 
ATOM     12  C   UNL     1       2.743 -10.167   8.293  0.00  0.00    +0.000 A 
ATOM     13  C   UNL     1       3.882  -9.745   7.593  0.00  0.00    +0.000 A 
BRANCH  11  14
ATOM     14  C   UNL     1       0.313  -9.951   8.923  0.00  0.00    +0.000 C 
ATOM     15  F   UNL     1      -0.785  -9.169   8.729  0.00  0.00    +0.000 F 
ATOM     16  F   UNL     1      -0.064 -11.215   8.587  0.00  0.00    +0.000 F 
ATOM     17  F   UNL     1       0.526  -9.968  10.269  0.00  0.00    +0.000 F 
ENDBRANCH  11  14
ENDBRANCH   4   8
ENDBRANCH   1   2
BRANCH   1  18
ATOM     18  C   UNL     1       5.530  -4.389   3.820  0.00  0.00    +0.000 C 
BRANCH  18  23
ATOM     19  C   UNL     1       3.266  -0.794   0.964  0.00  0.00    +0.000 A 
ATOM     20  C   UNL     1       3.242  -2.178   0.817  0.00  0.00    +0.000 A 
ATOM     21  C   UNL     1       4.062  -2.965   1.630  0.00  0.00    +0.000 A 
ATOM     22  C   UNL     1       4.878  -2.358   2.580  0.00  0.00    +0.000 A 
ATOM     23  N   UNL     1       5.796  -3.037   3.355  0.00  0.00    +0.000 N 
ATOM     24  N   UNL     1       4.885  -1.022   2.751  0.00  0.00    +0.000 NA
ATOM     25  C   UNL     1       4.102  -0.268   1.935  0.00  0.00    +0.000 A 
ATOM     26  H   UNL     1       6.154  -2.363   4.029  0.00  0.00    +0.000 HD
BRANCH  19  28
ATOM     27  N   UNL     1       1.357  -0.349  -0.477  0.00  0.00    +0.000 N 
ATOM     28  C   UNL     1       2.499   0.130   0.103  0.00  0.00    +0.000 C 
ATOM     29  O   UNL     1       2.854   1.288  -0.068  0.00  0.00    +0.000 OA
ATOM     30  H   UNL     1       0.803   0.321  -0.997  0.00  0.00    +0.000 HD
ATOM     31  H   UNL     1       0.906  -1.203  -0.184  0.00  0.00    +0.000 HD
ENDBRANCH  19  28
ENDBRANCH  18  23
ENDBRANCH   1  18
BRANCH   1  32
ATOM     32  C   UNL     1       6.769  -4.126   6.049  0.00  0.00    +0.000 C 
BRANCH  32  33
ATOM     33  O   UNL     1       7.847  -4.572   6.872  0.00  0.00    +0.000 OA
ATOM     34  H   UNL     1       7.771  -5.537   6.983  0.00  0.00    +0.000 HD
ENDBRANCH  32  33
ENDBRANCH   1  32
TORSDOF 8
