REMARK  Name = 
REMARK  4 active torsions:
REMARK  status: ('A' for Active; 'I' for Inactive)
REMARK    1  A    between atoms: C_2  and  C_4
REMARK    2  A    between atoms: C_7  and  S_8
REMARK    3  A    between atoms: S_8  and  C_9
REMARK    4  A    between atoms: C_9  and  C_10
REMARK                            x       y       z     vdW  Elec       q    Type
REMARK                         _______ _______ _______ _____ _____    ______ ____
ROOT
ATOM      1  C   UNL     1       3.789   0.567  -0.981  0.00  0.00    +0.000 A 
ATOM      2  C   UNL     1       5.127   0.516  -1.292  0.00  0.00    +0.000 A 
ATOM      3  N   UNL     1       5.635   0.874  -2.494  0.00  0.00    +0.000 NA
ATOM      4  C   UNL     1       4.750   1.287  -3.421  0.00  0.00    +0.000 A 
ATOM      5  N   UNL     1       3.420   1.343  -3.229  0.00  0.00    +0.000 NA
ATOM      6  C   UNL     1       2.963   0.968  -2.008  0.00  0.00    +0.000 A 
ENDROOT
BRANCH   1   8
ATOM      7  N   UNL     1       4.063   0.368   1.422  0.00  0.00    +0.000 N 
ATOM      8  C   UNL     1       3.247   0.205   0.336  0.00  0.00    +0.000 C 
ATOM      9  O   UNL     1       2.098  -0.195   0.458  0.00  0.00    +0.000 OA
ATOM     10  H   UNL     1       3.641   0.206   2.329  0.00  0.00    +0.000 HD
ATOM     11  H   UNL     1       4.907   0.925   1.408  0.00  0.00    +0.000 HD
ENDBRANCH   1   8
BRANCH   4  12
ATOM     12  S   UNL     1       5.364   1.877  -4.980  0.00  0.00    +0.000 S 
BRANCH  12  13
ATOM     13  C   UNL     1       6.909   0.927  -5.083  0.00  0.00    +0.000 C 
BRANCH  13  14
ATOM     14  C   UNL     1       7.712   1.277  -6.316  0.00  0.00    +0.000 A 
ATOM     15  C   UNL     1       8.685   2.288  -6.272  0.00  0.00    +0.000 A 
ATOM     16  C   UNL     1       9.454   2.588  -7.400  0.00  0.00    +0.000 A 
ATOM     17  C   UNL     1       9.250   1.882  -8.585  0.00  0.00    +0.000 A 
ATOM     18  I   UNL     1      10.420   2.298 -10.252  0.00  0.00    +0.000 I 
ATOM     19  C   UNL     1       8.272   0.892  -8.654  0.00  0.00    +0.000 A 
ATOM     20  C   UNL     1       7.503   0.596  -7.524  0.00  0.00    +0.000 A 
ENDBRANCH  13  14
ENDBRANCH  12  13
ENDBRANCH   4  12
TORSDOF 4
