REMARK  Name = 
REMARK  6 active torsions:
REMARK  status: ('A' for Active; 'I' for Inactive)
REMARK    1  A    between atoms: C_2  and  C_3
REMARK    2  A    between atoms: C_6  and  C_7
REMARK    3  A    between atoms: C_7  and  C_8
REMARK    4  A    between atoms: C_11  and  O_12
REMARK    5  A    between atoms: O_12  and  C_13
REMARK    6  A    between atoms: C_21  and  N_22
REMARK                            x       y       z     vdW  Elec       q    Type
REMARK                         _______ _______ _______ _____ _____    ______ ____
ROOT
ATOM      1  C   UNL     1       7.961   0.149   0.022  0.00  0.00    +0.000 C 
ATOM      2  C   UNL     1       8.856  -0.416  -1.074  0.00  0.00    +0.000 C 
ATOM      3  C   UNL     1       8.891  -1.033   0.286  0.00  0.00    +0.000 C 
ENDROOT
BRANCH   1   7
ATOM      4  C   UNL     1       3.753  -0.638  -0.263  0.00  0.00    +0.000 A 
ATOM      5  N   UNL     1       4.361   0.026  -1.281  0.00  0.00    +0.000 NA
ATOM      6  C   UNL     1       5.687   0.265  -1.148  0.00  0.00    +0.000 A 
ATOM      7  C   UNL     1       6.464  -0.129  -0.060  0.00  0.00    +0.000 A 
ATOM      8  C   UNL     1       5.777  -0.775   0.981  0.00  0.00    +0.000 A 
ATOM      9  C   UNL     1       4.396  -1.020   0.922  0.00  0.00    +0.000 A 
BRANCH   9  10
ATOM     10  N   UNL     1       3.828  -1.827   1.916  0.00  0.00    +0.000 N 
ATOM     11  H   UNL     1       4.289  -1.791   2.819  0.00  0.00    +0.000 HD
ATOM     12  H   UNL     1       2.811  -1.767   2.007  0.00  0.00    +0.000 HD
ENDBRANCH   9  10
BRANCH   4  14
ATOM     13  N   UNL     1       1.221  -1.133  -0.591  0.00  0.00    +0.000 NA
ATOM     14  C   UNL     1       2.353  -0.906  -0.472  0.00  0.00    +0.000 C 
ENDBRANCH   4  14
ENDBRANCH   1   7
BRANCH   1  15
ATOM     15  C   UNL     1       8.292   1.523   0.602  0.00  0.00    +0.000 A 
ATOM     16  C   UNL     1       8.527   1.688   1.968  0.00  0.00    +0.000 A 
ATOM     17  C   UNL     1       8.578   2.970   2.512  0.00  0.00    +0.000 A 
ATOM     18  C   UNL     1       8.412   4.077   1.690  0.00  0.00    +0.000 A 
ATOM     19  C   UNL     1       8.228   3.841   0.337  0.00  0.00    +0.000 A 
ATOM     20  N   UNL     1       8.186   2.604  -0.217  0.00  0.00    +0.000 NA
BRANCH  18  21
ATOM     21  O   UNL     1       8.402   5.280   2.328  0.00  0.00    +0.000 OA
BRANCH  21  22
ATOM     22  C   UNL     1       8.693   6.411   1.526  0.00  0.00    +0.000 C 
ATOM     23  F   UNL     1       7.583   6.761   0.833  0.00  0.00    +0.000 F 
ATOM     24  F   UNL     1       8.971   7.436   2.369  0.00  0.00    +0.000 F 
ENDBRANCH  21  22
ENDBRANCH  18  21
ENDBRANCH   1  15
TORSDOF 6
