REMARK  Name = 
REMARK  7 active torsions:
REMARK  status: ('A' for Active; 'I' for Inactive)
REMARK    1  A    between atoms: C_1  and  C_2
REMARK    2  A    between atoms: C_2  and  C_3
REMARK    3  A    between atoms: C_2  and  C_14
REMARK    4  A    between atoms: C_3  and  S_4
REMARK    5  A    between atoms: S_4  and  C_5
REMARK    6  A    between atoms: C_8  and  C_9
REMARK    7  A    between atoms: C_18  and  C_19
REMARK                            x       y       z     vdW  Elec       q    Type
REMARK                         _______ _______ _______ _____ _____    ______ ____
ROOT
ATOM      1  S   UNL     1       2.408   2.789  -0.494  0.00  0.00    +0.000 S 
ENDROOT
BRANCH   1   2
ATOM      2  C   UNL     1       3.148   4.216   0.267  0.00  0.00    +0.000 A 
ATOM      3  C   UNL     1       2.936   5.437  -0.365  0.00  0.00    +0.000 A 
ATOM      4  C   UNL     1       3.521   6.587   0.161  0.00  0.00    +0.000 A 
ATOM      5  C   UNL     1       4.306   6.499   1.310  0.00  0.00    +0.000 A 
ATOM      6  C   UNL     1       4.450   5.239   1.881  0.00  0.00    +0.000 A 
ATOM      7  N   UNL     1       3.891   4.095   1.389  0.00  0.00    +0.000 NA
BRANCH   5   8
ATOM      8  C   UNL     1       4.933   7.739   1.829  0.00  0.00    +0.000 C 
ATOM      9  N   UNL     1       5.711   7.680   2.951  0.00  0.00    +0.000 N 
ATOM     10  O   UNL     1       4.767   8.816   1.265  0.00  0.00    +0.000 OA
ATOM     11  H   UNL     1       5.925   6.856   3.487  0.00  0.00    +0.000 HD
ATOM     12  H   UNL     1       6.122   8.555   3.252  0.00  0.00    +0.000 HD
ENDBRANCH   5   8
ENDBRANCH   1   2
BRANCH   1  13
ATOM     13  C   UNL     1       2.900   1.406   0.601  0.00  0.00    +0.000 C 
BRANCH  13  15
ATOM     14  C   UNL     1       3.004  -0.314  -1.290  0.00  0.00    +0.000 C 
ATOM     15  C   UNL     1       2.403   0.028   0.086  0.00  0.00    +0.000 C 
BRANCH  15  16
ATOM     16  C   UNL     1       0.883  -0.090   0.027  0.00  0.00    +0.000 A 
ATOM     17  C   UNL     1       0.128  -0.469   1.133  0.00  0.00    +0.000 A 
ATOM     18  C   UNL     1      -1.264  -0.526   1.011  0.00  0.00    +0.000 A 
ATOM     19  C   UNL     1      -1.866  -0.205  -0.204  0.00  0.00    +0.000 A 
ATOM     20  C   UNL     1      -1.046   0.152  -1.261  0.00  0.00    +0.000 A 
ATOM     21  N   UNL     1       0.299   0.205  -1.163  0.00  0.00    +0.000 NA
BRANCH  20  22
ATOM     22  C   UNL     1      -1.593   0.502  -2.544  0.00  0.00    +0.000 C 
ATOM     23  N   UNL     1      -2.077   0.770  -3.562  0.00  0.00    +0.000 NA
ENDBRANCH  20  22
ENDBRANCH  15  16
ENDBRANCH  13  15
ENDBRANCH   1  13
TORSDOF 6
