REMARK  Name = 
REMARK  6 active torsions:
REMARK  status: ('A' for Active; 'I' for Inactive)
REMARK    1  A    between atoms: C_2  and  C_25
REMARK    2  A    between atoms: N_3  and  C_4
REMARK    3  A    between atoms: C_4  and  C_5
REMARK    4  A    between atoms: C_8  and  C_9
REMARK    5  A    between atoms: C_9  and  N_10
REMARK    6  A    between atoms: C_11  and  C_13
REMARK                            x       y       z     vdW  Elec       q    Type
REMARK                         _______ _______ _______ _____ _____    ______ ____
ROOT
ATOM      1  C   UNL     1       3.323   0.440   3.670  0.00  0.00    +0.000 C 
ATOM      2  C   UNL     1       3.144  -0.746   4.633  0.00  0.00    +0.000 C 
ATOM      3  C   UNL     1       3.958  -0.576   5.913  0.00  0.00    +0.000 C 
ATOM      4  C   UNL     1       3.622   0.727   6.657  0.00  0.00    +0.000 C 
ATOM      5  C   UNL     1       3.797   1.923   5.707  0.00  0.00    +0.000 C 
ATOM      6  C   UNL     1       3.019   1.764   4.397  0.00  0.00    +0.000 C 
ENDROOT
BRANCH   1   7
ATOM      7  C   UNL     1       4.731   0.483   3.043  0.00  0.00    +0.000 C 
BRANCH   7  10
ATOM      8  O   UNL     1       4.053   0.107   0.322  0.00  0.00    +0.000 OA
ATOM      9  C   UNL     1       4.662  -0.779   0.914  0.00  0.00    +0.000 C 
ATOM     10  N   UNL     1       5.028  -0.680   2.235  0.00  0.00    +0.000 N 
ATOM     11  H   UNL     1       5.638  -1.385   2.622  0.00  0.00    +0.000 HD
BRANCH   9  12
ATOM     12  C   UNL     1       5.079  -2.003   0.263  0.00  0.00    +0.000 A 
ATOM     13  C   UNL     1       5.621  -3.179   0.760  0.00  0.00    +0.000 A 
ATOM     14  C   UNL     1       5.851  -4.053  -0.329  0.00  0.00    +0.000 A 
ATOM     15  C   UNL     1       5.436  -3.404  -1.468  0.00  0.00    +0.000 A 
ATOM     16  N   UNL     1       4.957  -2.174  -1.101  0.00  0.00    +0.000 N 
ATOM     17  H   UNL     1       4.574  -1.472  -1.722  0.00  0.00    +0.000 HD
ENDBRANCH   9  12
ENDBRANCH   7  10
ENDBRANCH   1   7
BRANCH   4  18
ATOM     18  C   UNL     1       2.213   0.705   7.278  0.00  0.00    +0.000 C 
BRANCH  18  19
ATOM     19  N   UNL     1       2.067  -0.348   8.265  0.00  0.00    +0.000 N 
ATOM     20  C   UNL     1       2.305  -0.137   9.598  0.00  0.00    +0.000 C 
ATOM     21  O   UNL     1       2.622   0.967  10.039  0.00  0.00    +0.000 OA
ATOM     22  H   UNL     1       1.961  -1.300   7.925  0.00  0.00    +0.000 HD
BRANCH  20  23
ATOM     23  C   UNL     1       2.101  -1.280  10.495  0.00  0.00    +0.000 A 
ATOM     24  C   UNL     1       1.766  -1.049  11.822  0.00  0.00    +0.000 A 
ATOM     25  S   UNL     1       1.583  -2.472  12.740  0.00  0.00    +0.000 S 
ATOM     26  C   UNL     1       1.984  -3.450  11.407  0.00  0.00    +0.000 A 
ATOM     27  N   UNL     1       2.057  -4.801  11.529  0.00  0.00    +0.000 NA
ATOM     28  C   UNL     1       2.414  -5.417  10.449  0.00  0.00    +0.000 A 
ATOM     29  N   UNL     1       2.682  -4.801   9.258  0.00  0.00    +0.000 N 
ATOM     30  C   UNL     1       2.532  -3.448   9.063  0.00  0.00    +0.000 A 
ATOM     31  O   UNL     1       2.616  -2.953   7.947  0.00  0.00    +0.000 OA
ATOM     32  C   UNL     1       2.203  -2.702  10.262  0.00  0.00    +0.000 A 
ATOM     33  H   UNL     1       2.911  -5.345   8.437  0.00  0.00    +0.000 HD
ENDBRANCH  20  23
ENDBRANCH  18  19
ENDBRANCH   4  18
TORSDOF 6
