REMARK  Name = 
REMARK  6 active torsions:
REMARK  status: ('A' for Active; 'I' for Inactive)
REMARK    1  A    between atoms: C_2  and  C_19
REMARK    2  A    between atoms: N_3  and  C_4
REMARK    3  A    between atoms: C_4  and  C_5
REMARK    4  A    between atoms: C_8  and  O_9
REMARK    5  A    between atoms: O_9  and  C_10
REMARK    6  A    between atoms: C_10  and  C_11
REMARK                            x       y       z     vdW  Elec       q    Type
REMARK                         _______ _______ _______ _____ _____    ______ ____
ROOT
ATOM      1  O   UNL     1       1.847   0.926  -3.196  0.00  0.00    +0.000 OA
ATOM      2  C   UNL     1       1.010   0.028  -3.226  0.00  0.00    +0.000 C 
ATOM      3  N   UNL     1       1.198  -1.168  -2.589  0.00  0.00    +0.000 N 
ATOM      4  H   UNL     1       0.623  -1.965  -2.846  0.00  0.00    +0.000 HD
ENDROOT
BRANCH   2   5
ATOM      5  C   UNL     1      -0.283   0.207  -3.898  0.00  0.00    +0.000 A 
ATOM      6  C   UNL     1      -0.786   1.485  -4.092  0.00  0.00    +0.000 A 
ATOM      7  S   UNL     1      -2.312   1.510  -4.852  0.00  0.00    +0.000 S 
ATOM      8  C   UNL     1      -2.332  -0.186  -4.990  0.00  0.00    +0.000 A 
ATOM      9  N   UNL     1      -3.374  -0.828  -5.584  0.00  0.00    +0.000 NA
ATOM     10  C   UNL     1      -3.241  -2.111  -5.654  0.00  0.00    +0.000 A 
ATOM     11  N   UNL     1      -2.163  -2.811  -5.178  0.00  0.00    +0.000 N 
ATOM     12  C   UNL     1      -1.115  -2.211  -4.523  0.00  0.00    +0.000 A 
ATOM     13  O   UNL     1      -0.211  -2.874  -4.028  0.00  0.00    +0.000 OA
ATOM     14  C   UNL     1      -1.200  -0.765  -4.444  0.00  0.00    +0.000 A 
ATOM     15  H   UNL     1      -2.126  -3.817  -5.245  0.00  0.00    +0.000 HD
ENDBRANCH   2   5
BRANCH   3  16
ATOM     16  C   UNL     1       2.447  -1.502  -1.948  0.00  0.00    +0.000 C 
BRANCH  16  17
ATOM     17  C   UNL     1       3.345  -2.281  -2.875  0.00  0.00    +0.000 A 
ATOM     18  C   UNL     1       4.267  -1.629  -3.690  0.00  0.00    +0.000 A 
ATOM     19  C   UNL     1       5.085  -2.391  -4.524  0.00  0.00    +0.000 A 
ATOM     20  C   UNL     1       4.961  -3.776  -4.530  0.00  0.00    +0.000 A 
ATOM     21  C   UNL     1       3.965  -4.333  -3.738  0.00  0.00    +0.000 A 
ATOM     22  N   UNL     1       3.169  -3.626  -2.907  0.00  0.00    +0.000 NA
BRANCH  20  23
ATOM     23  O   UNL     1       5.840  -4.466  -5.316  0.00  0.00    +0.000 OA
BRANCH  23  24
ATOM     24  C   UNL     1       6.030  -5.832  -4.936  0.00  0.00    +0.000 C 
BRANCH  24  25
ATOM     25  C   UNL     1       7.328  -6.336  -5.505  0.00  0.00    +0.000 A 
ATOM     26  C   UNL     1       8.372  -6.727  -4.661  0.00  0.00    +0.000 A 
ATOM     27  C   UNL     1       9.540  -7.208  -5.225  0.00  0.00    +0.000 A 
ATOM     28  N   UNL     1       9.737  -7.325  -6.556  0.00  0.00    +0.000 NA
ATOM     29  C   UNL     1       8.720  -6.935  -7.354  0.00  0.00    +0.000 A 
ATOM     30  C   UNL     1       7.513  -6.441  -6.886  0.00  0.00    +0.000 A 
ENDBRANCH  24  25
ENDBRANCH  23  24
ENDBRANCH  20  23
ENDBRANCH  16  17
ENDBRANCH   3  16
TORSDOF 6
