REMARK  Name = 
REMARK  9 active torsions:
REMARK  status: ('A' for Active; 'I' for Inactive)
REMARK    1  A    between atoms: C_1  and  O_2
REMARK    2  A    between atoms: O_2  and  C_3
REMARK    3  A    between atoms: C_3  and  C_4
REMARK    4  A    between atoms: C_4  and  N_5
REMARK    5  A    between atoms: N_5  and  C_6
REMARK    6  A    between atoms: C_6  and  C_7
REMARK    7  A    between atoms: C_10  and  C_11
REMARK    8  A    between atoms: C_11  and  C_12
REMARK    9  A    between atoms: C_20  and  C_22
REMARK                            x       y       z     vdW  Elec       q    Type
REMARK                         _______ _______ _______ _____ _____    ______ ____
ROOT
ATOM      1  N   UNL     1      -4.366   2.300   5.042  0.00  0.00    +0.000 N 
ATOM      2  C   UNL     1      -4.872   2.714   6.304  0.00  0.00    +0.000 C 
ATOM      3  O   UNL     1      -4.234   2.510   7.339  0.00  0.00    +0.000 OA
ENDROOT
BRANCH   2   4
ATOM      4  C   UNL     1      -6.216   3.340   6.443  0.00  0.00    +0.000 A 
ATOM      5  C   UNL     1      -7.389   2.935   5.824  0.00  0.00    +0.000 A 
ATOM      6  S   UNL     1      -8.780   3.799   6.308  0.00  0.00    +0.000 S 
ATOM      7  C   UNL     1      -7.897   4.650   7.479  0.00  0.00    +0.000 A 
ATOM      8  N   UNL     1      -8.529   5.475   8.356  0.00  0.00    +0.000 NA
ATOM      9  C   UNL     1      -7.743   5.996   9.240  0.00  0.00    +0.000 A 
ATOM     10  N   UNL     1      -6.386   5.804   9.296  0.00  0.00    +0.000 N 
ATOM     11  C   UNL     1      -5.688   5.098   8.341  0.00  0.00    +0.000 A 
ATOM     12  O   UNL     1      -4.467   5.164   8.274  0.00  0.00    +0.000 OA
ATOM     13  C   UNL     1      -6.543   4.368   7.412  0.00  0.00    +0.000 A 
ATOM     14  H   UNL     1      -5.822   6.308   9.962  0.00  0.00    +0.000 HD
ENDBRANCH   2   4
BRANCH   1  15
ATOM     15  C   UNL     1      -3.060   1.620   5.045  0.00  0.00    +0.000 C 
BRANCH  15  16
ATOM     16  C   UNL     1      -1.972   2.228   4.150  0.00  0.00    +0.000 C 
BRANCH  16  18
ATOM     17  C   UNL     1      -0.756   4.167   3.608  0.00  0.00    +0.000 C 
ATOM     18  O   UNL     1      -1.831   3.632   4.370  0.00  0.00    +0.000 OA
ENDBRANCH  16  18
ENDBRANCH  15  16
ENDBRANCH   1  15
BRANCH   1  19
ATOM     19  C   UNL     1      -5.220   2.272   3.866  0.00  0.00    +0.000 C 
BRANCH  19  20
ATOM     20  C   UNL     1      -4.801   1.812   2.489  0.00  0.00    +0.000 A 
ATOM     21  C   UNL     1      -5.133   0.517   2.052  0.00  0.00    +0.000 A 
ATOM     22  C   UNL     1      -5.160   0.196   0.687  0.00  0.00    +0.000 A 
ATOM     23  C   UNL     1      -4.849   1.163  -0.271  0.00  0.00    +0.000 A 
ATOM     24  C   UNL     1      -4.375   2.409   0.178  0.00  0.00    +0.000 A 
ATOM     25  C   UNL     1      -4.357   2.736   1.539  0.00  0.00    +0.000 A 
BRANCH  23  26
ATOM     26  C   UNL     1      -4.956   0.924  -1.763  0.00  0.00    +0.000 C 
BRANCH  26  27
ATOM     27  C   UNL     1      -6.059  -0.011  -2.332  0.00  0.00    +0.000 C 
ATOM     28  C   UNL     1      -7.489   0.423  -1.955  0.00  0.00    +0.000 C 
ATOM     29  C   UNL     1      -8.553  -0.334  -2.758  0.00  0.00    +0.000 C 
ATOM     30  C   UNL     1      -8.264  -0.323  -4.256  0.00  0.00    +0.000 C 
ATOM     31  N   UNL     1      -6.929  -0.854  -4.523  0.00  0.00    +0.000 NA
ATOM     32  C   UNL     1      -5.908  -0.038  -3.870  0.00  0.00    +0.000 C 
ATOM     33  H   UNL     1      -6.766  -0.854  -5.530  0.00  0.00    +0.000 HD
ENDBRANCH  26  27
ENDBRANCH  23  26
ENDBRANCH  19  20
ENDBRANCH   1  19
TORSDOF 8
