REMARK  Name = 
REMARK  8 active torsions:
REMARK  status: ('A' for Active; 'I' for Inactive)
REMARK    1  A    between atoms: C_2  and  C_20
REMARK    2  A    between atoms: N_3  and  C_4
REMARK    3  A    between atoms: C_4  and  C_5
REMARK    4  A    between atoms: C_8  and  C_9
REMARK    5  A    between atoms: C_9  and  O_10
REMARK    6  A    between atoms: C_9  and  C_11
REMARK    7  A    between atoms: C_11  and  C_12
REMARK    8  A    between atoms: C_12  and  N_13
REMARK                            x       y       z     vdW  Elec       q    Type
REMARK                         _______ _______ _______ _____ _____    ______ ____
ROOT
ATOM      1  C   UNL     1      11.012  -2.502   5.579  0.00  0.00    +0.000 C 
ENDROOT
BRANCH   1   2
ATOM      2  C   UNL     1       9.651  -1.926   5.838  0.00  0.00    +0.000 A 
ATOM      3  C   UNL     1       8.540  -2.751   6.021  0.00  0.00    +0.000 A 
ATOM      4  C   UNL     1       7.306  -2.194   6.346  0.00  0.00    +0.000 A 
ATOM      5  C   UNL     1       7.208  -0.813   6.483  0.00  0.00    +0.000 A 
ATOM      6  N   UNL     1       8.262   0.017   6.255  0.00  0.00    +0.000 NA
ATOM      7  C   UNL     1       9.453  -0.557   5.962  0.00  0.00    +0.000 A 
BRANCH   5   8
ATOM      8  C   UNL     1       5.895  -0.165   6.887  0.00  0.00    +0.000 C 
BRANCH   8   9
ATOM      9  O   UNL     1       5.484   0.729   5.849  0.00  0.00    +0.000 OA
ATOM     10  H   UNL     1       6.314   1.118   5.510  0.00  0.00    +0.000 HD
ENDBRANCH   8   9
BRANCH   8  11
ATOM     11  C   UNL     1       6.062   0.627   8.193  0.00  0.00    +0.000 C 
BRANCH  11  12
ATOM     12  C   UNL     1       4.752   1.312   8.614  0.00  0.00    +0.000 C 
BRANCH  12  13
ATOM     13  N   UNL     1       4.856   2.030   9.898  0.00  0.00    +0.000 NA
ATOM     14  C   UNL     1       3.552   2.591  10.295  0.00  0.00    +0.000 C 
ATOM     15  C   UNL     1       3.523   3.996   9.724  0.00  0.00    +0.000 C 
ATOM     16  C   UNL     1       4.957   4.455   9.867  0.00  0.00    +0.000 C 
ATOM     17  C   UNL     1       5.784   3.175   9.858  0.00  0.00    +0.000 C 
ENDBRANCH  12  13
ENDBRANCH  11  12
ENDBRANCH   8  11
ENDBRANCH   5   8
ENDBRANCH   1   2
BRANCH   1  20
ATOM     18  O   UNL     1      10.855  -4.862   7.125  0.00  0.00    +0.000 OA
ATOM     19  C   UNL     1      11.596  -3.957   7.493  0.00  0.00    +0.000 C 
ATOM     20  N   UNL     1      11.712  -2.774   6.810  0.00  0.00    +0.000 N 
ATOM     21  H   UNL     1      12.390  -2.084   7.113  0.00  0.00    +0.000 HD
BRANCH  19  22
ATOM     22  C   UNL     1      12.391  -4.071   8.723  0.00  0.00    +0.000 A 
ATOM     23  C   UNL     1      12.003  -4.953   9.720  0.00  0.00    +0.000 A 
ATOM     24  S   UNL     1      13.050  -4.968  11.067  0.00  0.00    +0.000 S 
ATOM     25  C   UNL     1      14.081  -3.823  10.346  0.00  0.00    +0.000 A 
ATOM     26  N   UNL     1      15.219  -3.416  10.972  0.00  0.00    +0.000 NA
ATOM     27  C   UNL     1      15.928  -2.575  10.295  0.00  0.00    +0.000 A 
ATOM     28  N   UNL     1      15.596  -2.092   9.055  0.00  0.00    +0.000 N 
ATOM     29  C   UNL     1      14.423  -2.421   8.417  0.00  0.00    +0.000 A 
ATOM     30  O   UNL     1      14.098  -1.876   7.368  0.00  0.00    +0.000 OA
ATOM     31  C   UNL     1      13.616  -3.407   9.113  0.00  0.00    +0.000 A 
ATOM     32  H   UNL     1      16.178  -1.410   8.595  0.00  0.00    +0.000 HD
ENDBRANCH  19  22
ENDBRANCH   1  20
TORSDOF 8
