REMARK  Name = 
REMARK  11 active torsions:
REMARK  status: ('A' for Active; 'I' for Inactive)
REMARK    1  A    between atoms: C_1  and  O_2
REMARK    2  A    between atoms: O_2  and  C_3
REMARK    3  A    between atoms: C_10  and  C_11
REMARK    4  A    between atoms: N_13  and  C_14
REMARK    5  A    between atoms: C_14  and  C_15
REMARK    6  A    between atoms: C_18  and  N_19
REMARK    7  A    between atoms: N_19  and  C_20
REMARK    8  A    between atoms: C_20  and  C_21
REMARK    9  A    between atoms: C_20  and  C_22
REMARK   10  A    between atoms: C_20  and  C_23
REMARK   11  A    between atoms: C_23  and  C_24
REMARK                            x       y       z     vdW  Elec       q    Type
REMARK                         _______ _______ _______ _____ _____    ______ ____
ROOT
ATOM      1  C   UNL     1       1.900  -3.214  -0.400  0.00  0.00    +0.000 A 
ATOM      2  C   UNL     1       1.717  -4.507   0.072  0.00  0.00    +0.000 A 
ATOM      3  C   UNL     1       0.740  -4.775   1.029  0.00  0.00    +0.000 A 
ATOM      4  C   UNL     1      -0.144  -3.803   1.517  0.00  0.00    +0.000 A 
ATOM      5  C   UNL     1       0.056  -2.501   1.033  0.00  0.00    +0.000 A 
ATOM      6  C   UNL     1       1.056  -2.208   0.082  0.00  0.00    +0.000 A 
ENDROOT
BRANCH   4   7
ATOM      7  N   UNL     1      -1.101  -4.030   2.520  0.00  0.00    +0.000 N 
ATOM      8  H   UNL     1      -1.912  -3.422   2.427  0.00  0.00    +0.000 HD
BRANCH   7   9
ATOM      9  C   UNL     1      -1.405  -5.382   3.086  0.00  0.00    +0.000 C 
ATOM     10  C   UNL     1      -1.853  -6.317   1.938  0.00  0.00    +0.000 C 
ATOM     11  C   UNL     1      -0.166  -5.809   3.909  0.00  0.00    +0.000 C 
BRANCH   9  12
ATOM     12  C   UNL     1      -2.612  -5.310   4.102  0.00  0.00    +0.000 C 
BRANCH  12  13
ATOM     13  C   UNL     1      -2.999  -6.661   4.708  0.00  0.00    +0.000 A 
ATOM     14  C   UNL     1      -2.406  -7.124   5.883  0.00  0.00    +0.000 A 
ATOM     15  C   UNL     1      -2.678  -8.421   6.322  0.00  0.00    +0.000 A 
ATOM     16  C   UNL     1      -3.543  -9.224   5.591  0.00  0.00    +0.000 A 
ATOM     17  C   UNL     1      -4.112  -8.687   4.451  0.00  0.00    +0.000 A 
ATOM     18  N   UNL     1      -3.867  -7.431   4.003  0.00  0.00    +0.000 NA
ENDBRANCH  12  13
ENDBRANCH   9  12
ENDBRANCH   7   9
ENDBRANCH   4   7
BRANCH   1  19
ATOM     19  C   UNL     1       2.990  -2.954  -1.401  0.00  0.00    +0.000 C 
BRANCH  19  22
ATOM     20  C   UNL     1       3.353  -3.455  -3.773  0.00  0.00    +0.000 C 
ATOM     21  O   UNL     1       4.534  -3.722  -3.561  0.00  0.00    +0.000 OA
ATOM     22  N   UNL     1       2.512  -3.113  -2.752  0.00  0.00    +0.000 N 
ATOM     23  H   UNL     1       1.564  -2.824  -2.957  0.00  0.00    +0.000 HD
BRANCH  20  31
ATOM     24  C   UNL     1       0.205  -2.929  -5.106  0.00  0.00    +0.000 A 
ATOM     25  N   UNL     1      -0.866  -2.712  -5.897  0.00  0.00    +0.000 NA
ATOM     26  C   UNL     1      -0.713  -2.811  -7.218  0.00  0.00    +0.000 A 
ATOM     27  N   UNL     1       0.403  -3.123  -7.868  0.00  0.00    +0.000 NA
ATOM     28  C   UNL     1       1.455  -3.318  -7.053  0.00  0.00    +0.000 A 
ATOM     29  S   UNL     1       2.960  -3.731  -7.716  0.00  0.00    +0.000 S 
ATOM     30  C   UNL     1       3.678  -3.777  -6.180  0.00  0.00    +0.000 A 
ATOM     31  C   UNL     1       2.807  -3.473  -5.139  0.00  0.00    +0.000 A 
ATOM     32  C   UNL     1       1.467  -3.224  -5.658  0.00  0.00    +0.000 A 
BRANCH  24  34
ATOM     33  C   UNL     1      -1.308  -3.096  -3.337  0.00  0.00    +0.000 C 
ATOM     34  O   UNL     1       0.031  -2.799  -3.742  0.00  0.00    +0.000 OA
ENDBRANCH  24  34
ENDBRANCH  20  31
ENDBRANCH  19  22
ENDBRANCH   1  19
TORSDOF 8
