REMARK  Name = 
REMARK  7 active torsions:
REMARK  status: ('A' for Active; 'I' for Inactive)
REMARK    1  A    between atoms: C_2  and  C_20
REMARK    2  A    between atoms: N_3  and  C_4
REMARK    3  A    between atoms: C_4  and  C_5
REMARK    4  A    between atoms: C_9  and  C_10
REMARK    5  A    between atoms: C_10  and  N_11
REMARK    6  A    between atoms: N_11  and  C_12
REMARK    7  A    between atoms: C_12  and  C_13
REMARK                            x       y       z     vdW  Elec       q    Type
REMARK                         _______ _______ _______ _____ _____    ______ ____
ROOT
ATOM      1  C   UNL     1       8.850   4.980   1.407  0.00  0.00    +0.000 A 
ATOM      2  C   UNL     1       8.498   5.978   2.309  0.00  0.00    +0.000 A 
ATOM      3  N   UNL     1       8.156   5.753   3.598  0.00  0.00    +0.000 NA
ATOM      4  C   UNL     1       8.168   4.467   4.016  0.00  0.00    +0.000 A 
ATOM      5  C   UNL     1       8.496   3.380   3.211  0.00  0.00    +0.000 A 
ATOM      6  C   UNL     1       8.823   3.656   1.874  0.00  0.00    +0.000 A 
ENDROOT
BRANCH   1   7
ATOM      7  C   UNL     1       9.270   5.333   0.008  0.00  0.00    +0.000 C 
BRANCH   7  10
ATOM      8  O   UNL     1       9.484   6.303  -2.565  0.00  0.00    +0.000 OA
ATOM      9  C   UNL     1       8.376   5.932  -2.186  0.00  0.00    +0.000 C 
ATOM     10  N   UNL     1       8.157   5.512  -0.892  0.00  0.00    +0.000 N 
ATOM     11  H   UNL     1       7.297   5.017  -0.676  0.00  0.00    +0.000 HD
BRANCH   9  12
ATOM     12  C   UNL     1       7.218   5.947  -3.091  0.00  0.00    +0.000 A 
ATOM     13  C   UNL     1       7.221   6.782  -4.201  0.00  0.00    +0.000 A 
ATOM     14  S   UNL     1       5.798   6.690  -5.137  0.00  0.00    +0.000 S 
ATOM     15  C   UNL     1       5.149   5.488  -4.122  0.00  0.00    +0.000 A 
ATOM     16  N   UNL     1       3.937   4.929  -4.386  0.00  0.00    +0.000 NA
ATOM     17  C   UNL     1       3.595   3.994  -3.562  0.00  0.00    +0.000 A 
ATOM     18  N   UNL     1       4.347   3.575  -2.496  0.00  0.00    +0.000 N 
ATOM     19  C   UNL     1       5.552   4.148  -2.162  0.00  0.00    +0.000 A 
ATOM     20  O   UNL     1       6.167   3.804  -1.158  0.00  0.00    +0.000 OA
ATOM     21  C   UNL     1       5.996   5.183  -3.072  0.00  0.00    +0.000 A 
ATOM     22  H   UNL     1       4.019   2.844  -1.884  0.00  0.00    +0.000 HD
ENDBRANCH   9  12
ENDBRANCH   7  10
ENDBRANCH   1   7
BRANCH   5  23
ATOM     23  C   UNL     1       8.443   1.976   3.766  0.00  0.00    +0.000 C 
BRANCH  23  24
ATOM     24  N   UNL     1       9.726   1.276   3.643  0.00  0.00    +0.000 NA
ATOM     25  H   UNL     1      10.443   1.812   4.129  0.00  0.00    +0.000 HD
BRANCH  24  26
ATOM     26  C   UNL     1       9.695  -0.102   4.170  0.00  0.00    +0.000 C 
BRANCH  26  27
ATOM     27  C   UNL     1       8.814  -1.051   3.333  0.00  0.00    +0.000 C 
ATOM     28  C   UNL     1       9.240  -1.033   1.858  0.00  0.00    +0.000 C 
ATOM     29  C   UNL     1       8.301  -1.906   1.041  0.00  0.00    +0.000 C 
ATOM     30  C   UNL     1       8.217  -3.318   1.613  0.00  0.00    +0.000 C 
ATOM     31  N   UNL     1       7.891  -3.323   3.042  0.00  0.00    +0.000 NA
ATOM     32  C   UNL     1       8.830  -2.510   3.829  0.00  0.00    +0.000 C 
ATOM     33  H   UNL     1       7.897  -4.285   3.381  0.00  0.00    +0.000 HD
ENDBRANCH  26  27
ENDBRANCH  24  26
ENDBRANCH  23  24
ENDBRANCH   5  23
TORSDOF 7
