REMARK  Name = 
REMARK  5 active torsions:
REMARK  status: ('A' for Active; 'I' for Inactive)
REMARK    1  A    between atoms: C_2  and  C_4
REMARK    2  A    between atoms: C_8  and  N_9
REMARK    3  A    between atoms: N_9  and  C_10
REMARK    4  A    between atoms: C_10  and  C_11
REMARK    5  A    between atoms: C_15  and  C_16
REMARK                            x       y       z     vdW  Elec       q    Type
REMARK                         _______ _______ _______ _____ _____    ______ ____
ROOT
ATOM      1  N   UNL     1       3.040  -0.151   4.877  0.00  0.00    +0.000 N 
ATOM      2  H   UNL     1       3.877  -0.321   5.434  0.00  0.00    +0.000 HD
ENDROOT
BRANCH   1   7
ATOM      3  C   UNL     1       2.824   0.648   1.241  0.00  0.00    +0.000 A 
ATOM      4  C   UNL     1       3.917   1.495   1.155  0.00  0.00    +0.000 A 
ATOM      5  N   UNL     1       4.700   1.807   2.213  0.00  0.00    +0.000 NA
ATOM      6  C   UNL     1       4.377   1.225   3.396  0.00  0.00    +0.000 A 
ATOM      7  C   UNL     1       3.325   0.323   3.596  0.00  0.00    +0.000 A 
ATOM      8  C   UNL     1       2.529   0.061   2.477  0.00  0.00    +0.000 A 
BRANCH   3  10
ATOM      9  N   UNL     1       0.707   0.072   0.203  0.00  0.00    +0.000 N 
ATOM     10  C   UNL     1       2.029   0.376   0.028  0.00  0.00    +0.000 C 
ATOM     11  O   UNL     1       2.521   0.449  -1.089  0.00  0.00    +0.000 OA
ATOM     12  H   UNL     1       0.152  -0.004  -0.642  0.00  0.00    +0.000 HD
ATOM     13  H   UNL     1       0.215   0.271   1.062  0.00  0.00    +0.000 HD
ENDBRANCH   3  10
ENDBRANCH   1   7
BRANCH   1  14
ATOM     14  C   UNL     1       1.983  -1.126   5.084  0.00  0.00    +0.000 C 
BRANCH  14  15
ATOM     15  C   UNL     1       1.892  -1.488   6.542  0.00  0.00    +0.000 A 
ATOM     16  C   UNL     1       1.103  -0.748   7.422  0.00  0.00    +0.000 A 
ATOM     17  C   UNL     1       1.042  -1.149   8.744  0.00  0.00    +0.000 A 
ATOM     18  N   UNL     1       1.716  -2.209   9.241  0.00  0.00    +0.000 NA
ATOM     19  C   UNL     1       2.513  -2.908   8.397  0.00  0.00    +0.000 A 
ATOM     20  C   UNL     1       2.613  -2.575   7.046  0.00  0.00    +0.000 A 
BRANCH  19  21
ATOM     21  C   UNL     1       3.265  -4.023   8.994  0.00  0.00    +0.000 A 
ATOM     22  C   UNL     1       4.517  -4.439   8.512  0.00  0.00    +0.000 A 
ATOM     23  C   UNL     1       5.194  -5.501   9.111  0.00  0.00    +0.000 A 
ATOM     24  C   UNL     1       4.600  -6.129  10.186  0.00  0.00    +0.000 A 
ATOM     25  N   UNL     1       3.404  -5.774  10.695  0.00  0.00    +0.000 NA
ATOM     26  C   UNL     1       2.775  -4.729  10.093  0.00  0.00    +0.000 A 
ENDBRANCH  19  21
ENDBRANCH  14  15
ENDBRANCH   1  14
TORSDOF 5
