REMARK  Name = 
REMARK  7 active torsions:
REMARK  status: ('A' for Active; 'I' for Inactive)
REMARK    1  A    between atoms: C_1  and  N_2
REMARK    2  A    between atoms: N_2  and  C_3
REMARK    3  A    between atoms: C_4  and  C_6
REMARK    4  A    between atoms: C_9  and  O_10
REMARK    5  A    between atoms: O_10  and  C_11
REMARK    6  A    between atoms: C_11  and  C_12
REMARK    7  A    between atoms: C_12  and  C_13
REMARK                            x       y       z     vdW  Elec       q    Type
REMARK                         _______ _______ _______ _____ _____    ______ ____
ROOT
ATOM      1  C   UNL     1       4.634  -0.422  -1.212  0.00  0.00    +0.000 A 
ATOM      2  C   UNL     1       5.306  -1.086  -0.192  0.00  0.00    +0.000 A 
ATOM      3  C   UNL     1       6.703  -1.084  -0.191  0.00  0.00    +0.000 A 
ATOM      4  C   UNL     1       7.384  -0.425  -1.210  0.00  0.00    +0.000 A 
ATOM      5  C   UNL     1       6.628   0.242  -2.165  0.00  0.00    +0.000 A 
ATOM      6  N   UNL     1       5.276   0.256  -2.200  0.00  0.00    +0.000 NA
ENDROOT
BRANCH   1  10
ATOM      7  C   UNL     1       0.976  -0.226  -2.330  0.00  0.00    +0.000 C 
ATOM      8  N   UNL     1       2.420  -0.315  -2.411  0.00  0.00    +0.000 N 
ATOM      9  C   UNL     1       3.026  -0.468  -3.726  0.00  0.00    +0.000 C 
ATOM     10  C   UNL     1       3.131  -0.411  -1.206  0.00  0.00    +0.000 C 
ATOM     11  O   UNL     1       2.556  -0.508  -0.121  0.00  0.00    +0.000 OA
ENDBRANCH   1  10
BRANCH   4  12
ATOM     12  O   UNL     1       8.739  -0.360  -1.357  0.00  0.00    +0.000 OA
BRANCH  12  13
ATOM     13  C   UNL     1       9.475  -1.431  -0.763  0.00  0.00    +0.000 C 
BRANCH  13  14
ATOM     14  C   UNL     1      10.805  -1.567  -1.506  0.00  0.00    +0.000 C 
BRANCH  14  15
ATOM     15  C   UNL     1      11.605  -2.725  -0.974  0.00  0.00    +0.000 A 
ATOM     16  C   UNL     1      11.424  -4.012  -1.490  0.00  0.00    +0.000 A 
ATOM     17  C   UNL     1      12.135  -5.059  -0.924  0.00  0.00    +0.000 A 
ATOM     18  N   UNL     1      12.997  -4.912   0.103  0.00  0.00    +0.000 NA
ATOM     19  C   UNL     1      13.161  -3.661   0.583  0.00  0.00    +0.000 A 
ATOM     20  C   UNL     1      12.496  -2.551   0.087  0.00  0.00    +0.000 A 
ENDBRANCH  14  15
ENDBRANCH  13  14
ENDBRANCH  12  13
ENDBRANCH   4  12
TORSDOF 5
