REMARK  Name = 
REMARK  7 active torsions:
REMARK  status: ('A' for Active; 'I' for Inactive)
REMARK    1  A    between atoms: C_1  and  C_2
REMARK    2  A    between atoms: C_5  and  O_6
REMARK    3  A    between atoms: O_6  and  C_7
REMARK    4  A    between atoms: C_7  and  C_8
REMARK    5  A    between atoms: C_8  and  C_11
REMARK    6  A    between atoms: C_16  and  O_17
REMARK    7  A    between atoms: O_17  and  C_18
REMARK                            x       y       z     vdW  Elec       q    Type
REMARK                         _______ _______ _______ _____ _____    ______ ____
ROOT
ATOM      1  C   UNL     1      -5.436   0.959  -0.060  0.00  0.00    +0.000 C 
ATOM      2  F   UNL     1      -4.255   1.005   0.624  0.00  0.00    +0.000 F 
ATOM      3  F   UNL     1      -6.191   0.012   0.567  0.00  0.00    +0.000 F 
ENDROOT
BRANCH   1   4
ATOM      4  C   UNL     1      -6.130   2.315  -0.078  0.00  0.00    +0.000 A 
ATOM      5  C   UNL     1      -5.381   3.502  -0.089  0.00  0.00    +0.000 A 
ATOM      6  C   UNL     1      -6.023   4.737  -0.184  0.00  0.00    +0.000 A 
ATOM      7  C   UNL     1      -7.414   4.800  -0.258  0.00  0.00    +0.000 A 
ATOM      8  F   UNL     1      -7.980   6.008  -0.383  0.00  0.00    +0.000 F 
ATOM      9  C   UNL     1      -8.181   3.637  -0.227  0.00  0.00    +0.000 A 
ATOM     10  C   UNL     1      -7.532   2.397  -0.144  0.00  0.00    +0.000 A 
BRANCH   9  11
ATOM     11  O   UNL     1      -9.549   3.571  -0.315  0.00  0.00    +0.000 OA
BRANCH  11  12
ATOM     12  C   UNL     1     -10.334   4.711   0.101  0.00  0.00    +0.000 C 
ATOM     13  C   UNL     1     -10.326   5.057   1.612  0.00  0.00    +0.000 C 
ATOM     14  C   UNL     1     -11.847   5.260   1.537  0.00  0.00    +0.000 C 
ATOM     15  C   UNL     1     -11.849   4.420   0.251  0.00  0.00    +0.000 C 
ENDBRANCH  11  12
ENDBRANCH   9  11
ENDBRANCH   1   4
BRANCH   1  16
ATOM     16  C   UNL     1      -5.160   0.512  -1.507  0.00  0.00    +0.000 C 
BRANCH  16  17
ATOM     17  O   UNL     1      -4.558  -0.788  -1.565  0.00  0.00    +0.000 OA
BRANCH  17  22
ATOM     18  C   UNL     1      -3.343  -3.113  -6.611  0.00  0.00    +0.000 C 
ATOM     19  C   UNL     1      -3.675  -2.472  -5.296  0.00  0.00    +0.000 A 
ATOM     20  C   UNL     1      -4.233  -1.193  -5.248  0.00  0.00    +0.000 A 
ATOM     21  C   UNL     1      -4.542  -0.596  -4.020  0.00  0.00    +0.000 A 
ATOM     22  C   UNL     1      -4.300  -1.273  -2.823  0.00  0.00    +0.000 A 
ATOM     23  C   UNL     1      -3.745  -2.552  -2.870  0.00  0.00    +0.000 A 
ATOM     24  C   UNL     1      -3.434  -3.150  -4.097  0.00  0.00    +0.000 A 
ENDBRANCH  17  22
ENDBRANCH  16  17
ENDBRANCH   1  16
TORSDOF 6
