REMARK  Name = 
REMARK  6 active torsions:
REMARK  status: ('A' for Active; 'I' for Inactive)
REMARK    1  A    between atoms: C_1  and  O_2
REMARK    2  A    between atoms: O_2  and  C_3
REMARK    3  A    between atoms: N_9  and  C_10
REMARK    4  A    between atoms: C_10  and  C_11
REMARK    5  A    between atoms: C_15  and  C_16
REMARK    6  A    between atoms: C_16  and  N_17
REMARK                            x       y       z     vdW  Elec       q    Type
REMARK                         _______ _______ _______ _____ _____    ______ ____
ROOT
ATOM      1  C   UNL     1       3.039  -1.127  -0.506  0.00  0.00    +0.000 A 
ATOM      2  C   UNL     1       2.641  -1.995  -1.518  0.00  0.00    +0.000 A 
ATOM      3  N   UNL     1       3.261  -3.149  -1.863  0.00  0.00    +0.000 NA
ATOM      4  C   UNL     1       4.356  -3.446  -1.125  0.00  0.00    +0.000 A 
ATOM      5  C   UNL     1       5.214  -4.564  -1.231  0.00  0.00    +0.000 A 
ATOM      6  C   UNL     1       6.179  -4.440  -0.257  0.00  0.00    +0.000 A 
ATOM      7  N   UNL     1       5.925  -3.286   0.448  0.00  0.00    +0.000 N 
ATOM      8  C   UNL     1       4.826  -2.642  -0.086  0.00  0.00    +0.000 A 
ATOM      9  C   UNL     1       4.180  -1.440   0.229  0.00  0.00    +0.000 A 
ENDROOT
BRANCH   1  11
ATOM     10  C   UNL     1       1.030   0.109  -0.445  0.00  0.00    +0.000 C 
ATOM     11  O   UNL     1       2.428   0.052  -0.178  0.00  0.00    +0.000 OA
ENDBRANCH   1  11
BRANCH   7  12
ATOM     12  C   UNL     1       6.633  -2.904   1.668  0.00  0.00    +0.000 C 
BRANCH  12  13
ATOM     13  C   UNL     1       7.860  -2.067   1.438  0.00  0.00    +0.000 A 
ATOM     14  C   UNL     1       8.950  -2.201   2.296  0.00  0.00    +0.000 A 
ATOM     15  N   UNL     1      10.054  -1.425   2.259  0.00  0.00    +0.000 NA
ATOM     16  C   UNL     1      10.081  -0.451   1.322  0.00  0.00    +0.000 A 
ATOM     17  C   UNL     1       9.068  -0.234   0.397  0.00  0.00    +0.000 A 
ATOM     18  C   UNL     1       7.938  -1.056   0.474  0.00  0.00    +0.000 A 
BRANCH  17  19
ATOM     19  C   UNL     1       9.161   0.870  -0.615  0.00  0.00    +0.000 C 
BRANCH  19  20
ATOM     20  N   UNL     1       8.521   2.086  -0.131  0.00  0.00    +0.000 NA
ATOM     21  H   UNL     1       7.529   1.906   0.019  0.00  0.00    +0.000 HD
ATOM     22  H   UNL     1       8.572   2.800  -0.855  0.00  0.00    +0.000 HD
ENDBRANCH  19  20
ENDBRANCH  17  19
ENDBRANCH  12  13
ENDBRANCH   7  12
TORSDOF 5
