REMARK  Name = 
REMARK  7 active torsions:
REMARK  status: ('A' for Active; 'I' for Inactive)
REMARK    1  A    between atoms: C_1  and  O_2
REMARK    2  A    between atoms: O_2  and  C_3
REMARK    3  A    between atoms: C_6  and  C_7
REMARK    4  A    between atoms: C_7  and  C_8
REMARK    5  A    between atoms: C_7  and  N_9
REMARK    6  A    between atoms: N_9  and  C_10
REMARK    7  A    between atoms: C_13  and  C_14
REMARK                            x       y       z     vdW  Elec       q    Type
REMARK                         _______ _______ _______ _____ _____    ______ ____
ROOT
ATOM      1  N   UNL     1       4.308   4.202  -4.414  0.00  0.00    +0.000 N 
ATOM      2  H   UNL     1       3.831   4.535  -3.575  0.00  0.00    +0.000 HD
ENDROOT
BRANCH   1   3
ATOM      3  C   UNL     1       5.129   5.222  -4.928  0.00  0.00    +0.000 A 
ATOM      4  C   UNL     1       6.218   4.991  -5.770  0.00  0.00    +0.000 A 
ATOM      5  C   UNL     1       6.956   6.049  -6.300  0.00  0.00    +0.000 A 
ATOM      6  C   UNL     1       6.572   7.341  -5.988  0.00  0.00    +0.000 A 
ATOM      7  N   UNL     1       5.494   7.639  -5.214  0.00  0.00    +0.000 NA
ATOM      8  C   UNL     1       4.800   6.572  -4.730  0.00  0.00    +0.000 A 
BRANCH   6   9
ATOM      9  C   UNL     1       7.380   8.484  -6.519  0.00  0.00    +0.000 C 
ATOM     10  N   UNL     1       6.952   9.733  -6.153  0.00  0.00    +0.000 N 
ATOM     11  O   UNL     1       8.366   8.328  -7.227  0.00  0.00    +0.000 OA
ATOM     12  H   UNL     1       6.141   9.829  -5.555  0.00  0.00    +0.000 HD
ATOM     13  H   UNL     1       7.469  10.542  -6.464  0.00  0.00    +0.000 HD
ENDBRANCH   6   9
ENDBRANCH   1   3
BRANCH   1  14
ATOM     14  C   UNL     1       4.892   2.863  -4.171  0.00  0.00    +0.000 C 
ATOM     15  C   UNL     1       4.762   1.958  -5.402  0.00  0.00    +0.000 C 
BRANCH  14  19
ATOM     16  C   UNL     1       3.081   0.761  -0.886  0.00  0.00    +0.000 A 
ATOM     17  C   UNL     1       2.299   1.086  -1.988  0.00  0.00    +0.000 A 
ATOM     18  C   UNL     1       2.859   1.809  -3.043  0.00  0.00    +0.000 A 
ATOM     19  C   UNL     1       4.204   2.180  -2.984  0.00  0.00    +0.000 A 
ATOM     20  N   UNL     1       4.973   1.901  -1.903  0.00  0.00    +0.000 NA
ATOM     21  C   UNL     1       4.398   1.204  -0.892  0.00  0.00    +0.000 A 
BRANCH  16  23
ATOM     22  C   UNL     1       1.353  -0.447   0.197  0.00  0.00    +0.000 C 
ATOM     23  O   UNL     1       2.688   0.044   0.205  0.00  0.00    +0.000 OA
ENDBRANCH  16  23
ENDBRANCH  14  19
ENDBRANCH   1  14
TORSDOF 5
