REMARK  Name = 
REMARK  7 active torsions:
REMARK  status: ('A' for Active; 'I' for Inactive)
REMARK    1  A    between atoms: N_1  and  C_2
REMARK    2  A    between atoms: C_2  and  C_3
REMARK    3  A    between atoms: C_3  and  C_4
REMARK    4  A    between atoms: C_4  and  C_5
REMARK    5  A    between atoms: N_11  and  C_12
REMARK    6  A    between atoms: C_12  and  C_13
REMARK    7  A    between atoms: C_16  and  C_17
REMARK                            x       y       z     vdW  Elec       q    Type
REMARK                         _______ _______ _______ _____ _____    ______ ____
ROOT
ATOM      1  C   UNL     1       4.925  -3.008   0.334  0.00  0.00    +0.000 A 
ATOM      2  C   UNL     1       4.166  -4.151   0.091  0.00  0.00    +0.000 A 
ATOM      3  N   UNL     1       4.558  -5.424   0.308  0.00  0.00    +0.000 NA
ATOM      4  C   UNL     1       5.800  -5.557   0.832  0.00  0.00    +0.000 A 
ATOM      5  C   UNL     1       6.480  -6.741   1.195  0.00  0.00    +0.000 A 
ATOM      6  C   UNL     1       7.703  -6.373   1.713  0.00  0.00    +0.000 A 
ATOM      7  N   UNL     1       7.778  -4.999   1.690  0.00  0.00    +0.000 N 
ATOM      8  C   UNL     1       6.638  -4.478   1.108  0.00  0.00    +0.000 A 
ATOM      9  C   UNL     1       6.225  -3.170   0.827  0.00  0.00    +0.000 A 
ENDROOT
BRANCH   1  10
ATOM     10  C   UNL     1       4.360  -1.630   0.103  0.00  0.00    +0.000 C 
BRANCH  10  11
ATOM     11  C   UNL     1       3.140  -1.294   0.972  0.00  0.00    +0.000 C 
BRANCH  11  12
ATOM     12  C   UNL     1       3.434  -1.360   2.473  0.00  0.00    +0.000 C 
BRANCH  12  13
ATOM     13  N   UNL     1       2.252  -0.973   3.235  0.00  0.00    +0.000 NA
ATOM     14  H   UNL     1       2.445  -1.075   4.231  0.00  0.00    +0.000 HD
ATOM     15  H   UNL     1       1.489  -1.618   3.034  0.00  0.00    +0.000 HD
ENDBRANCH  12  13
ENDBRANCH  11  12
ENDBRANCH  10  11
ENDBRANCH   1  10
BRANCH   7  16
ATOM     16  C   UNL     1       8.887  -4.231   2.254  0.00  0.00    +0.000 C 
BRANCH  16  17
ATOM     17  C   UNL     1       8.665  -3.955   3.720  0.00  0.00    +0.000 A 
ATOM     18  C   UNL     1       7.651  -3.095   4.157  0.00  0.00    +0.000 A 
ATOM     19  C   UNL     1       7.404  -2.941   5.518  0.00  0.00    +0.000 A 
ATOM     20  C   UNL     1       8.198  -3.642   6.410  0.00  0.00    +0.000 A 
ATOM     21  N   UNL     1       9.231  -4.448   6.034  0.00  0.00    +0.000 NA
ATOM     22  C   UNL     1       9.433  -4.582   4.700  0.00  0.00    +0.000 A 
BRANCH  20  23
ATOM     23  C   UNL     1       7.890  -3.562   7.875  0.00  0.00    +0.000 C 
ATOM     24  N   UNL     1       8.713  -4.286   8.692  0.00  0.00    +0.000 N 
ATOM     25  O   UNL     1       6.954  -2.910   8.318  0.00  0.00    +0.000 OA
ATOM     26  H   UNL     1       9.444  -4.861   8.288  0.00  0.00    +0.000 HD
ATOM     27  H   UNL     1       8.508  -4.336   9.679  0.00  0.00    +0.000 HD
ENDBRANCH  20  23
ENDBRANCH  16  17
ENDBRANCH   7  16
TORSDOF 7
