REMARK  Name = 
REMARK  5 active torsions:
REMARK  status: ('A' for Active; 'I' for Inactive)
REMARK    1  A    between atoms: C_1  and  C_2
REMARK    2  A    between atoms: C_5  and  N_6
REMARK    3  A    between atoms: C_5  and  C_17
REMARK    4  A    between atoms: C_10  and  C_11
REMARK    5  A    between atoms: C_14  and  N_15
REMARK                            x       y       z     vdW  Elec       q    Type
REMARK                         _______ _______ _______ _____ _____    ______ ____
ROOT
ATOM      1  N   UNL     1      -0.972   1.275  -1.787  0.00  0.00    +0.000 N 
ATOM      2  C   UNL     1      -0.972   2.653  -1.994  0.00  0.00    +0.000 A 
ATOM      3  N   UNL     1      -0.534   3.471  -1.035  0.00  0.00    +0.000 NA
ATOM      4  C   UNL     1      -0.541   4.794  -1.257  0.00  0.00    +0.000 A 
ATOM      5  C   UNL     1      -1.011   5.353  -2.412  0.00  0.00    +0.000 A 
ATOM      6  C   UNL     1      -1.478   4.452  -3.357  0.00  0.00    +0.000 A 
ATOM      7  N   UNL     1      -1.466   3.109  -3.160  0.00  0.00    +0.000 NA
ATOM      8  H   UNL     1      -1.601   0.893  -2.488  0.00  0.00    +0.000 HD
ENDROOT
BRANCH   1  13
ATOM      9  C   UNL     1       1.931  -0.063   1.635  0.00  0.00    +0.000 C 
ATOM     10  C   UNL     1       0.965  -0.068   0.459  0.00  0.00    +0.000 C 
ATOM     11  C   UNL     1       0.007  -1.240   0.471  0.00  0.00    +0.000 C 
ATOM     12  C   UNL     1      -1.153  -0.798  -0.423  0.00  0.00    +0.000 C 
ATOM     13  C   UNL     1      -1.193   0.771  -0.405  0.00  0.00    +0.000 C 
ATOM     14  C   UNL     1       0.028   1.133   0.495  0.00  0.00    +0.000 C 
BRANCH  13  15
ATOM     15  C   UNL     1      -2.582   1.292   0.131  0.00  0.00    +0.000 C 
ATOM     16  C   UNL     1      -2.884   0.876   1.589  0.00  0.00    +0.000 C 
ATOM     17  C   UNL     1      -4.258   1.341   2.057  0.00  0.00    +0.000 C 
ATOM     18  C   UNL     1      -5.358   0.861   1.123  0.00  0.00    +0.000 C 
ATOM     19  C   UNL     1      -5.108   1.346  -0.296  0.00  0.00    +0.000 C 
ATOM     20  C   UNL     1      -3.749   0.884  -0.807  0.00  0.00    +0.000 C 
ENDBRANCH  13  15
ENDBRANCH   1  13
BRANCH   5  21
ATOM     21  C   UNL     1      -0.904   6.803  -2.661  0.00  0.00    +0.000 C 
ATOM     22  N   UNL     1      -0.889   7.651  -1.586  0.00  0.00    +0.000 N 
ATOM     23  O   UNL     1      -0.802   7.245  -3.800  0.00  0.00    +0.000 OA
ATOM     24  H   UNL     1      -1.053   7.385  -0.625  0.00  0.00    +0.000 HD
ATOM     25  H   UNL     1      -0.846   8.643  -1.793  0.00  0.00    +0.000 HD
ENDBRANCH   5  21
BRANCH   6  26
ATOM     26  N   UNL     1      -2.132   4.889  -4.514  0.00  0.00    +0.000 N 
ATOM     27  H   UNL     1      -1.698   5.725  -4.915  0.00  0.00    +0.000 HD
ATOM     28  H   UNL     1      -2.255   4.122  -5.164  0.00  0.00    +0.000 HD
ENDBRANCH   6  26
TORSDOF 4
