REMARK  Name = 
REMARK  7 active torsions:
REMARK  status: ('A' for Active; 'I' for Inactive)
REMARK    1  A    between atoms: C_1  and  C_2
REMARK    2  A    between atoms: C_2  and  N_3
REMARK    3  A    between atoms: C_2  and  C_16
REMARK    4  A    between atoms: C_4  and  C_6
REMARK    5  A    between atoms: C_19  and  C_20
REMARK    6  A    between atoms: C_20  and  N_21
REMARK    7  A    between atoms: C_22  and  C_24
REMARK                            x       y       z     vdW  Elec       q    Type
REMARK                         _______ _______ _______ _____ _____    ______ ____
ROOT
ATOM      1  C   UNL     1       2.032  -1.092   0.691  0.00  0.00    +0.000 C 
ATOM      2  C   UNL     1       2.552   0.077  -0.153  0.00  0.00    +0.000 C 
ENDROOT
BRANCH   2   3
ATOM      3  C   UNL     1       2.990   1.270   0.673  0.00  0.00    +0.000 A 
ATOM      4  C   UNL     1       2.736   2.570   0.223  0.00  0.00    +0.000 A 
ATOM      5  C   UNL     1       3.067   3.667   1.020  0.00  0.00    +0.000 A 
ATOM      6  C   UNL     1       3.652   3.446   2.263  0.00  0.00    +0.000 A 
ATOM      7  N   UNL     1       3.971   2.201   2.697  0.00  0.00    +0.000 NA
ATOM      8  C   UNL     1       3.642   1.156   1.897  0.00  0.00    +0.000 A 
BRANCH   6   9
ATOM      9  C   UNL     1       3.911   4.603   3.201  0.00  0.00    +0.000 C 
BRANCH   9  10
ATOM     10  N   UNL     1       5.219   5.190   3.049  0.00  0.00    +0.000 N 
ATOM     11  C   UNL     1       5.480   6.250   2.213  0.00  0.00    +0.000 C 
ATOM     12  O   UNL     1       4.627   6.792   1.520  0.00  0.00    +0.000 OA
ATOM     13  H   UNL     1       6.035   4.700   3.406  0.00  0.00    +0.000 HD
BRANCH  11  14
ATOM     14  C   UNL     1       6.941   6.728   2.253  0.00  0.00    +0.000 C 
ATOM     15  C   UNL     1       7.631   6.609   0.910  0.00  0.00    +0.000 C 
ATOM     16  C   UNL     1       9.100   6.625   1.285  0.00  0.00    +0.000 C 
ATOM     17  C   UNL     1       9.157   5.996   2.669  0.00  0.00    +0.000 C 
ATOM     18  N   UNL     1       7.776   5.880   3.146  0.00  0.00    +0.000 NA
ATOM     19  H   UNL     1       7.701   6.226   4.103  0.00  0.00    +0.000 HD
ENDBRANCH  11  14
ENDBRANCH   9  10
ENDBRANCH   6   9
ENDBRANCH   2   3
BRANCH   2  20
ATOM     20  N   UNL     1       3.613  -0.349  -1.050  0.00  0.00    +0.000 N 
ATOM     21  C   UNL     1       3.343  -0.866  -2.296  0.00  0.00    +0.000 C 
ATOM     22  O   UNL     1       2.194  -0.998  -2.712  0.00  0.00    +0.000 OA
ATOM     23  H   UNL     1       4.551  -0.434  -0.670  0.00  0.00    +0.000 HD
BRANCH  21  24
ATOM     24  C   UNL     1       4.495  -1.192  -3.147  0.00  0.00    +0.000 A 
ATOM     25  C   UNL     1       4.356  -1.165  -4.529  0.00  0.00    +0.000 A 
ATOM     26  S   UNL     1       5.785  -1.557  -5.371  0.00  0.00    +0.000 S 
ATOM     27  C   UNL     1       6.629  -1.827  -3.919  0.00  0.00    +0.000 A 
ATOM     28  N   UNL     1       7.924  -2.245  -3.932  0.00  0.00    +0.000 NA
ATOM     29  C   UNL     1       8.426  -2.452  -2.761  0.00  0.00    +0.000 A 
ATOM     30  N   UNL     1       7.756  -2.263  -1.578  0.00  0.00    +0.000 N 
ATOM     31  C   UNL     1       6.466  -1.790  -1.517  0.00  0.00    +0.000 A 
ATOM     32  O   UNL     1       5.920  -1.545  -0.445  0.00  0.00    +0.000 OA
ATOM     33  C   UNL     1       5.841  -1.584  -2.808  0.00  0.00    +0.000 A 
ATOM     34  H   UNL     1       8.216  -2.424  -0.695  0.00  0.00    +0.000 HD
ENDBRANCH  21  24
ENDBRANCH   2  20
TORSDOF 6
