REMARK  Name = 
REMARK  8 active torsions:
REMARK  status: ('A' for Active; 'I' for Inactive)
REMARK    1  A    between atoms: C_1  and  C_2
REMARK    2  A    between atoms: C_2  and  N_3
REMARK    3  A    between atoms: C_2  and  C_17
REMARK    4  A    between atoms: C_4  and  C_6
REMARK    5  A    between atoms: N_12  and  C_13
REMARK    6  A    between atoms: C_20  and  C_21
REMARK    7  A    between atoms: C_21  and  O_22
REMARK    8  A    between atoms: O_22  and  C_23
REMARK                            x       y       z     vdW  Elec       q    Type
REMARK                         _______ _______ _______ _____ _____    ______ ____
ROOT
ATOM      1  C   UNL     1       3.166  -0.096   1.357  0.00  0.00    +0.000 C 
ATOM      2  C   UNL     1       2.445  -0.073   0.010  0.00  0.00    +0.000 C 
ENDROOT
BRANCH   2   3
ATOM      3  C   UNL     1       2.878  -1.235  -0.888  0.00  0.00    +0.000 A 
ATOM      4  C   UNL     1       3.012  -1.035  -2.262  0.00  0.00    +0.000 A 
ATOM      5  C   UNL     1       3.471  -2.081  -3.066  0.00  0.00    +0.000 A 
ATOM      6  C   UNL     1       3.763  -3.321  -2.497  0.00  0.00    +0.000 A 
ATOM      7  C   UNL     1       3.562  -3.446  -1.128  0.00  0.00    +0.000 A 
ATOM      8  N   UNL     1       3.115  -2.449  -0.323  0.00  0.00    +0.000 NA
BRANCH   6   9
ATOM      9  C   UNL     1       4.312  -4.458  -3.318  0.00  0.00    +0.000 C 
BRANCH   9  10
ATOM     10  O   UNL     1       5.736  -4.340  -3.354  0.00  0.00    +0.000 OA
BRANCH  10  11
ATOM     11  C   UNL     1       6.416  -5.265  -4.083  0.00  0.00    +0.000 A 
ATOM     12  C   UNL     1       5.914  -6.338  -4.791  0.00  0.00    +0.000 A 
ATOM     13  N   UNL     1       6.676  -7.211  -5.489  0.00  0.00    +0.000 NA
ATOM     14  C   UNL     1       7.999  -6.986  -5.459  0.00  0.00    +0.000 A 
ATOM     15  N   UNL     1       8.609  -5.984  -4.809  0.00  0.00    +0.000 NA
ATOM     16  C   UNL     1       7.792  -5.145  -4.134  0.00  0.00    +0.000 A 
ENDBRANCH  10  11
ENDBRANCH   9  10
ENDBRANCH   6   9
ENDBRANCH   2   3
BRANCH   2  17
ATOM     17  N   UNL     1       1.008  -0.067   0.215  0.00  0.00    +0.000 N 
ATOM     18  C   UNL     1       0.281   1.083   0.387  0.00  0.00    +0.000 C 
ATOM     19  O   UNL     1       0.803   2.186   0.519  0.00  0.00    +0.000 OA
ATOM     20  H   UNL     1       0.536  -0.950   0.059  0.00  0.00    +0.000 HD
BRANCH  18  21
ATOM     21  C   UNL     1      -1.176   0.918   0.414  0.00  0.00    +0.000 A 
ATOM     22  C   UNL     1      -1.985   1.779   1.139  0.00  0.00    +0.000 A 
ATOM     23  S   UNL     1      -3.650   1.422   0.994  0.00  0.00    +0.000 S 
ATOM     24  C   UNL     1      -3.341   0.136  -0.078  0.00  0.00    +0.000 A 
ATOM     25  N   UNL     1      -4.352  -0.583  -0.633  0.00  0.00    +0.000 NA
ATOM     26  C   UNL     1      -3.966  -1.504  -1.452  0.00  0.00    +0.000 A 
ATOM     27  N   UNL     1      -2.657  -1.798  -1.772  0.00  0.00    +0.000 N 
ATOM     28  C   UNL     1      -2.319  -2.867  -2.685  0.00  0.00    +0.000 C 
ATOM     29  C   UNL     1      -1.600  -1.104  -1.199  0.00  0.00    +0.000 A 
ATOM     30  O   UNL     1      -0.433  -1.391  -1.431  0.00  0.00    +0.000 OA
ATOM     31  C   UNL     1      -1.989  -0.042  -0.292  0.00  0.00    +0.000 A 
ENDBRANCH  18  21
ENDBRANCH   2  17
TORSDOF 6
