REMARK  Name = 
REMARK  7 active torsions:
REMARK  status: ('A' for Active; 'I' for Inactive)
REMARK    1  A    between atoms: C_1  and  C_2
REMARK    2  A    between atoms: C_2  and  C_3
REMARK    3  A    between atoms: C_2  and  N_10
REMARK    4  A    between atoms: C_3  and  C_4
REMARK    5  A    between atoms: C_13  and  C_14
REMARK    6  A    between atoms: C_14  and  C_15
REMARK    7  A    between atoms: C_15  and  O_16
REMARK                            x       y       z     vdW  Elec       q    Type
REMARK                         _______ _______ _______ _____ _____    ______ ____
ROOT
ATOM      1  N   UNL     1       3.045  -0.297   1.347  0.00  0.00    +0.000 NA
ATOM      2  C   UNL     1       3.332  -1.741   1.484  0.00  0.00    +0.000 C 
ATOM      3  C   UNL     1       3.818  -2.118   2.887  0.00  0.00    +0.000 C 
ATOM      4  C   UNL     1       5.054  -1.318   3.311  0.00  0.00    +0.000 C 
ATOM      5  C   UNL     1       4.720   0.167   3.139  0.00  0.00    +0.000 C 
ATOM      6  C   UNL     1       4.229   0.498   1.724  0.00  0.00    +0.000 C 
ENDROOT
BRANCH   1   8
ATOM      7  C   UNL     1       1.164  -0.661  -0.237  0.00  0.00    +0.000 C 
ATOM      8  C   UNL     1       2.531   0.025  -0.024  0.00  0.00    +0.000 C 
BRANCH   8   9
ATOM      9  C   UNL     1       2.366   1.553  -0.297  0.00  0.00    +0.000 C 
BRANCH   9  10
ATOM     10  C   UNL     1       1.899   1.918  -1.692  0.00  0.00    +0.000 A 
ATOM     11  C   UNL     1       0.716   2.648  -1.875  0.00  0.00    +0.000 A 
ATOM     12  C   UNL     1       0.297   3.011  -3.158  0.00  0.00    +0.000 A 
ATOM     13  C   UNL     1       1.056   2.651  -4.270  0.00  0.00    +0.000 A 
ATOM     14  C   UNL     1       2.232   1.927  -4.100  0.00  0.00    +0.000 A 
ATOM     15  C   UNL     1       2.654   1.564  -2.820  0.00  0.00    +0.000 A 
ENDBRANCH   9  10
ENDBRANCH   8   9
ENDBRANCH   1   8
BRANCH   4  16
ATOM     16  C   UNL     1       6.305  -1.771   2.532  0.00  0.00    +0.000 C 
BRANCH  16  17
ATOM     17  C   UNL     1       7.585  -1.064   2.966  0.00  0.00    +0.000 C 
BRANCH  17  18
ATOM     18  O   UNL     1       8.681  -1.544   2.197  0.00  0.00    +0.000 OA
ATOM     19  H   UNL     1       8.771  -2.495   2.374  0.00  0.00    +0.000 HD
ENDBRANCH  17  18
ENDBRANCH  16  17
ENDBRANCH   4  16
TORSDOF 6
