REMARK  Name = 
REMARK  5 active torsions:
REMARK  status: ('A' for Active; 'I' for Inactive)
REMARK    1  A    between atoms: C_2  and  C_4
REMARK    2  A    between atoms: C_7  and  N_8
REMARK    3  A    between atoms: N_8  and  C_9
REMARK    4  A    between atoms: C_9  and  C_10
REMARK    5  A    between atoms: C_12  and  C_13
REMARK                            x       y       z     vdW  Elec       q    Type
REMARK                         _______ _______ _______ _____ _____    ______ ____
ROOT
ATOM      1  N   UNL     1       5.257   3.809  -3.210  0.00  0.00    +0.000 N 
ATOM      2  H   UNL     1       5.565   3.295  -4.033  0.00  0.00    +0.000 HD
ENDROOT
BRANCH   1   6
ATOM      3  C   UNL     1       3.651   1.303  -0.210  0.00  0.00    +0.000 A 
ATOM      4  C   UNL     1       3.012   2.503  -0.522  0.00  0.00    +0.000 A 
ATOM      5  C   UNL     1       3.525   3.329  -1.525  0.00  0.00    +0.000 A 
ATOM      6  C   UNL     1       4.666   2.973  -2.254  0.00  0.00    +0.000 A 
ATOM      7  C   UNL     1       5.308   1.776  -1.915  0.00  0.00    +0.000 A 
ATOM      8  C   UNL     1       4.813   0.946  -0.898  0.00  0.00    +0.000 A 
BRANCH   3  10
ATOM      9  N   UNL     1       1.797   0.472   1.127  0.00  0.00    +0.000 N 
ATOM     10  C   UNL     1       3.141   0.422   0.872  0.00  0.00    +0.000 C 
ATOM     11  O   UNL     1       3.876  -0.332   1.494  0.00  0.00    +0.000 OA
ATOM     12  H   UNL     1       1.439  -0.186   1.807  0.00  0.00    +0.000 HD
ATOM     13  H   UNL     1       1.138   0.891   0.485  0.00  0.00    +0.000 HD
ENDBRANCH   3  10
ENDBRANCH   1   6
BRANCH   1  14
ATOM     14  C   UNL     1       4.611   5.081  -3.532  0.00  0.00    +0.000 C 
BRANCH  14  15
ATOM     15  C   UNL     1       5.380   5.884  -4.560  0.00  0.00    +0.000 A 
ATOM     16  C   UNL     1       6.714   6.218  -4.335  0.00  0.00    +0.000 A 
ATOM     17  C   UNL     1       7.396   7.045  -5.241  0.00  0.00    +0.000 A 
ATOM     18  C   UNL     1       6.673   7.504  -6.351  0.00  0.00    +0.000 A 
ATOM     19  C   UNL     1       5.351   7.123  -6.507  0.00  0.00    +0.000 A 
ATOM     20  N   UNL     1       4.694   6.327  -5.641  0.00  0.00    +0.000 NA
BRANCH  17  21
ATOM     21  C   UNL     1       8.804   7.423  -5.024  0.00  0.00    +0.000 A 
ATOM     22  N   UNL     1       9.424   6.931  -3.931  0.00  0.00    +0.000 NA
ATOM     23  C   UNL     1      10.709   7.284  -3.755  0.00  0.00    +0.000 A 
ATOM     24  C   UNL     1      11.395   8.103  -4.617  0.00  0.00    +0.000 A 
ATOM     25  C   UNL     1      10.677   8.556  -5.699  0.00  0.00    +0.000 A 
ATOM     26  N   UNL     1       9.390   8.234  -5.927  0.00  0.00    +0.000 NA
ENDBRANCH  17  21
ENDBRANCH  14  15
ENDBRANCH   1  14
TORSDOF 5
