REMARK  Name = 
REMARK  11 active torsions:
REMARK  status: ('A' for Active; 'I' for Inactive)
REMARK    1  A    between atoms: C_1  and  C_2
REMARK    2  A    between atoms: C_2  and  C_3
REMARK    3  A    between atoms: C_2  and  N_4
REMARK    4  A    between atoms: N_7  and  C_8
REMARK    5  A    between atoms: C_12  and  C_13
REMARK    6  A    between atoms: C_13  and  C_14
REMARK    7  A    between atoms: C_13  and  C_15
REMARK    8  A    between atoms: C_13  and  C_16
REMARK    9  A    between atoms: C_16  and  N_17
REMARK   10  A    between atoms: N_17  and  C_18
REMARK   11  A    between atoms: C_21  and  C_22
REMARK                            x       y       z     vdW  Elec       q    Type
REMARK                         _______ _______ _______ _____ _____    ______ ____
ROOT
ATOM      1  C   UNL     1       8.392   1.464   4.780  0.00  0.00    +0.000 C 
ATOM      2  C   UNL     1       8.691   0.017   4.315  0.00  0.00    +0.000 C 
ATOM      3  C   UNL     1       8.925   2.442   3.706  0.00  0.00    +0.000 C 
ENDROOT
BRANCH   1   8
ATOM      4  C   UNL     1       4.617   1.570   3.937  0.00  0.00    +0.000 A 
ATOM      5  C   UNL     1       4.165   1.892   5.220  0.00  0.00    +0.000 A 
ATOM      6  N   UNL     1       4.933   2.036   6.323  0.00  0.00    +0.000 NA
ATOM      7  C   UNL     1       6.255   1.864   6.154  0.00  0.00    +0.000 A 
ATOM      8  C   UNL     1       6.871   1.600   4.933  0.00  0.00    +0.000 A 
ATOM      9  C   UNL     1       6.007   1.438   3.826  0.00  0.00    +0.000 A 
BRANCH   4  13
ATOM     10  N   UNL     1       1.330  -0.001   1.920  0.00  0.00    +0.000 NA
ATOM     11  C   UNL     1       1.404   0.910   3.094  0.00  0.00    +0.000 C 
ATOM     12  C   UNL     1       2.438   2.035   2.895  0.00  0.00    +0.000 C 
ATOM     13  N   UNL     1       3.784   1.455   2.831  0.00  0.00    +0.000 N 
ATOM     14  C   UNL     1       3.936   0.322   1.881  0.00  0.00    +0.000 C 
ATOM     15  C   UNL     1       2.684  -0.618   1.818  0.00  0.00    +0.000 C 
BRANCH  10  17
ATOM     16  C   UNL     1       0.782  -0.183  -0.555  0.00  0.00    +0.000 C 
ATOM     17  C   UNL     1       0.875   0.706   0.694  0.00  0.00    +0.000 C 
ATOM     18  C   UNL     1      -0.521   1.338   0.885  0.00  0.00    +0.000 C 
ENDBRANCH  10  17
ENDBRANCH   4  13
ENDBRANCH   1   8
BRANCH   1  19
ATOM     19  C   UNL     1       9.213   1.690   6.094  0.00  0.00    +0.000 C 
BRANCH  19  20
ATOM     20  N   UNL     1       9.134   3.069   6.599  0.00  0.00    +0.000 N 
ATOM     21  H   UNL     1       8.219   3.506   6.490  0.00  0.00    +0.000 HD
BRANCH  20  22
ATOM     22  C   UNL     1       9.716   3.343   7.839  0.00  0.00    +0.000 A 
ATOM     23  C   UNL     1      10.917   2.756   8.257  0.00  0.00    +0.000 A 
ATOM     24  C   UNL     1      11.509   3.119   9.461  0.00  0.00    +0.000 A 
ATOM     25  C   UNL     1      10.887   4.088  10.240  0.00  0.00    +0.000 A 
ATOM     26  N   UNL     1       9.724   4.701   9.888  0.00  0.00    +0.000 NA
ATOM     27  C   UNL     1       9.189   4.319   8.699  0.00  0.00    +0.000 A 
BRANCH  25  28
ATOM     28  C   UNL     1      11.518   4.517  11.526  0.00  0.00    +0.000 C 
ATOM     29  N   UNL     1      10.832   5.475  12.229  0.00  0.00    +0.000 N 
ATOM     30  O   UNL     1      12.572   4.053  11.934  0.00  0.00    +0.000 OA
ATOM     31  H   UNL     1       9.978   5.854  11.839  0.00  0.00    +0.000 HD
ATOM     32  H   UNL     1      11.219   5.840  13.086  0.00  0.00    +0.000 HD
ENDBRANCH  25  28
ENDBRANCH  20  22
ENDBRANCH  19  20
ENDBRANCH   1  19
TORSDOF 7
