REMARK  Name = 
REMARK  6 active torsions:
REMARK  status: ('A' for Active; 'I' for Inactive)
REMARK    1  A    between atoms: C_1  and  C_2
REMARK    2  A    between atoms: C_2  and  C_3
REMARK    3  A    between atoms: C_2  and  O_4
REMARK    4  A    between atoms: C_2  and  C_14
REMARK    5  A    between atoms: O_4  and  C_5
REMARK    6  A    between atoms: C_8  and  C_9
REMARK                            x       y       z     vdW  Elec       q    Type
REMARK                         _______ _______ _______ _____ _____    ______ ____
ROOT
ATOM      1  C   UNL     1       2.062   2.413   0.038  0.00  0.00    +0.000 A 
ATOM      2  C   UNL     1       2.010   3.487   0.907  0.00  0.00    +0.000 A 
ATOM      3  N   UNL     1       1.317   4.629   0.680  0.00  0.00    +0.000 NA
ATOM      4  C   UNL     1       0.664   4.679  -0.505  0.00  0.00    +0.000 A 
ATOM      5  N   UNL     1       0.684   3.725  -1.448  0.00  0.00    +0.000 NA
ATOM      6  C   UNL     1       1.400   2.619  -1.152  0.00  0.00    +0.000 A 
ENDROOT
BRANCH   4   7
ATOM      7  C   UNL     1      -0.180   5.903  -0.781  0.00  0.00    +0.000 C 
ATOM      8  N   UNL     1      -0.168   6.871   0.195  0.00  0.00    +0.000 N 
ATOM      9  O   UNL     1      -0.851   6.055  -1.795  0.00  0.00    +0.000 OA
ATOM     10  H   UNL     1       0.369   6.740   1.042  0.00  0.00    +0.000 HD
ATOM     11  H   UNL     1      -0.732   7.699   0.063  0.00  0.00    +0.000 HD
ENDBRANCH   4   7
BRANCH   1  12
ATOM     12  O   UNL     1       2.761   1.315   0.427  0.00  0.00    +0.000 OA
BRANCH  12  14
ATOM     13  C   UNL     1       0.870  -0.243  -0.074  0.00  0.00    +0.000 C 
ATOM     14  C   UNL     1       2.398  -0.022  -0.004  0.00  0.00    +0.000 C 
ATOM     15  C   UNL     1       3.048  -0.320  -1.369  0.00  0.00    +0.000 C 
BRANCH  14  16
ATOM     16  C   UNL     1       2.981  -1.022   1.084  0.00  0.00    +0.000 C 
ATOM     17  C   UNL     1       2.372  -0.765   2.484  0.00  0.00    +0.000 C 
ATOM     18  C   UNL     1       2.981  -1.633   3.583  0.00  0.00    +0.000 C 
ATOM     19  C   UNL     1       4.496  -1.500   3.620  0.00  0.00    +0.000 C 
ATOM     20  C   UNL     1       5.088  -1.882   2.274  0.00  0.00    +0.000 C 
ATOM     21  C   UNL     1       4.526  -1.011   1.153  0.00  0.00    +0.000 C 
ENDBRANCH  14  16
ENDBRANCH  12  14
ENDBRANCH   1  12
TORSDOF 4
