REMARK  Name = 
REMARK  9 active torsions:
REMARK  status: ('A' for Active; 'I' for Inactive)
REMARK    1  A    between atoms: C_1  and  O_2
REMARK    2  A    between atoms: O_2  and  C_3
REMARK    3  A    between atoms: C_3  and  C_4
REMARK    4  A    between atoms: C_4  and  N_5
REMARK    5  A    between atoms: N_5  and  C_6
REMARK    6  A    between atoms: C_6  and  C_7
REMARK    7  A    between atoms: C_10  and  C_11
REMARK    8  A    between atoms: C_11  and  N_12
REMARK    9  A    between atoms: C_17  and  C_18
REMARK                            x       y       z     vdW  Elec       q    Type
REMARK                         _______ _______ _______ _____ _____    ______ ____
ROOT
ATOM      1  C   UNL     1       7.998   7.079   4.596  0.00  0.00    +0.000 C 
ENDROOT
BRANCH   1   2
ATOM      2  N   UNL     1       7.061   7.295   5.698  0.00  0.00    +0.000 N 
ATOM      3  C   UNL     1       6.138   8.320   5.692  0.00  0.00    +0.000 A 
ATOM      4  C   UNL     1       5.444   8.273   6.876  0.00  0.00    +0.000 A 
ATOM      5  C   UNL     1       6.207   7.470   7.755  0.00  0.00    +0.000 A 
ATOM      6  C   UNL     1       6.243   7.335   9.144  0.00  0.00    +0.000 A 
ATOM      7  C   UNL     1       7.195   6.477   9.657  0.00  0.00    +0.000 A 
ATOM      8  N   UNL     1       7.975   5.646   8.899  0.00  0.00    +0.000 NA
ATOM      9  C   UNL     1       7.912   5.747   7.545  0.00  0.00    +0.000 A 
ATOM     10  C   UNL     1       7.129   6.750   6.979  0.00  0.00    +0.000 A 
BRANCH   7  11
ATOM     11  C   UNL     1       7.491   6.547  11.128  0.00  0.00    +0.000 C 
ATOM     12  N   UNL     1       8.437   5.670  11.597  0.00  0.00    +0.000 N 
ATOM     13  O   UNL     1       6.955   7.364  11.870  0.00  0.00    +0.000 OA
ATOM     14  H   UNL     1       8.897   5.048  10.967  0.00  0.00    +0.000 HD
ATOM     15  H   UNL     1       8.726   5.731  12.573  0.00  0.00    +0.000 HD
ENDBRANCH   7  11
ENDBRANCH   1   2
BRANCH   1  19
ATOM     16  C   UNL     1       6.877   3.781   2.102  0.00  0.00    +0.000 A 
ATOM     17  C   UNL     1       6.481   5.072   1.742  0.00  0.00    +0.000 A 
ATOM     18  C   UNL     1       6.842   6.161   2.540  0.00  0.00    +0.000 A 
ATOM     19  C   UNL     1       7.581   5.947   3.695  0.00  0.00    +0.000 A 
ATOM     20  N   UNL     1       8.006   4.701   4.052  0.00  0.00    +0.000 NA
ATOM     21  C   UNL     1       7.646   3.662   3.259  0.00  0.00    +0.000 A 
BRANCH  16  22
ATOM     22  C   UNL     1       6.440   2.552   1.343  0.00  0.00    +0.000 C 
BRANCH  22  23
ATOM     23  N   UNL     1       6.909   2.555  -0.043  0.00  0.00    +0.000 NA
ATOM     24  H   UNL     1       6.522   3.365  -0.524  0.00  0.00    +0.000 HD
BRANCH  23  25
ATOM     25  C   UNL     1       6.487   1.338  -0.751  0.00  0.00    +0.000 C 
BRANCH  25  26
ATOM     26  C   UNL     1       6.982   1.363  -2.203  0.00  0.00    +0.000 C 
BRANCH  26  28
ATOM     27  C   UNL     1       7.000   0.187  -4.239  0.00  0.00    +0.000 C 
ATOM     28  O   UNL     1       6.549   0.186  -2.888  0.00  0.00    +0.000 OA
ENDBRANCH  26  28
ENDBRANCH  25  26
ENDBRANCH  23  25
ENDBRANCH  22  23
ENDBRANCH  16  22
ENDBRANCH   1  19
TORSDOF 8
