REMARK  Name = 
REMARK  8 active torsions:
REMARK  status: ('A' for Active; 'I' for Inactive)
REMARK    1  A    between atoms: N_1  and  C_2
REMARK    2  A    between atoms: C_2  and  C_3
REMARK    3  A    between atoms: C_2  and  C_24
REMARK    4  A    between atoms: C_3  and  C_4
REMARK    5  A    between atoms: C_7  and  C_8
REMARK    6  A    between atoms: C_8  and  N_9
REMARK    7  A    between atoms: C_10  and  C_12
REMARK    8  A    between atoms: N_26  and  C_27
REMARK                            x       y       z     vdW  Elec       q    Type
REMARK                         _______ _______ _______ _____ _____    ______ ____
ROOT
ATOM      1  C   UNL     1       0.482  -0.806  -1.126  0.00  0.00    +0.000 A 
ATOM      2  C   UNL     1       1.318  -1.487  -2.018  0.00  0.00    +0.000 A 
ATOM      3  C   UNL     1       0.775  -2.302  -3.017  0.00  0.00    +0.000 A 
ATOM      4  C   UNL     1      -0.613  -2.448  -3.142  0.00  0.00    +0.000 A 
ATOM      5  C   UNL     1      -1.443  -1.834  -2.196  0.00  0.00    +0.000 A 
ATOM      6  C   UNL     1      -0.901  -1.018  -1.202  0.00  0.00    +0.000 A 
ENDROOT
BRANCH   1   7
ATOM      7  C   UNL     1       1.039   0.144  -0.092  0.00  0.00    +0.000 C 
BRANCH   7   8
ATOM      8  C   UNL     1       1.797   1.372  -0.653  0.00  0.00    +0.000 C 
BRANCH   8   9
ATOM      9  C   UNL     1       2.246   2.257   0.531  0.00  0.00    +0.000 C 
ATOM     10  O   UNL     1       1.950   2.009   1.695  0.00  0.00    +0.000 OA
ATOM     11  N   UNL     1       2.994   3.367   0.175  0.00  0.00    +0.000 N 
ATOM     12  H   UNL     1       3.286   3.476  -0.787  0.00  0.00    +0.000 HD
BRANCH  11  13
ATOM     13  C   UNL     1       3.481   4.329   1.167  0.00  0.00    +0.000 C 
ATOM     14  C   UNL     1       4.493   3.690   2.133  0.00  0.00    +0.000 C 
ATOM     15  C   UNL     1       4.804   4.586   3.327  0.00  0.00    +0.000 C 
ATOM     16  C   UNL     1       3.522   5.128   3.939  0.00  0.00    +0.000 C 
ATOM     17  O   UNL     1       2.819   5.890   2.959  0.00  0.00    +0.000 OA
ATOM     18  C   UNL     1       2.336   5.052   1.907  0.00  0.00    +0.000 C 
ENDBRANCH  11  13
ENDBRANCH   8   9
BRANCH   8  19
ATOM     19  N   UNL     1       0.963   2.182  -1.570  0.00  0.00    +0.000 NA
ATOM     20  H   UNL     1       1.475   2.996  -1.897  0.00  0.00    +0.000 HD
ATOM     21  H   UNL     1       0.154   2.533  -1.057  0.00  0.00    +0.000 HD
ENDBRANCH   8  19
ENDBRANCH   7   8
ENDBRANCH   1   7
BRANCH   4  22
ATOM     22  C   UNL     1      -1.213  -3.265  -4.256  0.00  0.00    +0.000 C 
BRANCH  22  23
ATOM     23  N   UNL     1      -1.368  -4.639  -3.864  0.00  0.00    +0.000 N 
ATOM     24  C   UNL     1      -1.831  -5.590  -4.734  0.00  0.00    +0.000 C 
ATOM     25  O   UNL     1      -2.094  -5.337  -5.905  0.00  0.00    +0.000 OA
ATOM     26  H   UNL     1      -1.400  -4.820  -2.866  0.00  0.00    +0.000 HD
BRANCH  24  27
ATOM     27  C   UNL     1      -1.925  -6.955  -4.202  0.00  0.00    +0.000 A 
ATOM     28  C   UNL     1      -1.883  -8.041  -5.067  0.00  0.00    +0.000 A 
ATOM     29  S   UNL     1      -1.921  -9.549  -4.271  0.00  0.00    +0.000 S 
ATOM     30  C   UNL     1      -2.052  -8.803  -2.746  0.00  0.00    +0.000 A 
ATOM     31  N   UNL     1      -2.142  -9.547  -1.611  0.00  0.00    +0.000 NA
ATOM     32  C   UNL     1      -2.264  -8.853  -0.527  0.00  0.00    +0.000 A 
ATOM     33  N   UNL     1      -2.302  -7.484  -0.478  0.00  0.00    +0.000 N 
ATOM     34  C   UNL     1      -2.195  -6.693  -1.597  0.00  0.00    +0.000 A 
ATOM     35  O   UNL     1      -2.209  -5.471  -1.513  0.00  0.00    +0.000 OA
ATOM     36  C   UNL     1      -2.057  -7.426  -2.843  0.00  0.00    +0.000 A 
ATOM     37  H   UNL     1      -2.397  -6.998   0.402  0.00  0.00    +0.000 HD
ENDBRANCH  24  27
ENDBRANCH  22  23
ENDBRANCH   4  22
TORSDOF 8
