REMARK  Name = 
REMARK  7 active torsions:
REMARK  status: ('A' for Active; 'I' for Inactive)
REMARK    1  A    between atoms: C_2  and  C_19
REMARK    2  A    between atoms: N_3  and  C_4
REMARK    3  A    between atoms: C_4  and  C_5
REMARK    4  A    between atoms: C_8  and  C_9
REMARK    5  A    between atoms: C_9  and  C_10
REMARK    6  A    between atoms: C_10  and  N_11
REMARK    7  A    between atoms: C_14  and  O_15
REMARK                            x       y       z     vdW  Elec       q    Type
REMARK                         _______ _______ _______ _____ _____    ______ ____
ROOT
ATOM      1  C   UNL     1       2.123  -0.993  -2.245  0.00  0.00    +0.000 C 
ENDROOT
BRANCH   1   2
ATOM      2  C   UNL     1       3.085  -1.473  -3.291  0.00  0.00    +0.000 A 
ATOM      3  C   UNL     1       3.915  -0.600  -3.996  0.00  0.00    +0.000 A 
ATOM      4  C   UNL     1       4.787  -1.101  -4.963  0.00  0.00    +0.000 A 
ATOM      5  C   UNL     1       4.831  -2.475  -5.189  0.00  0.00    +0.000 A 
ATOM      6  N   UNL     1       4.055  -3.341  -4.494  0.00  0.00    +0.000 NA
ATOM      7  C   UNL     1       3.209  -2.828  -3.570  0.00  0.00    +0.000 A 
BRANCH   5   8
ATOM      8  C   UNL     1       5.738  -3.076  -6.239  0.00  0.00    +0.000 C 
BRANCH   8   9
ATOM      9  C   UNL     1       7.228  -2.878  -5.919  0.00  0.00    +0.000 C 
BRANCH   9  10
ATOM     10  N   UNL     1       8.142  -3.456  -6.924  0.00  0.00    +0.000 NA
ATOM     11  C   UNL     1       8.052  -4.922  -7.020  0.00  0.00    +0.000 C 
ATOM     12  C   UNL     1       9.455  -5.417  -7.380  0.00  0.00    +0.000 C 
ATOM     13  C   UNL     1      10.312  -4.164  -7.447  0.00  0.00    +0.000 C 
ATOM     14  C   UNL     1       9.548  -3.163  -6.587  0.00  0.00    +0.000 C 
BRANCH  13  15
ATOM     15  O   UNL     1      10.386  -3.707  -8.798  0.00  0.00    +0.000 OA
ATOM     16  H   UNL     1       9.482  -3.421  -9.027  0.00  0.00    +0.000 HD
ENDBRANCH  13  15
ENDBRANCH   9  10
ENDBRANCH   8   9
ENDBRANCH   5   8
ENDBRANCH   1   2
BRANCH   1  19
ATOM     17  O   UNL     1       1.984  -3.016  -0.300  0.00  0.00    +0.000 OA
ATOM     18  C   UNL     1       2.664  -2.020  -0.070  0.00  0.00    +0.000 C 
ATOM     19  N   UNL     1       2.738  -0.964  -0.942  0.00  0.00    +0.000 N 
ATOM     20  H   UNL     1       3.454  -0.259  -0.801  0.00  0.00    +0.000 HD
BRANCH  18  21
ATOM     21  C   UNL     1       3.405  -1.870   1.187  0.00  0.00    +0.000 A 
ATOM     22  C   UNL     1       3.007  -2.576   2.314  0.00  0.00    +0.000 A 
ATOM     23  S   UNL     1       3.969  -2.266   3.688  0.00  0.00    +0.000 S 
ATOM     24  C   UNL     1       4.980  -1.213   2.811  0.00  0.00    +0.000 A 
ATOM     25  N   UNL     1       6.047  -0.615   3.404  0.00  0.00    +0.000 NA
ATOM     26  C   UNL     1       6.752   0.125   2.610  0.00  0.00    +0.000 A 
ATOM     27  N   UNL     1       6.478   0.328   1.283  0.00  0.00    +0.000 N 
ATOM     28  C   UNL     1       5.370  -0.194   0.664  0.00  0.00    +0.000 A 
ATOM     29  O   UNL     1       5.080   0.116  -0.488  0.00  0.00    +0.000 OA
ATOM     30  C   UNL     1       4.571  -1.077   1.497  0.00  0.00    +0.000 A 
ATOM     31  H   UNL     1       7.051   0.944   0.727  0.00  0.00    +0.000 HD
ENDBRANCH  18  21
ENDBRANCH   1  19
TORSDOF 7
