REMARK  Name = 
REMARK  5 active torsions:
REMARK  status: ('A' for Active; 'I' for Inactive)
REMARK    1  A    between atoms: C_1  and  N_2
REMARK    2  A    between atoms: C_5  and  C_6
REMARK    3  A    between atoms: C_6  and  O_7
REMARK    4  A    between atoms: O_7  and  C_8
REMARK    5  A    between atoms: C_11  and  C_12
REMARK                            x       y       z     vdW  Elec       q    Type
REMARK                         _______ _______ _______ _____ _____    ______ ____
ROOT
ATOM      1  C   UNL     1       2.719  -1.228  -3.729  0.00  0.00    +0.000 A 
ATOM      2  C   UNL     1       3.374  -2.294  -4.341  0.00  0.00    +0.000 A 
ATOM      3  N   UNL     1       3.439  -2.447  -5.694  0.00  0.00    +0.000 NA
ATOM      4  C   UNL     1       2.808  -1.468  -6.405  0.00  0.00    +0.000 A 
ATOM      5  C   UNL     1       2.160  -0.404  -5.798  0.00  0.00    +0.000 A 
ATOM      6  N   UNL     1       2.104  -0.262  -4.449  0.00  0.00    +0.000 NA
ENDROOT
BRANCH   4   7
ATOM      7  C   UNL     1       2.803  -1.556  -7.891  0.00  0.00    +0.000 C 
ATOM      8  N   UNL     1       3.450  -2.627  -8.440  0.00  0.00    +0.000 N 
ATOM      9  O   UNL     1       2.246  -0.717  -8.589  0.00  0.00    +0.000 OA
ATOM     10  H   UNL     1       3.901  -3.316  -7.849  0.00  0.00    +0.000 HD
ATOM     11  H   UNL     1       3.459  -2.733  -9.445  0.00  0.00    +0.000 HD
ENDBRANCH   4   7
BRANCH   1  12
ATOM     12  O   UNL     1       2.686  -1.174  -2.349  0.00  0.00    +0.000 OA
BRANCH  12  13
ATOM     13  C   UNL     1       1.964  -0.027  -1.876  0.00  0.00    +0.000 C 
BRANCH  13  18
ATOM     14  C   UNL     1      -2.434   0.012  -0.071  0.00  0.00    +0.000 C 
ATOM     15  N   UNL     1      -1.022  -0.004   0.321  0.00  0.00    +0.000 NA
ATOM     16  C   UNL     1      -0.381  -1.236  -0.159  0.00  0.00    +0.000 C 
ATOM     17  C   UNL     1       1.110  -1.276   0.188  0.00  0.00    +0.000 C 
ATOM     18  C   UNL     1       1.858  -0.046  -0.340  0.00  0.00    +0.000 C 
ATOM     19  C   UNL     1       1.145   1.213   0.175  0.00  0.00    +0.000 C 
ATOM     20  C   UNL     1      -0.351   1.212  -0.160  0.00  0.00    +0.000 C 
ENDBRANCH  13  18
ENDBRANCH  12  13
ENDBRANCH   1  12
TORSDOF 4
