REMARK  Name = 
REMARK  10 active torsions:
REMARK  status: ('A' for Active; 'I' for Inactive)
REMARK    1  A    between atoms: C_1  and  C_2
REMARK    2  A    between atoms: C_5  and  C_6
REMARK    3  A    between atoms: C_10  and  C_11
REMARK    4  A    between atoms: C_11  and  C_12
REMARK    5  A    between atoms: C_11  and  C_13
REMARK    6  A    between atoms: C_11  and  C_14
REMARK    7  A    between atoms: C_14  and  N_15
REMARK    8  A    between atoms: N_15  and  C_16
REMARK    9  A    between atoms: C_19  and  C_20
REMARK   10  A    between atoms: C_26  and  O_27
REMARK                            x       y       z     vdW  Elec       q    Type
REMARK                         _______ _______ _______ _____ _____    ______ ____
ROOT
ATOM      1  C   UNL     1       8.641   0.242  -1.285  0.00  0.00    +0.000 A 
ATOM      2  N   UNL     1       7.334  -0.064  -1.300  0.00  0.00    +0.000 NA
ATOM      3  C   UNL     1       6.670   0.107  -0.151  0.00  0.00    +0.000 A 
ATOM      4  C   UNL     1       7.258   0.577   0.999  0.00  0.00    +0.000 A 
ATOM      5  C   UNL     1       8.580   0.982   0.916  0.00  0.00    +0.000 A 
ATOM      6  N   UNL     1       9.286   0.785  -0.225  0.00  0.00    +0.000 NA
ENDROOT
BRANCH   1  11
ATOM      7  C   UNL     1      11.661  -1.331  -5.840  0.00  0.00    +0.000 C 
ATOM      8  C   UNL     1      10.868  -0.893  -4.650  0.00  0.00    +0.000 A 
ATOM      9  N   UNL     1       9.540  -1.084  -4.676  0.00  0.00    +0.000 NA
ATOM     10  C   UNL     1       8.861  -0.687  -3.577  0.00  0.00    +0.000 A 
ATOM     11  C   UNL     1       9.433  -0.110  -2.455  0.00  0.00    +0.000 A 
ATOM     12  C   UNL     1      10.805   0.038  -2.563  0.00  0.00    +0.000 A 
ATOM     13  N   UNL     1      11.536  -0.338  -3.628  0.00  0.00    +0.000 NA
BRANCH  12  14
ATOM     14  O   UNL     1      11.567   0.585  -1.564  0.00  0.00    +0.000 OA
ATOM     15  H   UNL     1      10.961   0.826  -0.836  0.00  0.00    +0.000 HD
ENDBRANCH  12  14
ENDBRANCH   1  11
BRANCH   5  16
ATOM     16  C   UNL     1       9.315   1.691   2.063  0.00  0.00    +0.000 C 
ATOM     17  C   UNL     1      10.481   0.794   2.537  0.00  0.00    +0.000 C 
ATOM     18  C   UNL     1       9.913   3.022   1.551  0.00  0.00    +0.000 C 
BRANCH  16  19
ATOM     19  C   UNL     1       8.433   1.995   3.309  0.00  0.00    +0.000 C 
BRANCH  19  20
ATOM     20  N   UNL     1       7.319   2.915   3.022  0.00  0.00    +0.000 N 
ATOM     21  H   UNL     1       6.908   2.819   2.097  0.00  0.00    +0.000 HD
BRANCH  20  22
ATOM     22  C   UNL     1       6.366   3.110   4.028  0.00  0.00    +0.000 A 
ATOM     23  C   UNL     1       5.025   3.310   3.680  0.00  0.00    +0.000 A 
ATOM     24  C   UNL     1       4.056   3.555   4.660  0.00  0.00    +0.000 A 
ATOM     25  C   UNL     1       4.427   3.634   6.013  0.00  0.00    +0.000 A 
ATOM     26  C   UNL     1       5.764   3.463   6.360  0.00  0.00    +0.000 A 
ATOM     27 CL   UNL     1       6.314   3.576   7.996  0.00  0.00    +0.000 Cl
ATOM     28  C   UNL     1       6.721   3.203   5.374  0.00  0.00    +0.000 A 
BRANCH  25  29
ATOM     29  C   UNL     1       3.418   3.897   6.990  0.00  0.00    +0.000 C 
ATOM     30  N   UNL     1       2.577   4.109   7.764  0.00  0.00    +0.000 NA
ENDBRANCH  25  29
ENDBRANCH  20  22
ENDBRANCH  19  20
ENDBRANCH  16  19
ENDBRANCH   5  16
TORSDOF 7
