REMARK  Name = 
REMARK  8 active torsions:
REMARK  status: ('A' for Active; 'I' for Inactive)
REMARK    1  A    between atoms: C_1  and  C_2
REMARK    2  A    between atoms: C_5  and  N_6
REMARK    3  A    between atoms: C_9  and  O_10
REMARK    4  A    between atoms: C_11  and  C_12
REMARK    5  A    between atoms: C_15  and  C_16
REMARK    6  A    between atoms: C_16  and  O_17
REMARK    7  A    between atoms: O_17  and  C_18
REMARK    8  A    between atoms: C_21  and  C_22
REMARK                            x       y       z     vdW  Elec       q    Type
REMARK                         _______ _______ _______ _____ _____    ______ ____
ROOT
ATOM      1  C   UNL     1       2.473   0.159  -0.004  0.00  0.00    +0.000 C 
ATOM      2  C   UNL     1       0.975   0.052  -0.004  0.00  0.00    +0.000 A 
ATOM      3  C   UNL     1       0.219   1.230  -0.023  0.00  0.00    +0.000 A 
ATOM      4  C   UNL     1      -1.179   1.191  -0.038  0.00  0.00    +0.000 A 
ATOM      5  C   UNL     1      -1.883  -0.018  -0.028  0.00  0.00    +0.000 A 
ATOM      6  C   UNL     1      -1.110  -1.189   0.012  0.00  0.00    +0.000 A 
ATOM      7  C   UNL     1       0.304  -1.183   0.005  0.00  0.00    +0.000 A 
ENDROOT
BRANCH   5   8
ATOM      8  N   UNL     1      -3.265  -0.061  -0.094  0.00  0.00    +0.000 N 
ATOM      9  C   UNL     1      -4.036  -1.087   0.609  0.00  0.00    +0.000 C 
ATOM     10  C   UNL     1      -4.985  -1.771  -0.371  0.00  0.00    +0.000 C 
ATOM     11  C   UNL     1      -5.841  -0.756  -1.131  0.00  0.00    +0.000 C 
ATOM     12  C   UNL     1      -4.969   0.318  -1.801  0.00  0.00    +0.000 C 
ATOM     13  C   UNL     1      -5.807   1.366  -2.532  0.00  0.00    +0.000 C 
ATOM     14  C   UNL     1      -4.030   0.982  -0.784  0.00  0.00    +0.000 C 
BRANCH  11  15
ATOM     15  O   UNL     1      -6.817  -0.182  -0.261  0.00  0.00    +0.000 OA
ATOM     16  H   UNL     1      -6.363   0.315   0.439  0.00  0.00    +0.000 HD
ENDBRANCH  11  15
ENDBRANCH   5   8
BRANCH   7  17
ATOM     17  C   UNL     1       1.024  -2.517  -0.006  0.00  0.00    +0.000 C 
BRANCH  17  18
ATOM     18  O   UNL     1       1.254  -2.948   1.335  0.00  0.00    +0.000 OA
BRANCH  18  19
ATOM     19  C   UNL     1       1.884  -4.151   1.510  0.00  0.00    +0.000 A 
ATOM     20  C   UNL     1       2.294  -5.026   0.502  0.00  0.00    +0.000 A 
ATOM     21  C   UNL     1       2.938  -6.229   0.829  0.00  0.00    +0.000 A 
ATOM     22  C   UNL     1       3.177  -6.566   2.165  0.00  0.00    +0.000 A 
ATOM     23  C   UNL     1       2.763  -5.695   3.175  0.00  0.00    +0.000 A 
ATOM     24  C   UNL     1       2.119  -4.497   2.845  0.00  0.00    +0.000 A 
BRANCH  22  25
ATOM     25  C   UNL     1       3.838  -7.795   2.494  0.00  0.00    +0.000 C 
ATOM     26  N   UNL     1       4.373  -8.793   2.758  0.00  0.00    +0.000 NA
ENDBRANCH  22  25
ENDBRANCH  18  19
ENDBRANCH  17  18
ENDBRANCH   7  17
TORSDOF 6
