REMARK  Name = 
REMARK  5 active torsions:
REMARK  status: ('A' for Active; 'I' for Inactive)
REMARK    1  A    between atoms: C_2  and  C_5
REMARK    2  A    between atoms: C_9  and  N_10
REMARK    3  A    between atoms: N_10  and  C_11
REMARK    4  A    between atoms: C_11  and  C_12
REMARK    5  A    between atoms: C_16  and  C_17
REMARK                            x       y       z     vdW  Elec       q    Type
REMARK                         _______ _______ _______ _____ _____    ______ ____
ROOT
ATOM      1  C   UNL     1       4.410  -0.958  -5.804  0.00  0.00    +0.000 C 
ENDROOT
BRANCH   1   2
ATOM      2  C   UNL     1       4.791  -2.234  -6.501  0.00  0.00    +0.000 A 
ATOM      3  C   UNL     1       4.329  -3.459  -6.042  0.00  0.00    +0.000 A 
ATOM      4  N   UNL     1       4.586  -4.634  -6.651  0.00  0.00    +0.000 NA
ATOM      5  C   UNL     1       5.347  -4.588  -7.772  0.00  0.00    +0.000 A 
ATOM      6  C   UNL     1       5.879  -3.427  -8.341  0.00  0.00    +0.000 A 
ATOM      7  C   UNL     1       5.588  -2.235  -7.656  0.00  0.00    +0.000 A 
BRANCH   6   8
ATOM      8  C   UNL     1       6.674  -3.455  -9.586  0.00  0.00    +0.000 A 
ATOM      9  C   UNL     1       7.718  -2.551  -9.835  0.00  0.00    +0.000 A 
ATOM     10  C   UNL     1       8.452  -2.615 -11.021  0.00  0.00    +0.000 A 
ATOM     11  C   UNL     1       8.129  -3.592 -11.944  0.00  0.00    +0.000 A 
ATOM     12  N   UNL     1       7.133  -4.480 -11.764  0.00  0.00    +0.000 NA
ATOM     13  C   UNL     1       6.436  -4.386 -10.604  0.00  0.00    +0.000 A 
ENDBRANCH   6   8
ENDBRANCH   1   2
BRANCH   1  14
ATOM     14  N   UNL     1       5.351  -0.608  -4.769  0.00  0.00    +0.000 N 
ATOM     15  H   UNL     1       6.070  -1.264  -4.483  0.00  0.00    +0.000 HD
BRANCH  14  20
ATOM     16  C   UNL     1       6.046   1.628  -2.077  0.00  0.00    +0.000 A 
ATOM     17  C   UNL     1       5.079   2.623  -2.207  0.00  0.00    +0.000 A 
ATOM     18  C   UNL     1       4.151   2.519  -3.230  0.00  0.00    +0.000 A 
ATOM     19  C   UNL     1       4.214   1.433  -4.097  0.00  0.00    +0.000 A 
ATOM     20  C   UNL     1       5.202   0.469  -3.933  0.00  0.00    +0.000 A 
ATOM     21  N   UNL     1       6.103   0.563  -2.934  0.00  0.00    +0.000 NA
BRANCH  16  23
ATOM     22  F   UNL     1       6.879   2.819  -0.147  0.00  0.00    +0.000 F 
ATOM     23  C   UNL     1       7.066   1.725  -0.950  0.00  0.00    +0.000 C 
ATOM     24  F   UNL     1       8.352   1.826  -1.393  0.00  0.00    +0.000 F 
ATOM     25  F   UNL     1       7.039   0.655  -0.104  0.00  0.00    +0.000 F 
ENDBRANCH  16  23
ENDBRANCH  14  20
ENDBRANCH   1  14
TORSDOF 5
