REMARK  Name = 
REMARK  5 active torsions:
REMARK  status: ('A' for Active; 'I' for Inactive)
REMARK    1  A    between atoms: C_2  and  C_4
REMARK    2  A    between atoms: C_7  and  N_8
REMARK    3  A    between atoms: N_8  and  C_9
REMARK    4  A    between atoms: C_9  and  C_10
REMARK    5  A    between atoms: C_14  and  C_15
REMARK                            x       y       z     vdW  Elec       q    Type
REMARK                         _______ _______ _______ _____ _____    ______ ____
ROOT
ATOM      1  N   UNL     1       6.912   3.563  -3.386  0.00  0.00    +0.000 N 
ATOM      2  H   UNL     1       6.653   3.889  -4.315  0.00  0.00    +0.000 HD
ENDROOT
BRANCH   1   6
ATOM      3  C   UNL     1       7.520  -0.486  -3.015  0.00  0.00    +0.000 A 
ATOM      4  N   UNL     1       7.072   0.155  -1.912  0.00  0.00    +0.000 NA
ATOM      5  C   UNL     1       6.844   1.478  -2.067  0.00  0.00    +0.000 A 
ATOM      6  C   UNL     1       7.012   2.190  -3.245  0.00  0.00    +0.000 A 
ATOM      7  C   UNL     1       7.481   1.401  -4.288  0.00  0.00    +0.000 A 
ATOM      8  N   UNL     1       7.734   0.077  -4.217  0.00  0.00    +0.000 NA
BRANCH   3  10
ATOM      9  N   UNL     1       7.586  -2.476  -1.601  0.00  0.00    +0.000 N 
ATOM     10  C   UNL     1       7.824  -1.958  -2.855  0.00  0.00    +0.000 C 
ATOM     11  O   UNL     1       8.257  -2.674  -3.749  0.00  0.00    +0.000 OA
ATOM     12  H   UNL     1       7.778  -3.451  -1.429  0.00  0.00    +0.000 HD
ATOM     13  H   UNL     1       7.239  -1.877  -0.862  0.00  0.00    +0.000 HD
ENDBRANCH   3  10
ENDBRANCH   1   6
BRANCH   1  14
ATOM     14  C   UNL     1       6.462   4.434  -2.313  0.00  0.00    +0.000 C 
BRANCH  14  15
ATOM     15  C   UNL     1       7.024   5.821  -2.518  0.00  0.00    +0.000 A 
ATOM     16  C   UNL     1       6.175   6.930  -2.606  0.00  0.00    +0.000 A 
ATOM     17  C   UNL     1       6.708   8.211  -2.723  0.00  0.00    +0.000 A 
ATOM     18  C   UNL     1       8.090   8.398  -2.743  0.00  0.00    +0.000 A 
ATOM     19  C   UNL     1       8.967   7.307  -2.648  0.00  0.00    +0.000 A 
ATOM     20  C   UNL     1       8.418   6.023  -2.548  0.00  0.00    +0.000 A 
BRANCH  19  21
ATOM     21  C   UNL     1      10.471   7.501  -2.580  0.00  0.00    +0.000 C 
ATOM     22  C   UNL     1      10.866   8.291  -1.320  0.00  0.00    +0.000 C 
ATOM     23  C   UNL     1      12.355   8.604  -1.311  0.00  0.00    +0.000 C 
ATOM     24  O   UNL     1      12.734   9.281  -2.506  0.00  0.00    +0.000 OA
ATOM     25  C   UNL     1      12.523   8.478  -3.666  0.00  0.00    +0.000 C 
ATOM     26  C   UNL     1      11.041   8.166  -3.842  0.00  0.00    +0.000 C 
ENDBRANCH  19  21
ENDBRANCH  14  15
ENDBRANCH   1  14
TORSDOF 5
