REMARK  Name = 
REMARK  5 active torsions:
REMARK  status: ('A' for Active; 'I' for Inactive)
REMARK    1  A    between atoms: C_2  and  C_3
REMARK    2  A    between atoms: C_11  and  C_12
REMARK    3  A    between atoms: C_12  and  N_13
REMARK    4  A    between atoms: N_13  and  C_14
REMARK    5  A    between atoms: C_17  and  C_18
REMARK                            x       y       z     vdW  Elec       q    Type
REMARK                         _______ _______ _______ _____ _____    ______ ____
ROOT
ATOM      1  C   UNL     1      -6.185  -1.368   0.983  0.00  0.00    +0.000 C 
ATOM      2  C   UNL     1      -6.083  -2.876   1.100  0.00  0.00    +0.000 C 
ATOM      3  C   UNL     1      -7.234  -2.294   0.351  0.00  0.00    +0.000 C 
ENDROOT
BRANCH   1  12
ATOM      4  C   UNL     1       0.524   0.576   0.863  0.00  0.00    +0.000 C 
ATOM      5  C   UNL     1      -0.344  -0.644   1.196  0.00  0.00    +0.000 C 
ATOM      6  C   UNL     1      -1.112  -1.161  -0.018  0.00  0.00    +0.000 C 
ATOM      7  N   UNL     1      -1.804  -0.068  -0.702  0.00  0.00    +0.000 N 
ATOM      8  C   UNL     1      -3.180  -0.080  -0.816  0.00  0.00    +0.000 A 
ATOM      9  C   UNL     1      -3.821   0.553  -1.874  0.00  0.00    +0.000 A 
ATOM     10  N   UNL     1      -5.158   0.630  -1.979  0.00  0.00    +0.000 NA
ATOM     11  N   UNL     1      -5.886   0.041  -1.021  0.00  0.00    +0.000 NA
ATOM     12  C   UNL     1      -5.268  -0.643  -0.019  0.00  0.00    +0.000 A 
ATOM     13  N   UNL     1      -3.921  -0.717   0.110  0.00  0.00    +0.000 NA
ATOM     14  C   UNL     1      -1.047   1.127  -1.046  0.00  0.00    +0.000 C 
ATOM     15  C   UNL     1      -0.318   1.659   0.187  0.00  0.00    +0.000 C 
BRANCH   4  17
ATOM     16  N   UNL     1       2.565  -0.084  -0.665  0.00  0.00    +0.000 NA
ATOM     17  C   UNL     1       1.676   0.202   0.017  0.00  0.00    +0.000 C 
ENDBRANCH   4  17
ENDBRANCH   1  12
BRANCH   1  18
ATOM     18  N   UNL     1      -6.742  -0.504   2.062  0.00  0.00    +0.000 N 
ATOM     19  H   UNL     1      -7.221   0.314   1.686  0.00  0.00    +0.000 HD
BRANCH  18  20
ATOM     20  C   UNL     1      -6.088  -0.185   3.267  0.00  0.00    +0.000 A 
ATOM     21  C   UNL     1      -4.998  -0.884   3.786  0.00  0.00    +0.000 A 
ATOM     22  C   UNL     1      -4.495  -0.578   5.063  0.00  0.00    +0.000 A 
ATOM     23  C   UNL     1      -5.083   0.428   5.839  0.00  0.00    +0.000 A 
ATOM     24  C   UNL     1      -6.180   1.126   5.336  0.00  0.00    +0.000 A 
ATOM     25  C   UNL     1      -6.680   0.806   4.071  0.00  0.00    +0.000 A 
BRANCH  23  26
ATOM     26  C   UNL     1      -4.561   0.682   7.210  0.00  0.00    +0.000 C 
ATOM     27  N   UNL     1      -4.767   1.925   7.747  0.00  0.00    +0.000 N 
ATOM     28  O   UNL     1      -3.957  -0.178   7.836  0.00  0.00    +0.000 OA
ATOM     29  H   UNL     1      -5.108   2.714   7.220  0.00  0.00    +0.000 HD
ATOM     30  H   UNL     1      -4.366   2.099   8.659  0.00  0.00    +0.000 HD
ENDBRANCH  23  26
ENDBRANCH  18  20
ENDBRANCH   1  18
TORSDOF 5
