REMARK  Name = 
REMARK  7 active torsions:
REMARK  status: ('A' for Active; 'I' for Inactive)
REMARK    1  A    between atoms: C_1  and  O_2
REMARK    2  A    between atoms: O_2  and  C_3
REMARK    3  A    between atoms: C_7  and  C_8
REMARK    4  A    between atoms: C_8  and  N_9
REMARK    5  A    between atoms: C_13  and  C_14
REMARK    6  A    between atoms: C_14  and  N_15
REMARK    7  A    between atoms: C_16  and  C_18
REMARK                            x       y       z     vdW  Elec       q    Type
REMARK                         _______ _______ _______ _____ _____    ______ ____
ROOT
ATOM      1  N   UNL     1       6.803   1.224  -4.282  0.00  0.00    +0.000 N 
ATOM      2  C   UNL     1       8.116   1.056  -4.695  0.00  0.00    +0.000 A 
ATOM      3  N   UNL     1       8.966   2.099  -4.636  0.00  0.00    +0.000 NA
ATOM      4  C   UNL     1      10.211   1.892  -5.107  0.00  0.00    +0.000 A 
ATOM      5  C   UNL     1      10.648   0.712  -5.652  0.00  0.00    +0.000 A 
ATOM      6  C   UNL     1       9.714  -0.301  -5.625  0.00  0.00    +0.000 A 
ATOM      7  N   UNL     1       8.453  -0.151  -5.169  0.00  0.00    +0.000 NA
ATOM      8  H   UNL     1       6.262   0.483  -4.712  0.00  0.00    +0.000 HD
ENDROOT
BRANCH   1   9
ATOM      9  C   UNL     1       6.289   2.564  -4.506  0.00  0.00    +0.000 C 
BRANCH   9  14
ATOM     10  C   UNL     1       2.494   3.058  -4.431  0.00  0.00    +0.000 A 
ATOM     11  C   UNL     1       2.220   2.827  -3.082  0.00  0.00    +0.000 A 
ATOM     12  C   UNL     1       3.258   2.525  -2.199  0.00  0.00    +0.000 A 
ATOM     13  C   UNL     1       4.571   2.441  -2.660  0.00  0.00    +0.000 A 
ATOM     14  C   UNL     1       4.863   2.655  -4.014  0.00  0.00    +0.000 A 
ATOM     15  C   UNL     1       3.814   2.975  -4.889  0.00  0.00    +0.000 A 
BRANCH  10  17
ATOM     16  C   UNL     1       0.209   3.400  -4.985  0.00  0.00    +0.000 C 
ATOM     17  O   UNL     1       1.571   3.370  -5.393  0.00  0.00    +0.000 OA
ENDBRANCH  10  17
ENDBRANCH   9  14
ENDBRANCH   1   9
BRANCH   5  18
ATOM     18  C   UNL     1      11.998   0.574  -6.263  0.00  0.00    +0.000 C 
BRANCH  18  19
ATOM     19  N   UNL     1      13.047   0.289  -5.316  0.00  0.00    +0.000 N 
ATOM     20  C   UNL     1      14.338   0.112  -5.765  0.00  0.00    +0.000 C 
ATOM     21  O   UNL     1      14.611   0.212  -6.962  0.00  0.00    +0.000 OA
ATOM     22  H   UNL     1      12.880   0.460  -4.327  0.00  0.00    +0.000 HD
BRANCH  20  23
ATOM     23  C   UNL     1      15.355  -0.279  -4.784  0.00  0.00    +0.000 A 
ATOM     24  C   UNL     1      16.650  -0.559  -5.201  0.00  0.00    +0.000 A 
ATOM     25  S   UNL     1      17.609  -1.288  -3.992  0.00  0.00    +0.000 S 
ATOM     26  C   UNL     1      16.342  -1.195  -2.861  0.00  0.00    +0.000 A 
ATOM     27  N   UNL     1      16.453  -1.748  -1.623  0.00  0.00    +0.000 NA
ATOM     28  C   UNL     1      15.430  -1.551  -0.860  0.00  0.00    +0.000 A 
ATOM     29  N   UNL     1      14.326  -0.813  -1.204  0.00  0.00    +0.000 N 
ATOM     30  C   UNL     1      14.186  -0.214  -2.433  0.00  0.00    +0.000 A 
ATOM     31  O   UNL     1      13.241   0.525  -2.691  0.00  0.00    +0.000 OA
ATOM     32  C   UNL     1      15.253  -0.508  -3.366  0.00  0.00    +0.000 A 
ATOM     33  H   UNL     1      13.595  -0.631  -0.532  0.00  0.00    +0.000 HD
ENDBRANCH  20  23
ENDBRANCH  18  19
ENDBRANCH   5  18
TORSDOF 6
