REMARK  Name = 
REMARK  12 active torsions:
REMARK  status: ('A' for Active; 'I' for Inactive)
REMARK    1  A    between atoms: C_1  and  O_2
REMARK    2  A    between atoms: O_2  and  C_3
REMARK    3  A    between atoms: C_10  and  C_11
REMARK    4  A    between atoms: N_13  and  C_14
REMARK    5  A    between atoms: C_14  and  C_15
REMARK    6  A    between atoms: C_18  and  N_19
REMARK    7  A    between atoms: N_19  and  C_20
REMARK    8  A    between atoms: C_20  and  C_21
REMARK    9  A    between atoms: C_21  and  N_22
REMARK   10  A    between atoms: N_25  and  C_26
REMARK   11  A    between atoms: C_26  and  C_27
REMARK   12  A    between atoms: C_27  and  O_28
REMARK                            x       y       z     vdW  Elec       q    Type
REMARK                         _______ _______ _______ _____ _____    ______ ____
ROOT
ATOM      1  C   UNL     1       1.716   3.242   1.481  0.00  0.00    +0.000 A 
ATOM      2  C   UNL     1       0.676   2.366   1.149  0.00  0.00    +0.000 A 
ATOM      3  C   UNL     1      -0.365   2.776   0.306  0.00  0.00    +0.000 A 
ATOM      4  C   UNL     1      -0.403   4.069  -0.223  0.00  0.00    +0.000 A 
ATOM      5  C   UNL     1       0.618   4.953   0.158  0.00  0.00    +0.000 A 
ATOM      6  C   UNL     1       1.659   4.554   1.004  0.00  0.00    +0.000 A 
ENDROOT
BRANCH   4   7
ATOM      7  N   UNL     1      -1.289   4.466  -1.225  0.00  0.00    +0.000 N 
ATOM      8  H   UNL     1      -1.322   5.476  -1.335  0.00  0.00    +0.000 HD
BRANCH   7   9
ATOM      9  C   UNL     1      -2.600   3.822  -1.368  0.00  0.00    +0.000 C 
BRANCH   9  10
ATOM     10  C   UNL     1      -3.347   4.459  -2.564  0.00  0.00    +0.000 C 
BRANCH  10  11
ATOM     11  N   UNL     1      -4.671   3.900  -2.910  0.00  0.00    +0.000 NA
ATOM     12  C   UNL     1      -5.227   4.620  -4.082  0.00  0.00    +0.000 C 
ATOM     13  C   UNL     1      -5.749   6.049  -3.765  0.00  0.00    +0.000 C 
ATOM     14  N   UNL     1      -6.743   6.115  -2.663  0.00  0.00    +0.000 NA
ATOM     15  C   UNL     1      -6.201   5.376  -1.501  0.00  0.00    +0.000 C 
ATOM     16  C   UNL     1      -5.657   3.961  -1.814  0.00  0.00    +0.000 C 
BRANCH  14  17
ATOM     17  C   UNL     1      -8.049   5.599  -3.135  0.00  0.00    +0.000 C 
BRANCH  17  18
ATOM     18  C   UNL     1      -9.188   5.730  -2.110  0.00  0.00    +0.000 C 
BRANCH  18  19
ATOM     19  O   UNL     1      -9.308   7.074  -1.657  0.00  0.00    +0.000 OA
ATOM     20  H   UNL     1      -8.392   7.385  -1.521  0.00  0.00    +0.000 HD
ENDBRANCH  18  19
ENDBRANCH  17  18
ENDBRANCH  14  17
ENDBRANCH  10  11
ENDBRANCH   9  10
ENDBRANCH   7   9
ENDBRANCH   4   7
BRANCH   1  21
ATOM     21  C   UNL     1       2.922   2.748   2.236  0.00  0.00    +0.000 C 
BRANCH  21  24
ATOM     22  C   UNL     1       5.085   1.678   1.784  0.00  0.00    +0.000 C 
ATOM     23  O   UNL     1       5.325   1.629   2.986  0.00  0.00    +0.000 OA
ATOM     24  N   UNL     1       3.922   2.227   1.327  0.00  0.00    +0.000 N 
ATOM     25  H   UNL     1       3.728   2.259   0.333  0.00  0.00    +0.000 HD
BRANCH  22  33
ATOM     26  C   UNL     1       5.120   1.446  -1.662  0.00  0.00    +0.000 A 
ATOM     27  N   UNL     1       5.377   1.194  -2.965  0.00  0.00    +0.000 NA
ATOM     28  C   UNL     1       6.522   0.583  -3.275  0.00  0.00    +0.000 A 
ATOM     29  N   UNL     1       7.471   0.190  -2.431  0.00  0.00    +0.000 NA
ATOM     30  C   UNL     1       7.171   0.447  -1.150  0.00  0.00    +0.000 A 
ATOM     31  S   UNL     1       8.275   0.022   0.071  0.00  0.00    +0.000 S 
ATOM     32  C   UNL     1       7.250   0.620   1.281  0.00  0.00    +0.000 A 
ATOM     33  C   UNL     1       6.054   1.150   0.800  0.00  0.00    +0.000 A 
ATOM     34  C   UNL     1       6.024   1.068  -0.662  0.00  0.00    +0.000 A 
BRANCH  26  36
ATOM     35  C   UNL     1       3.459   2.898  -2.418  0.00  0.00    +0.000 C 
ATOM     36  O   UNL     1       3.939   2.088  -1.346  0.00  0.00    +0.000 OA
ENDBRANCH  26  36
ENDBRANCH  22  33
ENDBRANCH  21  24
ENDBRANCH   1  21
TORSDOF 11
