REMARK  Name = 
REMARK  9 active torsions:
REMARK  status: ('A' for Active; 'I' for Inactive)
REMARK    1  A    between atoms: N_1  and  C_2
REMARK    2  A    between atoms: C_2  and  C_3
REMARK    3  A    between atoms: C_8  and  C_9
REMARK    4  A    between atoms: C_9  and  C_10
REMARK    5  A    between atoms: C_10  and  O_11
REMARK    6  A    between atoms: C_10  and  C_12
REMARK    7  A    between atoms: C_12  and  O_13
REMARK    8  A    between atoms: C_16  and  C_17
REMARK    9  A    between atoms: C_17  and  C_18
REMARK                            x       y       z     vdW  Elec       q    Type
REMARK                         _______ _______ _______ _____ _____    ______ ____
ROOT
ATOM      1  C   UNL     1       3.072   1.332   0.321  0.00  0.00    +0.000 A 
ATOM      2  C   UNL     1       4.251   1.613   1.202  0.00  0.00    +0.000 A 
ATOM      3  N   UNL     1       4.637   2.775   1.632  0.00  0.00    +0.000 NA
ATOM      4  C   UNL     1       3.873   3.833   1.235  0.00  0.00    +0.000 A 
ATOM      5  C   UNL     1       4.014   5.174   1.471  0.00  0.00    +0.000 A 
ATOM      6  C   UNL     1       2.924   5.784   0.823  0.00  0.00    +0.000 A 
ATOM      7  N   UNL     1       2.126   4.888   0.235  0.00  0.00    +0.000 NA
ATOM      8  N   UNL     1       2.727   3.679   0.450  0.00  0.00    +0.000 N 
ATOM      9  C   UNL     1       2.322   2.411  -0.015  0.00  0.00    +0.000 A 
ENDROOT
BRANCH   1  10
ATOM     10  C   UNL     1       2.886  -0.095  -0.082  0.00  0.00    +0.000 C 
BRANCH  10  11
ATOM     11  N   UNL     1       2.131  -0.825   0.925  0.00  0.00    +0.000 NA
ATOM     12  H   UNL     1       1.734  -1.665   0.505  0.00  0.00    +0.000 HD
ATOM     13  H   UNL     1       1.330  -0.270   1.230  0.00  0.00    +0.000 HD
ENDBRANCH  10  11
ENDBRANCH   1  10
BRANCH   6  14
ATOM     14  C   UNL     1       2.614   7.245   0.751  0.00  0.00    +0.000 C 
BRANCH  14  15
ATOM     15  C   UNL     1       1.730   7.766   1.892  0.00  0.00    +0.000 C 
BRANCH  15  16
ATOM     16  O   UNL     1       0.408   7.220   1.829  0.00  0.00    +0.000 OA
ATOM     17  H   UNL     1       0.499   6.249   1.772  0.00  0.00    +0.000 HD
ENDBRANCH  15  16
BRANCH  15  18
ATOM     18  C   UNL     1       2.321   7.533   3.291  0.00  0.00    +0.000 C 
BRANCH  18  19
ATOM     19  O   UNL     1       1.537   8.158   4.309  0.00  0.00    +0.000 OA
ATOM     20  H   UNL     1       0.836   8.676   3.874  0.00  0.00    +0.000 HD
ENDBRANCH  18  19
ENDBRANCH  15  18
ENDBRANCH  14  15
ENDBRANCH   6  14
BRANCH   9  21
ATOM     21  C   UNL     1       1.075   2.344  -0.881  0.00  0.00    +0.000 C 
BRANCH  21  22
ATOM     22  C   UNL     1      -0.190   2.023  -0.104  0.00  0.00    +0.000 A 
ATOM     23  C   UNL     1      -0.657   2.893   0.895  0.00  0.00    +0.000 A 
ATOM     24  C   UNL     1      -1.778   2.566   1.661  0.00  0.00    +0.000 A 
ATOM     25  C   UNL     1      -2.452   1.379   1.415  0.00  0.00    +0.000 A 
ATOM     26  F   UNL     1      -3.509   1.051   2.169  0.00  0.00    +0.000 F 
ATOM     27  C   UNL     1      -2.046   0.528   0.394  0.00  0.00    +0.000 A 
ATOM     28  C   UNL     1      -0.920   0.851  -0.369  0.00  0.00    +0.000 A 
ENDBRANCH  21  22
ENDBRANCH   9  21
TORSDOF 9
