REMARK  Name = 
REMARK  5 active torsions:
REMARK  status: ('A' for Active; 'I' for Inactive)
REMARK    1  A    between atoms: C_2  and  C_4
REMARK    2  A    between atoms: C_7  and  N_8
REMARK    3  A    between atoms: N_8  and  C_9
REMARK    4  A    between atoms: C_9  and  C_10
REMARK    5  A    between atoms: C_14  and  C_15
REMARK                            x       y       z     vdW  Elec       q    Type
REMARK                         _______ _______ _______ _____ _____    ______ ____
ROOT
ATOM      1  C   UNL     1       5.378  -3.901   4.507  0.00  0.00    +0.000 C 
ENDROOT
BRANCH   1   2
ATOM      2  C   UNL     1       6.398  -4.319   5.542  0.00  0.00    +0.000 A 
ATOM      3  C   UNL     1       6.687  -3.518   6.632  0.00  0.00    +0.000 A 
ATOM      4  C   UNL     1       7.567  -4.036   7.554  0.00  0.00    +0.000 A 
ATOM      5  N   UNL     1       8.114  -5.258   7.450  0.00  0.00    +0.000 NA
ATOM      6  C   UNL     1       7.768  -5.983   6.370  0.00  0.00    +0.000 A 
ATOM      7  N   UNL     1       6.936  -5.552   5.402  0.00  0.00    +0.000 NA
BRANCH   6   8
ATOM      8  C   UNL     1       8.239  -7.374   6.292  0.00  0.00    +0.000 A 
ATOM      9  C   UNL     1       9.003  -7.946   7.330  0.00  0.00    +0.000 A 
ATOM     10  C   UNL     1       9.399  -9.284   7.293  0.00  0.00    +0.000 A 
ATOM     11  C   UNL     1       9.043 -10.081   6.209  0.00  0.00    +0.000 A 
ATOM     12  C   UNL     1       8.302  -9.528   5.174  0.00  0.00    +0.000 A 
ATOM     13  F   UNL     1       7.957 -10.294   4.130  0.00  0.00    +0.000 F 
ATOM     14  C   UNL     1       7.904  -8.197   5.205  0.00  0.00    +0.000 A 
ENDBRANCH   6   8
ENDBRANCH   1   2
BRANCH   1  15
ATOM     15  N   UNL     1       5.689  -2.644   3.841  0.00  0.00    +0.000 N 
ATOM     16  H   UNL     1       5.649  -1.812   4.417  0.00  0.00    +0.000 HD
BRANCH  15  20
ATOM     17  C   UNL     1       7.901  -2.231   0.277  0.00  0.00    +0.000 A 
ATOM     18  C   UNL     1       7.738  -3.498   0.839  0.00  0.00    +0.000 A 
ATOM     19  C   UNL     1       7.026  -3.648   2.037  0.00  0.00    +0.000 A 
ATOM     20  C   UNL     1       6.479  -2.546   2.706  0.00  0.00    +0.000 A 
ATOM     21  C   UNL     1       6.639  -1.284   2.114  0.00  0.00    +0.000 A 
ATOM     22  C   UNL     1       7.349  -1.122   0.919  0.00  0.00    +0.000 A 
BRANCH  17  24
ATOM     23  N   UNL     1       8.744  -3.045  -1.861  0.00  0.00    +0.000 N 
ATOM     24  C   UNL     1       8.689  -2.016  -0.962  0.00  0.00    +0.000 C 
ATOM     25  O   UNL     1       9.251  -0.951  -1.190  0.00  0.00    +0.000 OA
ATOM     26  H   UNL     1       9.214  -2.850  -2.734  0.00  0.00    +0.000 HD
ATOM     27  H   UNL     1       8.096  -3.819  -1.837  0.00  0.00    +0.000 HD
ENDBRANCH  17  24
ENDBRANCH  15  20
ENDBRANCH   1  15
TORSDOF 5
