REMARK  Name = 
REMARK  7 active torsions:
REMARK  status: ('A' for Active; 'I' for Inactive)
REMARK    1  A    between atoms: C_1  and  S_2
REMARK    2  A    between atoms: S_2  and  N_5
REMARK    3  A    between atoms: N_5  and  C_6
REMARK    4  A    between atoms: C_10  and  C_11
REMARK    5  A    between atoms: C_11  and  N_12
REMARK    6  A    between atoms: C_17  and  C_18
REMARK    7  A    between atoms: C_18  and  O_19
REMARK                            x       y       z     vdW  Elec       q    Type
REMARK                         _______ _______ _______ _____ _____    ______ ____
ROOT
ATOM      1  C   UNL     1       7.862  -1.875  -0.686  0.00  0.00    +0.000 C 
ENDROOT
BRANCH   1   2
ATOM      2  N   UNL     1       7.260  -2.654   0.397  0.00  0.00    +0.000 N 
ATOM      3  C   UNL     1       6.699  -3.899   0.227  0.00  0.00    +0.000 A 
ATOM      4  C   UNL     1       6.449  -4.430   1.471  0.00  0.00    +0.000 A 
ATOM      5  C   UNL     1       6.874  -3.481   2.439  0.00  0.00    +0.000 A 
ATOM      6  C   UNL     1       6.917  -3.488   3.848  0.00  0.00    +0.000 A 
ATOM      7  C   UNL     1       7.438  -2.388   4.551  0.00  0.00    +0.000 A 
ATOM      8  C   UNL     1       7.858  -1.264   3.832  0.00  0.00    +0.000 A 
ATOM      9  C   UNL     1       7.827  -1.233   2.430  0.00  0.00    +0.000 A 
ATOM     10  C   UNL     1       7.347  -2.362   1.748  0.00  0.00    +0.000 A 
BRANCH   7  11
ATOM     11  C   UNL     1       7.471  -2.433   6.058  0.00  0.00    +0.000 C 
BRANCH  11  12
ATOM     12  O   UNL     1       8.550  -1.675   6.593  0.00  0.00    +0.000 OA
ATOM     13  H   UNL     1       9.364  -2.054   6.219  0.00  0.00    +0.000 HD
ENDBRANCH  11  12
ENDBRANCH   7  11
ENDBRANCH   1   2
BRANCH   1  18
ATOM     14  C   UNL     1       5.638   1.102  -1.515  0.00  0.00    +0.000 A 
ATOM     15  C   UNL     1       5.000   0.585  -2.637  0.00  0.00    +0.000 A 
ATOM     16  N   UNL     1       5.245  -0.650  -3.137  0.00  0.00    +0.000 NA
ATOM     17  C   UNL     1       6.166  -1.400  -2.489  0.00  0.00    +0.000 A 
ATOM     18  C   UNL     1       6.880  -0.970  -1.373  0.00  0.00    +0.000 A 
ATOM     19  C   UNL     1       6.621   0.327  -0.907  0.00  0.00    +0.000 A 
BRANCH  14  20
ATOM     20  N   UNL     1       5.292   2.368  -0.942  0.00  0.00    +0.000 N 
ATOM     21  H   UNL     1       4.283   2.517  -0.857  0.00  0.00    +0.000 HD
BRANCH  20  23
ATOM     22  C   UNL     1       6.824   4.420  -0.177  0.00  0.00    +0.000 C 
ATOM     23  S   UNL     1       5.994   3.756  -1.608  0.00  0.00    +0.000 S 
ATOM     24  O   UNL     1       4.897   4.634  -1.935  0.00  0.00    +0.000 OA
ATOM     25  O   UNL     1       6.998   3.385  -2.583  0.00  0.00    +0.000 OA
ENDBRANCH  20  23
ENDBRANCH  14  20
ENDBRANCH   1  18
TORSDOF 6
