REMARK  Name = 
REMARK  9 active torsions:
REMARK  status: ('A' for Active; 'I' for Inactive)
REMARK    1  A    between atoms: C_1  and  C_2
REMARK    2  A    between atoms: C_2  and  N_3
REMARK    3  A    between atoms: N_6  and  C_7
REMARK    4  A    between atoms: C_11  and  C_12
REMARK    5  A    between atoms: C_12  and  C_13
REMARK    6  A    between atoms: C_12  and  C_14
REMARK    7  A    between atoms: C_12  and  C_15
REMARK    8  A    between atoms: C_15  and  N_16
REMARK    9  A    between atoms: C_20  and  C_21
REMARK                            x       y       z     vdW  Elec       q    Type
REMARK                         _______ _______ _______ _____ _____    ______ ____
ROOT
ATOM      1  C   UNL     1       8.104  -4.372   3.703  0.00  0.00    +0.000 C 
ATOM      2  C   UNL     1       8.065  -5.483   4.778  0.00  0.00    +0.000 C 
ATOM      3  C   UNL     1       9.487  -4.404   3.011  0.00  0.00    +0.000 C 
ENDROOT
BRANCH   1   8
ATOM      4  C   UNL     1       5.084  -3.826   1.340  0.00  0.00    +0.000 A 
ATOM      5  C   UNL     1       5.122  -4.998   0.588  0.00  0.00    +0.000 A 
ATOM      6  C   UNL     1       6.062  -5.994   0.865  0.00  0.00    +0.000 A 
ATOM      7  C   UNL     1       7.006  -5.810   1.878  0.00  0.00    +0.000 A 
ATOM      8  C   UNL     1       7.004  -4.647   2.662  0.00  0.00    +0.000 A 
ATOM      9  C   UNL     1       5.981  -3.721   2.414  0.00  0.00    +0.000 A 
BRANCH   4  13
ATOM     10  N   UNL     1       3.202  -0.724  -0.801  0.00  0.00    +0.000 NA
ATOM     11  C   UNL     1       2.795  -2.150  -0.853  0.00  0.00    +0.000 C 
ATOM     12  C   UNL     1       2.920  -2.911   0.483  0.00  0.00    +0.000 C 
ATOM     13  N   UNL     1       4.259  -2.757   1.054  0.00  0.00    +0.000 N 
ATOM     14  C   UNL     1       4.851  -1.402   1.035  0.00  0.00    +0.000 C 
ATOM     15  C   UNL     1       4.608  -0.694  -0.321  0.00  0.00    +0.000 C 
BRANCH  10  17
ATOM     16  C   UNL     1       0.890   0.142  -0.329  0.00  0.00    +0.000 C 
ATOM     17  C   UNL     1       2.357   0.102   0.077  0.00  0.00    +0.000 C 
ENDBRANCH  10  17
ENDBRANCH   4  13
ENDBRANCH   1   8
BRANCH   1  18
ATOM     18  C   UNL     1       7.973  -3.007   4.466  0.00  0.00    +0.000 C 
BRANCH  18  19
ATOM     19  N   UNL     1       8.165  -1.834   3.604  0.00  0.00    +0.000 N 
ATOM     20  C   UNL     1       7.858  -0.586   4.131  0.00  0.00    +0.000 A 
ATOM     21  C   UNL     1       8.231  -0.217   5.417  0.00  0.00    +0.000 A 
ATOM     22  C   UNL     1       7.979   1.077   5.868  0.00  0.00    +0.000 A 
ATOM     23  C   UNL     1       7.360   1.993   5.022  0.00  0.00    +0.000 A 
ATOM     24  C   UNL     1       7.005   1.541   3.762  0.00  0.00    +0.000 A 
ATOM     25  N   UNL     1       7.236   0.279   3.301  0.00  0.00    +0.000 NA
ATOM     26  H   UNL     1       7.731  -1.892   2.685  0.00  0.00    +0.000 HD
BRANCH  23  27
ATOM     27  C   UNL     1       7.144   3.376   5.517  0.00  0.00    +0.000 C 
ATOM     28  N   UNL     1       6.589   4.306   4.685  0.00  0.00    +0.000 N 
ATOM     29  O   UNL     1       7.470   3.699   6.655  0.00  0.00    +0.000 OA
ATOM     30  H   UNL     1       6.343   4.172   3.717  0.00  0.00    +0.000 HD
ATOM     31  H   UNL     1       6.508   5.245   5.059  0.00  0.00    +0.000 HD
ENDBRANCH  23  27
ENDBRANCH  18  19
ENDBRANCH   1  18
TORSDOF 6
