REMARK  Name = 
REMARK  4 active torsions:
REMARK  status: ('A' for Active; 'I' for Inactive)
REMARK    1  A    between atoms: C_2  and  C_4
REMARK    2  A    between atoms: C_7  and  N_8
REMARK    3  A    between atoms: N_8  and  C_9
REMARK    4  A    between atoms: C_9  and  C_10
REMARK                            x       y       z     vdW  Elec       q    Type
REMARK                         _______ _______ _______ _____ _____    ______ ____
ROOT
ATOM      1  C   UNL     1       3.330  -0.473   1.044  0.00  0.00    +0.000 A 
ATOM      2  N   UNL     1       4.677  -0.499   1.186  0.00  0.00    +0.000 NA
ATOM      3  C   UNL     1       5.132  -1.205   2.247  0.00  0.00    +0.000 A 
ATOM      4  C   UNL     1       4.329  -1.879   3.158  0.00  0.00    +0.000 A 
ATOM      5  C   UNL     1       2.981  -1.825   2.845  0.00  0.00    +0.000 A 
ATOM      6  N   UNL     1       2.447  -1.123   1.825  0.00  0.00    +0.000 NA
ENDROOT
BRANCH   1   8
ATOM      7  N   UNL     1       3.719   1.123  -0.772  0.00  0.00    +0.000 N 
ATOM      8  C   UNL     1       2.788   0.413  -0.053  0.00  0.00    +0.000 C 
ATOM      9  O   UNL     1       1.593   0.524  -0.320  0.00  0.00    +0.000 OA
ATOM     10  H   UNL     1       3.402   1.690  -1.545  0.00  0.00    +0.000 HD
ATOM     11  H   UNL     1       4.710   0.991  -0.596  0.00  0.00    +0.000 HD
ENDBRANCH   1   8
BRANCH   4  12
ATOM     12  N   UNL     1       4.766  -2.540   4.292  0.00  0.00    +0.000 N 
ATOM     13  H   UNL     1       4.714  -3.557   4.271  0.00  0.00    +0.000 HD
BRANCH  12  14
ATOM     14  C   UNL     1       5.916  -2.029   5.038  0.00  0.00    +0.000 C 
BRANCH  14  15
ATOM     15  C   UNL     1       5.757  -2.352   6.512  0.00  0.00    +0.000 A 
ATOM     16  C   UNL     1       4.646  -1.879   7.214  0.00  0.00    +0.000 A 
ATOM     17  C   UNL     1       4.514  -2.198   8.562  0.00  0.00    +0.000 A 
ATOM     18  C   UNL     1       5.491  -2.971   9.176  0.00  0.00    +0.000 A 
ATOM     19  C   UNL     1       6.566  -3.394   8.413  0.00  0.00    +0.000 A 
ATOM     20  N   UNL     1       6.720  -3.107   7.100  0.00  0.00    +0.000 NA
ENDBRANCH  14  15
ENDBRANCH  12  14
ENDBRANCH   4  12
TORSDOF 4
