REMARK  Name = 
REMARK  10 active torsions:
REMARK  status: ('A' for Active; 'I' for Inactive)
REMARK    1  A    between atoms: C_1  and  C_2
REMARK    2  A    between atoms: C_2  and  C_3
REMARK    3  A    between atoms: C_2  and  C_4
REMARK    4  A    between atoms: C_2  and  C_5
REMARK    5  A    between atoms: C_8  and  C_9
REMARK    6  A    between atoms: N_16  and  C_17
REMARK    7  A    between atoms: C_17  and  C_18
REMARK    8  A    between atoms: C_21  and  C_22
REMARK    9  A    between atoms: C_22  and  C_23
REMARK   10  A    between atoms: C_23  and  N_24
REMARK                            x       y       z     vdW  Elec       q    Type
REMARK                         _______ _______ _______ _____ _____    ______ ____
ROOT
ATOM      1  C   UNL     1       2.865  -1.246   0.745  0.00  0.00    +0.000 A 
ATOM      2  N   UNL     1       2.570  -2.520   0.554  0.00  0.00    +0.000 NA
ATOM      3  C   UNL     1       3.073  -3.231   1.599  0.00  0.00    +0.000 A 
ATOM      4  C   UNL     1       3.035  -4.611   1.835  0.00  0.00    +0.000 A 
ATOM      5  C   UNL     1       3.661  -5.044   2.984  0.00  0.00    +0.000 A 
ATOM      6  N   UNL     1       4.310  -4.231   3.852  0.00  0.00    +0.000 NA
ATOM      7  C   UNL     1       4.347  -2.897   3.612  0.00  0.00    +0.000 A 
ATOM      8  C   UNL     1       3.710  -2.380   2.490  0.00  0.00    +0.000 A 
ATOM      9  N   UNL     1       3.515  -1.091   1.978  0.00  0.00    +0.000 N 
ENDROOT
BRANCH   4  10
ATOM     10  C   UNL     1       2.377  -5.564   0.923  0.00  0.00    +0.000 C 
ATOM     11  N   UNL     1       1.796  -5.055  -0.203  0.00  0.00    +0.000 N 
ATOM     12  O   UNL     1       2.365  -6.766   1.166  0.00  0.00    +0.000 OA
ATOM     13  H   UNL     1       1.818  -4.055  -0.399  0.00  0.00    +0.000 HD
ATOM     14  H   UNL     1       1.349  -5.681  -0.856  0.00  0.00    +0.000 HD
ENDBRANCH   4  10
BRANCH   1  16
ATOM     15  C   UNL     1       0.927   0.108  -0.016  0.00  0.00    +0.000 C 
ATOM     16  C   UNL     1       2.398  -0.240  -0.307  0.00  0.00    +0.000 C 
ATOM     17  C   UNL     1       2.443  -0.938  -1.703  0.00  0.00    +0.000 C 
ATOM     18  C   UNL     1       3.233   1.029  -0.449  0.00  0.00    +0.000 C 
ENDBRANCH   1  16
BRANCH   9  19
ATOM     19  C   UNL     1       4.012   0.131   2.636  0.00  0.00    +0.000 C 
BRANCH  19  20
ATOM     20  C   UNL     1       3.376   0.404   3.989  0.00  0.00    +0.000 A 
ATOM     21  C   UNL     1       3.978  -0.031   5.179  0.00  0.00    +0.000 A 
ATOM     22  C   UNL     1       3.235  -0.141   6.360  0.00  0.00    +0.000 A 
ATOM     23  C   UNL     1       1.902   0.272   6.390  0.00  0.00    +0.000 A 
ATOM     24  C   UNL     1       1.400   0.964   5.278  0.00  0.00    +0.000 A 
ATOM     25  C   UNL     1       2.125   1.019   4.083  0.00  0.00    +0.000 A 
BRANCH  23  26
ATOM     26  C   UNL     1       0.929  -0.239   7.433  0.00  0.00    +0.000 C 
BRANCH  26  27
ATOM     27  C   UNL     1       1.328  -0.160   8.909  0.00  0.00    +0.000 C 
BRANCH  27  28
ATOM     28  N   UNL     1       0.335  -0.863   9.728  0.00  0.00    +0.000 NA
ATOM     29  H   UNL     1      -0.567  -0.392   9.666  0.00  0.00    +0.000 HD
ATOM     30  H   UNL     1       0.610  -0.840  10.708  0.00  0.00    +0.000 HD
ENDBRANCH  27  28
ENDBRANCH  26  27
ENDBRANCH  23  26
ENDBRANCH  19  20
ENDBRANCH   9  19
TORSDOF 7
