REMARK  Name = 
REMARK  6 active torsions:
REMARK  status: ('A' for Active; 'I' for Inactive)
REMARK    1  A    between atoms: C_2  and  O_3
REMARK    2  A    between atoms: C_2  and  C_4
REMARK    3  A    between atoms: C_7  and  C_8
REMARK    4  A    between atoms: C_8  and  C_9
REMARK    5  A    between atoms: C_9  and  C_10
REMARK    6  A    between atoms: C_14  and  C_15
REMARK                            x       y       z     vdW  Elec       q    Type
REMARK                         _______ _______ _______ _____ _____    ______ ____
ROOT
ATOM      1  C   UNL     1       4.895  -5.664  -1.694  0.00  0.00    +0.000 C 
ATOM      2  C   UNL     1       4.579  -4.608  -0.610  0.00  0.00    +0.000 C 
ATOM      3  C   UNL     1       5.744  -4.398  -1.520  0.00  0.00    +0.000 C 
ENDROOT
BRANCH   1   4
ATOM      4  C   UNL     1       5.529  -6.952  -1.225  0.00  0.00    +0.000 A 
ATOM      5  C   UNL     1       6.898  -7.180  -1.357  0.00  0.00    +0.000 A 
ATOM      6  C   UNL     1       7.431  -8.330  -0.823  0.00  0.00    +0.000 A 
ATOM      7  N   UNL     1       6.700  -9.290  -0.220  0.00  0.00    +0.000 NA
ATOM      8  C   UNL     1       5.365  -9.093  -0.133  0.00  0.00    +0.000 A 
ATOM      9  C   UNL     1       4.760  -7.941  -0.611  0.00  0.00    +0.000 A 
BRANCH   8  10
ATOM     10  C   UNL     1       4.522 -10.170   0.518  0.00  0.00    +0.000 C 
ATOM     11  C   UNL     1       4.972 -10.400   1.968  0.00  0.00    +0.000 C 
ATOM     12  C   UNL     1       4.193 -11.529   2.634  0.00  0.00    +0.000 C 
ATOM     13  C   UNL     1       4.275 -12.814   1.816  0.00  0.00    +0.000 C 
ATOM     14  C   UNL     1       3.783 -12.596   0.388  0.00  0.00    +0.000 C 
ATOM     15  C   UNL     1       4.553 -11.472  -0.303  0.00  0.00    +0.000 C 
ENDBRANCH   8  10
ENDBRANCH   1   4
BRANCH   1  16
ATOM     16  C   UNL     1       3.810  -5.878  -2.760  0.00  0.00    +0.000 C 
BRANCH  16  20
ATOM     17  C   UNL     1       4.689  -7.381  -6.668  0.00  0.00    +0.000 A 
ATOM     18  C   UNL     1       4.354  -8.297  -5.680  0.00  0.00    +0.000 A 
ATOM     19  C   UNL     1       4.143  -7.847  -4.379  0.00  0.00    +0.000 A 
ATOM     20  C   UNL     1       4.207  -6.478  -4.097  0.00  0.00    +0.000 A 
ATOM     21  N   UNL     1       4.514  -5.581  -5.072  0.00  0.00    +0.000 NA
ATOM     22  C   UNL     1       4.781  -6.046  -6.320  0.00  0.00    +0.000 A 
BRANCH  17  24
ATOM     23  O   UNL     1       5.730  -7.302  -8.786  0.00  0.00    +0.000 OA
ATOM     24  C   UNL     1       4.955  -7.835  -8.045  0.00  0.00    +0.000 C 
BRANCH  24  25
ATOM     25  O   UNL     1       4.183  -8.905  -8.372  0.00  0.00    +0.000 OA
ATOM     26  H   UNL     1       3.466  -9.110  -7.743  0.00  0.00    +0.000 HD
ENDBRANCH  24  25
ENDBRANCH  17  24
ENDBRANCH  16  20
ENDBRANCH   1  16
TORSDOF 6
