REMARK  Name = 
REMARK  4 active torsions:
REMARK  status: ('A' for Active; 'I' for Inactive)
REMARK    1  A    between atoms: C_2  and  C_3
REMARK    2  A    between atoms: C_7  and  C_8
REMARK    3  A    between atoms: C_8  and  C_9
REMARK    4  A    between atoms: C_13  and  C_14
REMARK                            x       y       z     vdW  Elec       q    Type
REMARK                         _______ _______ _______ _____ _____    ______ ____
ROOT
ATOM      1  C   UNL     1       2.014   2.336   0.039  0.00  0.00    +0.000 C 
ATOM      2  C   UNL     1       3.201   2.950  -0.678  0.00  0.00    +0.000 C 
ATOM      3  C   UNL     1       3.245   2.794   0.809  0.00  0.00    +0.000 C 
ENDROOT
BRANCH   1   8
ATOM      4  C   UNL     1       0.995  -1.123   1.344  0.00  0.00    +0.000 A 
ATOM      5  C   UNL     1       0.814  -1.834   0.157  0.00  0.00    +0.000 A 
ATOM      6  C   UNL     1       1.098  -1.232  -1.068  0.00  0.00    +0.000 A 
ATOM      7  C   UNL     1       1.562   0.086  -1.112  0.00  0.00    +0.000 A 
ATOM      8  C   UNL     1       1.741   0.829   0.066  0.00  0.00    +0.000 A 
ATOM      9  C   UNL     1       1.454   0.197   1.290  0.00  0.00    +0.000 A 
BRANCH   4  11
ATOM     10  N   UNL     1       0.425  -2.230   3.620  0.00  0.00    +0.000 NA
ATOM     11  C   UNL     1       0.682  -1.728   2.605  0.00  0.00    +0.000 C 
ENDBRANCH   4  11
ENDBRANCH   1   8
BRANCH   1  12
ATOM     12  C   UNL     1       0.707   3.126   0.082  0.00  0.00    +0.000 A 
ATOM     13  C   UNL     1      -0.083   3.190  -1.061  0.00  0.00    +0.000 A 
ATOM     14  C   UNL     1      -1.413   3.494  -0.892  0.00  0.00    +0.000 A 
ATOM     15  N   UNL     1      -1.958   3.763   0.302  0.00  0.00    +0.000 NA
ATOM     16  C   UNL     1      -1.092   3.773   1.344  0.00  0.00    +0.000 A 
ATOM     17  N   UNL     1       0.219   3.481   1.288  0.00  0.00    +0.000 NA
BRANCH  16  18
ATOM     18  C   UNL     1      -1.701   3.899   2.719  0.00  0.00    +0.000 C 
ATOM     19  N   UNL     1      -3.064   3.718   2.779  0.00  0.00    +0.000 N 
ATOM     20  O   UNL     1      -1.052   4.096   3.739  0.00  0.00    +0.000 OA
ATOM     21  H   UNL     1      -3.571   3.445   1.944  0.00  0.00    +0.000 HD
ATOM     22  H   UNL     1      -3.499   3.644   3.687  0.00  0.00    +0.000 HD
ENDBRANCH  16  18
ENDBRANCH   1  12
TORSDOF 4
