REMARK  Name = 
REMARK  7 active torsions:
REMARK  status: ('A' for Active; 'I' for Inactive)
REMARK    1  A    between atoms: C_2  and  C_3
REMARK    2  A    between atoms: C_6  and  C_7
REMARK    3  A    between atoms: N_9  and  C_10
REMARK    4  A    between atoms: C_10  and  C_11
REMARK    5  A    between atoms: C_14  and  C_15
REMARK    6  A    between atoms: C_15  and  N_16
REMARK    7  A    between atoms: C_17  and  C_19
REMARK                            x       y       z     vdW  Elec       q    Type
REMARK                         _______ _______ _______ _____ _____    ______ ____
ROOT
ATOM      1  C   UNL     1       4.903   2.728   5.626  0.00  0.00    +0.000 C 
ATOM      2  C   UNL     1       4.044   1.486   5.911  0.00  0.00    +0.000 C 
ATOM      3  C   UNL     1       2.834   1.808   6.790  0.00  0.00    +0.000 C 
ATOM      4  C   UNL     1       1.961   2.914   6.179  0.00  0.00    +0.000 C 
ATOM      5  C   UNL     1       2.814   4.163   5.908  0.00  0.00    +0.000 C 
ATOM      6  C   UNL     1       4.032   3.852   5.037  0.00  0.00    +0.000 C 
ENDROOT
BRANCH   1   7
ATOM      7  C   UNL     1       6.069   2.403   4.670  0.00  0.00    +0.000 C 
BRANCH   7  10
ATOM      8  C   UNL     1       8.049   1.750   6.018  0.00  0.00    +0.000 C 
ATOM      9  O   UNL     1       8.342   2.908   6.296  0.00  0.00    +0.000 OA
ATOM     10  N   UNL     1       6.985   1.411   5.210  0.00  0.00    +0.000 N 
ATOM     11  H   UNL     1       6.754   0.435   5.082  0.00  0.00    +0.000 HD
BRANCH   8  15
ATOM     12  C   UNL     1      10.844  -0.306   7.534  0.00  0.00    +0.000 C 
ATOM     13  C   UNL     1      10.761  -0.857   6.109  0.00  0.00    +0.000 C 
ATOM     14  C   UNL     1       9.457  -0.321   5.503  0.00  0.00    +0.000 C 
ATOM     15  C   UNL     1       8.800   0.548   6.579  0.00  0.00    +0.000 C 
ATOM     16  C   UNL     1       9.966   0.941   7.491  0.00  0.00    +0.000 C 
BRANCH  12  18
ATOM     17  N   UNL     1       9.949  -2.058   9.288  0.00  0.00    +0.000 NA
ATOM     18  C   UNL     1      10.347  -1.284   8.518  0.00  0.00    +0.000 C 
ENDBRANCH  12  18
ENDBRANCH   8  15
ENDBRANCH   7  10
ENDBRANCH   1   7
BRANCH   4  19
ATOM     19  C   UNL     1       0.772   3.274   7.088  0.00  0.00    +0.000 C 
BRANCH  19  20
ATOM     20  N   UNL     1      -0.117   2.156   7.329  0.00  0.00    +0.000 N 
ATOM     21  C   UNL     1      -1.114   1.795   6.458  0.00  0.00    +0.000 C 
ATOM     22  O   UNL     1      -1.303   2.391   5.400  0.00  0.00    +0.000 OA
ATOM     23  H   UNL     1      -0.061   1.706   8.238  0.00  0.00    +0.000 HD
BRANCH  21  24
ATOM     24  C   UNL     1      -1.918   0.621   6.825  0.00  0.00    +0.000 A 
ATOM     25  C   UNL     1      -2.589  -0.083   5.833  0.00  0.00    +0.000 A 
ATOM     26  S   UNL     1      -3.481  -1.412   6.418  0.00  0.00    +0.000 S 
ATOM     27  C   UNL     1      -3.029  -1.077   8.024  0.00  0.00    +0.000 A 
ATOM     28  N   UNL     1      -3.491  -1.841   9.051  0.00  0.00    +0.000 NA
ATOM     29  C   UNL     1      -3.093  -1.460  10.219  0.00  0.00    +0.000 A 
ATOM     30  N   UNL     1      -2.266  -0.394  10.452  0.00  0.00    +0.000 N 
ATOM     31  C   UNL     1      -1.736   0.377   9.442  0.00  0.00    +0.000 A 
ATOM     32  O   UNL     1      -0.924   1.266   9.679  0.00  0.00    +0.000 OA
ATOM     33  C   UNL     1      -2.183   0.015   8.110  0.00  0.00    +0.000 A 
ATOM     34  H   UNL     1      -1.969  -0.166  11.390  0.00  0.00    +0.000 HD
ENDBRANCH  21  24
ENDBRANCH  19  20
ENDBRANCH   4  19
TORSDOF 7
