REMARK  Name = 
REMARK  6 active torsions:
REMARK  status: ('A' for Active; 'I' for Inactive)
REMARK    1  A    between atoms: C_2  and  C_19
REMARK    2  A    between atoms: N_3  and  C_4
REMARK    3  A    between atoms: C_4  and  C_5
REMARK    4  A    between atoms: C_10  and  C_11
REMARK    5  A    between atoms: C_11  and  N_12
REMARK    6  A    between atoms: N_12  and  C_13
REMARK                            x       y       z     vdW  Elec       q    Type
REMARK                         _______ _______ _______ _____ _____    ______ ____
ROOT
ATOM      1  C   UNL     1       2.237  -1.517  -1.880  0.00  0.00    +0.000 C 
ENDROOT
BRANCH   1   2
ATOM      2  C   UNL     1       3.159  -2.391  -2.683  0.00  0.00    +0.000 A 
ATOM      3  C   UNL     1       4.183  -1.791  -3.436  0.00  0.00    +0.000 A 
ATOM      4  C   UNL     1       4.977  -2.558  -4.282  0.00  0.00    +0.000 A 
ATOM      5  C   UNL     1       4.734  -3.915  -4.343  0.00  0.00    +0.000 A 
ATOM      6  N   UNL     1       3.782  -4.537  -3.617  0.00  0.00    +0.000 NA
ATOM      7  C   UNL     1       3.007  -3.782  -2.785  0.00  0.00    +0.000 A 
BRANCH   7   8
ATOM      8  C   UNL     1       1.922  -4.549  -2.041  0.00  0.00    +0.000 C 
BRANCH   8   9
ATOM      9  N   UNL     1       0.662  -4.492  -2.782  0.00  0.00    +0.000 N 
ATOM     10  H   UNL     1       0.817  -4.583  -3.786  0.00  0.00    +0.000 HD
BRANCH   9  11
ATOM     11  C   UNL     1      -0.448  -5.241  -2.379  0.00  0.00    +0.000 A 
ATOM     12  C   UNL     1      -0.537  -5.940  -1.170  0.00  0.00    +0.000 A 
ATOM     13  C   UNL     1      -1.713  -6.612  -0.806  0.00  0.00    +0.000 A 
ATOM     14  C   UNL     1      -2.835  -6.568  -1.630  0.00  0.00    +0.000 A 
ATOM     15  C   UNL     1      -2.778  -5.853  -2.821  0.00  0.00    +0.000 A 
ATOM     16  C   UNL     1      -1.597  -5.196  -3.185  0.00  0.00    +0.000 A 
ENDBRANCH   9  11
ENDBRANCH   8   9
ENDBRANCH   7   8
ENDBRANCH   1   2
BRANCH   1  19
ATOM     17  O   UNL     1       1.028   0.304  -0.254  0.00  0.00    +0.000 OA
ATOM     18  C   UNL     1       1.992  -0.295   0.211  0.00  0.00    +0.000 C 
ATOM     19  N   UNL     1       2.702  -1.211  -0.548  0.00  0.00    +0.000 N 
ATOM     20  H   UNL     1       3.497  -1.677  -0.124  0.00  0.00    +0.000 HD
BRANCH  18  21
ATOM     21  C   UNL     1       2.496  -0.058   1.576  0.00  0.00    +0.000 A 
ATOM     22  N   UNL     1       3.686  -0.576   1.931  0.00  0.00    +0.000 NA
ATOM     23  S   UNL     1       4.082  -0.053   3.455  0.00  0.00    +0.000 S 
ATOM     24  C   UNL     1       2.662   0.848   3.718  0.00  0.00    +0.000 A 
ATOM     25  N   UNL     1       2.411   1.556   4.853  0.00  0.00    +0.000 NA
ATOM     26  C   UNL     1       1.278   2.176   4.839  0.00  0.00    +0.000 A 
ATOM     27  N   UNL     1       0.378   2.139   3.803  0.00  0.00    +0.000 N 
ATOM     28  C   UNL     1       0.562   1.379   2.665  0.00  0.00    +0.000 A 
ATOM     29  O   UNL     1      -0.343   1.266   1.850  0.00  0.00    +0.000 OA
ATOM     30  C   UNL     1       1.851   0.723   2.607  0.00  0.00    +0.000 A 
ATOM     31  H   UNL     1      -0.516   2.603   3.874  0.00  0.00    +0.000 HD
ENDBRANCH  18  21
ENDBRANCH   1  19
TORSDOF 6
