REMARK  Name = 
REMARK  9 active torsions:
REMARK  status: ('A' for Active; 'I' for Inactive)
REMARK    1  A    between atoms: C_1  and  O_2
REMARK    2  A    between atoms: O_2  and  C_3
REMARK    3  A    between atoms: C_10  and  C_11
REMARK    4  A    between atoms: N_13  and  C_14
REMARK    5  A    between atoms: C_14  and  C_15
REMARK    6  A    between atoms: C_18  and  C_19
REMARK    7  A    between atoms: C_19  and  O_20
REMARK    8  A    between atoms: O_20  and  C_21
REMARK    9  A    between atoms: C_21  and  C_22
REMARK                            x       y       z     vdW  Elec       q    Type
REMARK                         _______ _______ _______ _____ _____    ______ ____
ROOT
ATOM      1  C   UNL     1       3.071  -2.160   2.568  0.00  0.00    +0.000 C 
ENDROOT
BRANCH   1   2
ATOM      2  C   UNL     1       1.976  -1.290   3.137  0.00  0.00    +0.000 A 
ATOM      3  C   UNL     1       0.813  -1.859   3.675  0.00  0.00    +0.000 A 
ATOM      4  C   UNL     1      -0.206  -1.048   4.190  0.00  0.00    +0.000 A 
ATOM      5  C   UNL     1      -0.091   0.349   4.168  0.00  0.00    +0.000 A 
ATOM      6  C   UNL     1       1.063   0.916   3.612  0.00  0.00    +0.000 A 
ATOM      7  C   UNL     1       2.083   0.106   3.099  0.00  0.00    +0.000 A 
BRANCH   5   8
ATOM      8  C   UNL     1      -1.196   1.223   4.710  0.00  0.00    +0.000 C 
BRANCH   8   9
ATOM      9  O   UNL     1      -1.399   0.926   6.089  0.00  0.00    +0.000 OA
BRANCH   9  10
ATOM     10  C   UNL     1      -2.410   1.750   6.671  0.00  0.00    +0.000 C 
BRANCH  10  11
ATOM     11  C   UNL     1      -2.588   1.401   8.122  0.00  0.00    +0.000 A 
ATOM     12  C   UNL     1      -1.529   0.955   8.920  0.00  0.00    +0.000 A 
ATOM     13  C   UNL     1      -1.743   0.669  10.264  0.00  0.00    +0.000 A 
ATOM     14  C   UNL     1      -3.015   0.855  10.780  0.00  0.00    +0.000 A 
ATOM     15  N   UNL     1      -4.059   1.307  10.053  0.00  0.00    +0.000 NA
ATOM     16  C   UNL     1      -3.820   1.571   8.747  0.00  0.00    +0.000 A 
ENDBRANCH  10  11
ENDBRANCH   9  10
ENDBRANCH   8   9
ENDBRANCH   5   8
ENDBRANCH   1   2
BRANCH   1  19
ATOM     17  C   UNL     1       3.676  -3.207   0.415  0.00  0.00    +0.000 C 
ATOM     18  O   UNL     1       4.670  -3.739   0.908  0.00  0.00    +0.000 OA
ATOM     19  N   UNL     1       2.851  -2.416   1.165  0.00  0.00    +0.000 N 
ATOM     20  H   UNL     1       2.066  -1.950   0.733  0.00  0.00    +0.000 HD
BRANCH  17  28
ATOM     21  C   UNL     1       1.057  -2.126  -1.541  0.00  0.00    +0.000 A 
ATOM     22  N   UNL     1       0.173  -1.838  -2.515  0.00  0.00    +0.000 NA
ATOM     23  C   UNL     1       0.402  -2.331  -3.735  0.00  0.00    +0.000 A 
ATOM     24  N   UNL     1       1.424  -3.093  -4.112  0.00  0.00    +0.000 NA
ATOM     25  C   UNL     1       2.287  -3.347  -3.113  0.00  0.00    +0.000 A 
ATOM     26  S   UNL     1       3.655  -4.307  -3.413  0.00  0.00    +0.000 S 
ATOM     27  C   UNL     1       4.171  -4.162  -1.801  0.00  0.00    +0.000 A 
ATOM     28  C   UNL     1       3.330  -3.392  -1.006  0.00  0.00    +0.000 A 
ATOM     29  C   UNL     1       2.199  -2.907  -1.796  0.00  0.00    +0.000 A 
BRANCH  21  31
ATOM     30  C   UNL     1      -0.535  -1.299  -0.040  0.00  0.00    +0.000 C 
ATOM     31  O   UNL     1       0.837  -1.591  -0.289  0.00  0.00    +0.000 OA
ENDBRANCH  21  31
ENDBRANCH  17  28
ENDBRANCH   1  19
TORSDOF 8
