REMARK  Name = 
REMARK  5 active torsions:
REMARK  status: ('A' for Active; 'I' for Inactive)
REMARK    1  A    between atoms: C_2  and  C_4
REMARK    2  A    between atoms: C_7  and  O_8
REMARK    3  A    between atoms: O_8  and  C_9
REMARK    4  A    between atoms: C_9  and  C_10
REMARK    5  A    between atoms: C_14  and  C_15
REMARK                            x       y       z     vdW  Elec       q    Type
REMARK                         _______ _______ _______ _____ _____    ______ ____
ROOT
ATOM      1  C   UNL     1       5.150   3.134   4.899  0.00  0.00    +0.000 C 
ENDROOT
BRANCH   1   2
ATOM      2  C   UNL     1       6.077   4.002   5.724  0.00  0.00    +0.000 A 
ATOM      3  C   UNL     1       5.977   5.396   5.643  0.00  0.00    +0.000 A 
ATOM      4  C   UNL     1       6.753   6.207   6.466  0.00  0.00    +0.000 A 
ATOM      5  C   UNL     1       7.612   5.633   7.406  0.00  0.00    +0.000 A 
ATOM      6  C   UNL     1       7.700   4.238   7.558  0.00  0.00    +0.000 A 
ATOM      7  C   UNL     1       6.942   3.442   6.677  0.00  0.00    +0.000 A 
BRANCH   6   8
ATOM      8  C   UNL     1       8.446   3.616   8.678  0.00  0.00    +0.000 A 
ATOM      9  C   UNL     1       8.488   4.233   9.946  0.00  0.00    +0.000 A 
ATOM     10  C   UNL     1       9.046   3.594  11.058  0.00  0.00    +0.000 A 
ATOM     11  C   UNL     1       9.574   2.316  10.927  0.00  0.00    +0.000 A 
ATOM     12  C   UNL     1       9.573   1.707   9.680  0.00  0.00    +0.000 A 
ATOM     13  F   UNL     1      10.069   0.469   9.553  0.00  0.00    +0.000 F 
ATOM     14  C   UNL     1       9.035   2.345   8.564  0.00  0.00    +0.000 A 
ENDBRANCH   6   8
ENDBRANCH   1   2
BRANCH   1  15
ATOM     15  O   UNL     1       5.776   1.900   4.530  0.00  0.00    +0.000 OA
BRANCH  15  19
ATOM     16  C   UNL     1       3.328  -0.495   2.239  0.00  0.00    +0.000 A 
ATOM     17  C   UNL     1       4.623  -0.919   2.541  0.00  0.00    +0.000 A 
ATOM     18  C   UNL     1       5.440  -0.104   3.327  0.00  0.00    +0.000 A 
ATOM     19  C   UNL     1       4.931   1.104   3.781  0.00  0.00    +0.000 A 
ATOM     20  N   UNL     1       3.681   1.534   3.509  0.00  0.00    +0.000 NA
ATOM     21  C   UNL     1       2.911   0.731   2.737  0.00  0.00    +0.000 A 
BRANCH  16  23
ATOM     22  N   UNL     1       2.579  -2.604   1.276  0.00  0.00    +0.000 N 
ATOM     23  C   UNL     1       2.393  -1.257   1.382  0.00  0.00    +0.000 C 
ATOM     24  O   UNL     1       1.463  -0.703   0.805  0.00  0.00    +0.000 OA
ATOM     25  H   UNL     1       1.874  -3.114   0.760  0.00  0.00    +0.000 HD
ATOM     26  H   UNL     1       3.164  -3.130   1.912  0.00  0.00    +0.000 HD
ENDBRANCH  16  23
ENDBRANCH  15  19
ENDBRANCH   1  15
TORSDOF 5
