REMARK  Name = 
REMARK  13 active torsions:
REMARK  status: ('A' for Active; 'I' for Inactive)
REMARK    1  A    between atoms: C_1  and  N_2
REMARK    2  A    between atoms: N_2  and  C_3
REMARK    3  A    between atoms: N_2  and  C_4
REMARK    4  A    between atoms: C_4  and  C_5
REMARK    5  A    between atoms: C_5  and  N_6
REMARK    6  A    between atoms: C_7  and  C_9
REMARK    7  A    between atoms: C_13  and  O_14
REMARK    8  A    between atoms: O_14  and  C_15
REMARK    9  A    between atoms: C_15  and  C_16
REMARK   10  A    between atoms: C_16  and  C_17
REMARK   11  A    between atoms: C_16  and  C_18
REMARK   12  A    between atoms: C_16  and  C_19
REMARK   13  A    between atoms: C_23  and  C_24
REMARK                            x       y       z     vdW  Elec       q    Type
REMARK                         _______ _______ _______ _____ _____    ______ ____
ROOT
ATOM      1  O   UNL     1       9.425   6.695  -1.048  0.00  0.00    +0.000 OA
ENDROOT
BRANCH   1   6
ATOM      2  C   UNL     1       6.904   4.510   0.404  0.00  0.00    +0.000 A 
ATOM      3  C   UNL     1       6.332   5.373   1.336  0.00  0.00    +0.000 A 
ATOM      4  C   UNL     1       6.834   6.659   1.413  0.00  0.00    +0.000 A 
ATOM      5  N   UNL     1       7.843   7.119   0.648  0.00  0.00    +0.000 NA
ATOM      6  C   UNL     1       8.395   6.255  -0.235  0.00  0.00    +0.000 A 
ATOM      7  C   UNL     1       7.957   4.955  -0.402  0.00  0.00    +0.000 A 
BRANCH   2   9
ATOM      8  N   UNL     1       5.162   2.810   0.640  0.00  0.00    +0.000 N 
ATOM      9  C   UNL     1       6.471   3.091   0.302  0.00  0.00    +0.000 C 
ATOM     10  O   UNL     1       7.267   2.239  -0.078  0.00  0.00    +0.000 OA
ATOM     11  H   UNL     1       4.469   3.550   0.643  0.00  0.00    +0.000 HD
BRANCH   8  12
ATOM     12  C   UNL     1       4.656   1.455   0.509  0.00  0.00    +0.000 C 
BRANCH  12  13
ATOM     13  C   UNL     1       3.162   1.334   0.866  0.00  0.00    +0.000 C 
BRANCH  13  15
ATOM     14  C   UNL     1       2.299   1.875  -1.347  0.00  0.00    +0.000 C 
ATOM     15  N   UNL     1       2.267   2.215   0.080  0.00  0.00    +0.000 NA
ATOM     16  C   UNL     1       0.889   2.078   0.571  0.00  0.00    +0.000 C 
ENDBRANCH  13  15
ENDBRANCH  12  13
ENDBRANCH   8  12
ENDBRANCH   2   9
ENDBRANCH   1   6
BRANCH   1  17
ATOM     17  C   UNL     1      10.142   7.787  -0.451  0.00  0.00    +0.000 C 
BRANCH  17  18
ATOM     18  C   UNL     1      11.228   8.359  -1.410  0.00  0.00    +0.000 C 
ATOM     19  C   UNL     1      10.515   8.968  -2.641  0.00  0.00    +0.000 C 
ATOM     20  C   UNL     1      11.933   9.529  -0.678  0.00  0.00    +0.000 C 
BRANCH  18  21
ATOM     21  C   UNL     1      12.282   7.301  -1.781  0.00  0.00    +0.000 A 
ATOM     22  C   UNL     1      12.552   6.933  -3.108  0.00  0.00    +0.000 A 
ATOM     23  C   UNL     1      13.543   5.998  -3.382  0.00  0.00    +0.000 A 
ATOM     24  N   UNL     1      14.295   5.398  -2.440  0.00  0.00    +0.000 NA
ATOM     25  C   UNL     1      14.025   5.751  -1.154  0.00  0.00    +0.000 A 
ATOM     26  C   UNL     1      13.048   6.672  -0.785  0.00  0.00    +0.000 A 
BRANCH  25  27
ATOM     27  C   UNL     1      14.869   5.098  -0.103  0.00  0.00    +0.000 C 
ATOM     28  N   UNL     1      15.811   4.224  -0.577  0.00  0.00    +0.000 N 
ATOM     29  O   UNL     1      14.741   5.327   1.093  0.00  0.00    +0.000 OA
ATOM     30  H   UNL     1      15.879   4.067  -1.577  0.00  0.00    +0.000 HD
ATOM     31  H   UNL     1      16.419   3.739   0.065  0.00  0.00    +0.000 HD
ENDBRANCH  25  27
ENDBRANCH  18  21
ENDBRANCH  17  18
ENDBRANCH   1  17
TORSDOF 9
