REMARK  Name = 
REMARK  7 active torsions:
REMARK  status: ('A' for Active; 'I' for Inactive)
REMARK    1  A    between atoms: C_1  and  C_2
REMARK    2  A    between atoms: C_2  and  O_3
REMARK    3  A    between atoms: C_5  and  N_6
REMARK    4  A    between atoms: C_9  and  C_10
REMARK    5  A    between atoms: C_10  and  C_13
REMARK    6  A    between atoms: C_13  and  N_14
REMARK    7  A    between atoms: C_18  and  C_19
REMARK                            x       y       z     vdW  Elec       q    Type
REMARK                         _______ _______ _______ _____ _____    ______ ____
ROOT
ATOM      1  C   UNL     1       6.724  -4.517   1.647  0.00  0.00    +0.000 C 
ATOM      2  F   UNL     1       5.521  -5.106   1.378  0.00  0.00    +0.000 F 
ATOM      3  F   UNL     1       7.213  -4.139   0.421  0.00  0.00    +0.000 F 
ENDROOT
BRANCH   1   7
ATOM      4  N   UNL     1       4.788  -0.052   2.369  0.00  0.00    +0.000 N 
ATOM      5  C   UNL     1       5.575  -1.107   2.882  0.00  0.00    +0.000 A 
ATOM      6  C   UNL     1       5.715  -2.260   2.113  0.00  0.00    +0.000 A 
ATOM      7  C   UNL     1       6.541  -3.306   2.551  0.00  0.00    +0.000 A 
ATOM      8  C   UNL     1       7.160  -3.158   3.796  0.00  0.00    +0.000 A 
ATOM      9  C   UNL     1       6.952  -1.990   4.509  0.00  0.00    +0.000 A 
ATOM     10  N   UNL     1       6.194  -0.966   4.069  0.00  0.00    +0.000 NA
ATOM     11  H   UNL     1       3.824  -0.372   2.330  0.00  0.00    +0.000 HD
BRANCH   4  15
ATOM     12  C   UNL     1       5.868   3.960   0.878  0.00  0.00    +0.000 C 
ATOM     13  C   UNL     1       5.429   3.234   2.140  0.00  0.00    +0.000 C 
ATOM     14  C   UNL     1       6.235   1.948   2.456  0.00  0.00    +0.000 C 
ATOM     15  C   UNL     1       4.901   1.286   2.877  0.00  0.00    +0.000 C 
ATOM     16  C   UNL     1       4.183   2.317   1.977  0.00  0.00    +0.000 C 
BRANCH  13  17
ATOM     17  O   UNL     1       5.338   4.187   3.224  0.00  0.00    +0.000 OA
ATOM     18  H   UNL     1       6.249   4.497   3.367  0.00  0.00    +0.000 HD
ENDBRANCH  13  17
ENDBRANCH   4  15
ENDBRANCH   1   7
BRANCH   1  19
ATOM     19  C   UNL     1       7.689  -5.596   2.204  0.00  0.00    +0.000 C 
BRANCH  19  20
ATOM     20  N   UNL     1       7.858  -6.788   1.340  0.00  0.00    +0.000 N 
ATOM     21  C   UNL     1       8.791  -7.702   1.858  0.00  0.00    +0.000 A 
ATOM     22  C   UNL     1       9.071  -8.896   1.179  0.00  0.00    +0.000 A 
ATOM     23  N   UNL     1       9.954  -9.839   1.613  0.00  0.00    +0.000 NA
ATOM     24  C   UNL     1      10.552  -9.542   2.799  0.00  0.00    +0.000 A 
ATOM     25  C   UNL     1      10.273  -8.380   3.498  0.00  0.00    +0.000 A 
ATOM     26  N   UNL     1       9.393  -7.450   3.045  0.00  0.00    +0.000 NA
ATOM     27  H   UNL     1       8.098  -6.534   0.385  0.00  0.00    +0.000 HD
BRANCH  24  28
ATOM     28  C   UNL     1      11.548 -10.503   3.350  0.00  0.00    +0.000 C 
ATOM     29  N   UNL     1      11.770 -11.629   2.604  0.00  0.00    +0.000 N 
ATOM     30  O   UNL     1      12.139 -10.299   4.401  0.00  0.00    +0.000 OA
ATOM     31  H   UNL     1      11.262 -11.773   1.737  0.00  0.00    +0.000 HD
ATOM     32  H   UNL     1      12.437 -12.317   2.924  0.00  0.00    +0.000 HD
ENDBRANCH  24  28
ENDBRANCH  19  20
ENDBRANCH   1  19
TORSDOF 6
