REMARK  Name = 
REMARK  5 active torsions:
REMARK  status: ('A' for Active; 'I' for Inactive)
REMARK    1  A    between atoms: N_1  and  C_2
REMARK    2  A    between atoms: C_2  and  C_3
REMARK    3  A    between atoms: C_3  and  C_4
REMARK    4  A    between atoms: C_8  and  C_9
REMARK    5  A    between atoms: C_9  and  N_10
REMARK                            x       y       z     vdW  Elec       q    Type
REMARK                         _______ _______ _______ _____ _____    ______ ____
ROOT
ATOM      1  C   UNL     1       4.464   0.836  -1.104  0.00  0.00    +0.000 A 
ATOM      2  C   UNL     1       5.104   0.901   0.131  0.00  0.00    +0.000 A 
ATOM      3  C   UNL     1       6.490   1.014   0.160  0.00  0.00    +0.000 A 
ATOM      4  C   UNL     1       7.197   1.047  -1.036  0.00  0.00    +0.000 A 
ATOM      5  C   UNL     1       6.501   0.934  -2.238  0.00  0.00    +0.000 A 
ATOM      6  N   UNL     1       5.143   0.832  -2.280  0.00  0.00    +0.000 NA
ENDROOT
BRANCH   1   7
ATOM      7  C   UNL     1       2.956   0.810  -1.176  0.00  0.00    +0.000 C 
BRANCH   7   8
ATOM      8  C   UNL     1       2.390  -0.609  -1.127  0.00  0.00    +0.000 C 
BRANCH   8   9
ATOM      9  N   UNL     1       0.926  -0.590  -1.199  0.00  0.00    +0.000 NA
ATOM     10  H   UNL     1       0.576  -1.548  -1.180  0.00  0.00    +0.000 HD
ATOM     11  H   UNL     1       0.638  -0.202  -2.100  0.00  0.00    +0.000 HD
ENDBRANCH   8   9
ENDBRANCH   7   8
ENDBRANCH   1   7
BRANCH   5  12
ATOM     12  C   UNL     1       7.232   0.961  -3.559  0.00  0.00    +0.000 C 
BRANCH  12  13
ATOM     13  N   UNL     1       8.188  -0.133  -3.661  0.00  0.00    +0.000 N 
ATOM     14  N   UNL     1       9.485   0.085  -3.328  0.00  0.00    +0.000 NA
ATOM     15  C   UNL     1      10.035  -1.128  -3.421  0.00  0.00    +0.000 A 
ATOM     16  C   UNL     1       9.120  -2.116  -3.842  0.00  0.00    +0.000 A 
ATOM     17  C   UNL     1       9.169  -3.502  -4.075  0.00  0.00    +0.000 A 
ATOM     18  C   UNL     1       8.007  -4.155  -4.502  0.00  0.00    +0.000 A 
ATOM     19  C   UNL     1       6.825  -3.445  -4.714  0.00  0.00    +0.000 A 
ATOM     20  C   UNL     1       6.758  -2.067  -4.486  0.00  0.00    +0.000 A 
ATOM     21  C   UNL     1       7.924  -1.430  -4.035  0.00  0.00    +0.000 A 
ENDBRANCH  12  13
ENDBRANCH   5  12
TORSDOF 5
