REMARK  Name = 
REMARK  7 active torsions:
REMARK  status: ('A' for Active; 'I' for Inactive)
REMARK    1  A    between atoms: C_1  and  C_2
REMARK    2  A    between atoms: C_2  and  C_3
REMARK    3  A    between atoms: C_2  and  C_4
REMARK    4  A    between atoms: C_2  and  C_19
REMARK    5  A    between atoms: C_5  and  C_6
REMARK    6  A    between atoms: C_10  and  N_11
REMARK    7  A    between atoms: C_14  and  O_15
REMARK                            x       y       z     vdW  Elec       q    Type
REMARK                         _______ _______ _______ _____ _____    ______ ____
ROOT
ATOM      1  C   UNL     1       3.292  -0.020   3.919  0.00  0.00    +0.000 A 
ATOM      2  C   UNL     1       2.462   0.059   5.032  0.00  0.00    +0.000 A 
ATOM      3  N   UNL     1       2.850  -0.229   6.292  0.00  0.00    +0.000 NA
ATOM      4  C   UNL     1       4.141  -0.618   6.444  0.00  0.00    +0.000 A 
ATOM      5  C   UNL     1       5.084  -0.741   5.420  0.00  0.00    +0.000 A 
ATOM      6  C   UNL     1       4.620  -0.406   4.141  0.00  0.00    +0.000 A 
ENDROOT
BRANCH   5   7
ATOM      7  N   UNL     1       6.399  -1.132   5.619  0.00  0.00    +0.000 N 
ATOM      8  C   UNL     1       7.071  -0.922   6.899  0.00  0.00    +0.000 C 
ATOM      9  C   UNL     1       7.333  -2.258   7.586  0.00  0.00    +0.000 C 
ATOM     10  C   UNL     1       8.041  -3.243   6.658  0.00  0.00    +0.000 C 
ATOM     11  C   UNL     1       7.322  -3.385   5.319  0.00  0.00    +0.000 C 
ATOM     12  C   UNL     1       7.050  -2.033   4.663  0.00  0.00    +0.000 C 
BRANCH  10  13
ATOM     13  O   UNL     1       9.401  -2.860   6.457  0.00  0.00    +0.000 OA
ATOM     14  H   UNL     1       9.426  -1.994   6.016  0.00  0.00    +0.000 HD
ENDBRANCH  10  13
ENDBRANCH   5   7
BRANCH   1  16
ATOM     15  C   UNL     1       3.219  -0.130   1.425  0.00  0.00    +0.000 C 
ATOM     16  C   UNL     1       2.783   0.363   2.599  0.00  0.00    +0.000 C 
BRANCH  15  18
ATOM     17  C   UNL     1       3.543   1.367  -0.552  0.00  0.00    +0.000 C 
ATOM     18  C   UNL     1       2.678   0.227   0.038  0.00  0.00    +0.000 C 
ATOM     19  C   UNL     1       2.906  -1.004  -0.880  0.00  0.00    +0.000 C 
BRANCH  18  20
ATOM     20  C   UNL     1       1.189   0.635   0.091  0.00  0.00    +0.000 A 
ATOM     21  C   UNL     1       0.165  -0.325   0.002  0.00  0.00    +0.000 A 
ATOM     22  C   UNL     1      -1.183   0.034   0.124  0.00  0.00    +0.000 A 
ATOM     23  C   UNL     1      -1.530   1.360   0.360  0.00  0.00    +0.000 A 
ATOM     24 CL   UNL     1      -3.182   1.796   0.542  0.00  0.00    +0.000 Cl
ATOM     25  C   UNL     1      -0.542   2.333   0.462  0.00  0.00    +0.000 A 
ATOM     26  C   UNL     1       0.798   1.973   0.326  0.00  0.00    +0.000 A 
ENDBRANCH  18  20
ENDBRANCH  15  18
ENDBRANCH   1  16
TORSDOF 5
