REMARK  Name = 
REMARK  5 active torsions:
REMARK  status: ('A' for Active; 'I' for Inactive)
REMARK    1  A    between atoms: C_2  and  C_4
REMARK    2  A    between atoms: C_7  and  O_8
REMARK    3  A    between atoms: O_8  and  C_9
REMARK    4  A    between atoms: C_9  and  C_10
REMARK    5  A    between atoms: C_15  and  C_16
REMARK                            x       y       z     vdW  Elec       q    Type
REMARK                         _______ _______ _______ _____ _____    ______ ____
ROOT
ATOM      1  C   UNL     1       5.225   0.325   5.832  0.00  0.00    +0.000 C 
ATOM      2  C   UNL     1       5.184  -1.103   6.364  0.00  0.00    +0.000 C 
ATOM      3  C   UNL     1       3.944  -0.273   6.371  0.00  0.00    +0.000 C 
ENDROOT
BRANCH   1   4
ATOM      4  C   UNL     1       5.997   1.363   6.637  0.00  0.00    +0.000 A 
ATOM      5  C   UNL     1       7.398   1.314   6.699  0.00  0.00    +0.000 A 
ATOM      6  C   UNL     1       8.122   2.282   7.389  0.00  0.00    +0.000 A 
ATOM      7  C   UNL     1       7.454   3.319   8.035  0.00  0.00    +0.000 A 
ATOM      8  F   UNL     1       8.203   4.219   8.690  0.00  0.00    +0.000 F 
ATOM      9  C   UNL     1       6.054   3.433   8.013  0.00  0.00    +0.000 A 
ATOM     10  C   UNL     1       5.353   2.434   7.303  0.00  0.00    +0.000 A 
BRANCH   9  11
ATOM     11  C   UNL     1       5.351   4.557   8.680  0.00  0.00    +0.000 A 
ATOM     12  C   UNL     1       5.885   5.855   8.678  0.00  0.00    +0.000 A 
ATOM     13  C   UNL     1       5.215   6.878   9.334  0.00  0.00    +0.000 A 
ATOM     14  N   UNL     1       4.044   6.715   9.979  0.00  0.00    +0.000 NA
ATOM     15  C   UNL     1       3.528   5.471   9.966  0.00  0.00    +0.000 A 
ATOM     16  C   UNL     1       4.130   4.384   9.347  0.00  0.00    +0.000 A 
ENDBRANCH   9  11
ENDBRANCH   1   4
BRANCH   1  17
ATOM     17  O   UNL     1       5.444   0.306   4.401  0.00  0.00    +0.000 OA
BRANCH  17  21
ATOM     18  C   UNL     1       3.827   3.249   2.024  0.00  0.00    +0.000 A 
ATOM     19  C   UNL     1       4.711   2.319   1.480  0.00  0.00    +0.000 A 
ATOM     20  C   UNL     1       5.248   1.338   2.311  0.00  0.00    +0.000 A 
ATOM     21  C   UNL     1       4.882   1.321   3.651  0.00  0.00    +0.000 A 
ATOM     22  N   UNL     1       4.026   2.202   4.210  0.00  0.00    +0.000 NA
ATOM     23  C   UNL     1       3.531   3.162   3.381  0.00  0.00    +0.000 A 
BRANCH  18  25
ATOM     24  N   UNL     1       3.091   4.132  -0.122  0.00  0.00    +0.000 N 
ATOM     25  C   UNL     1       3.219   4.335   1.225  0.00  0.00    +0.000 C 
ATOM     26  O   UNL     1       2.818   5.365   1.751  0.00  0.00    +0.000 OA
ATOM     27  H   UNL     1       2.590   4.847  -0.636  0.00  0.00    +0.000 HD
ATOM     28  H   UNL     1       3.174   3.224  -0.551  0.00  0.00    +0.000 HD
ENDBRANCH  18  25
ENDBRANCH  17  21
ENDBRANCH   1  17
TORSDOF 5
