REMARK  Name = 
REMARK  7 active torsions:
REMARK  status: ('A' for Active; 'I' for Inactive)
REMARK    1  A    between atoms: N_1  and  C_2
REMARK    2  A    between atoms: C_2  and  C_3
REMARK    3  A    between atoms: C_3  and  N_4
REMARK    4  A    between atoms: C_3  and  C_17
REMARK    5  A    between atoms: C_5  and  C_7
REMARK    6  A    between atoms: C_20  and  O_21
REMARK    7  A    between atoms: O_21  and  C_22
REMARK                            x       y       z     vdW  Elec       q    Type
REMARK                         _______ _______ _______ _____ _____    ______ ____
ROOT
ATOM      1  C   UNL     1       2.914   0.800  -0.923  0.00  0.00    +0.000 C 
ENDROOT
BRANCH   1   2
ATOM      2  C   UNL     1       4.442   0.921  -0.975  0.00  0.00    +0.000 A 
ATOM      3  C   UNL     1       5.173   0.069  -1.816  0.00  0.00    +0.000 A 
ATOM      4  C   UNL     1       6.566   0.149  -1.879  0.00  0.00    +0.000 A 
ATOM      5  C   UNL     1       7.251   1.126  -1.155  0.00  0.00    +0.000 A 
ATOM      6  C   UNL     1       6.544   1.955  -0.285  0.00  0.00    +0.000 A 
ATOM      7  C   UNL     1       5.153   1.843  -0.183  0.00  0.00    +0.000 A 
BRANCH   5   8
ATOM      8  O   UNL     1       8.619   1.281  -1.184  0.00  0.00    +0.000 OA
BRANCH   8   9
ATOM      9  C   UNL     1       9.276   1.109  -2.399  0.00  0.00    +0.000 A 
ATOM     10  C   UNL     1      10.618   0.765  -2.335  0.00  0.00    +0.000 A 
ATOM     11  C   UNL     1      11.303   0.555  -3.530  0.00  0.00    +0.000 A 
ATOM     12  C   UNL     1      10.627   0.700  -4.737  0.00  0.00    +0.000 A 
ATOM     13  C   UNL     1       9.295   1.074  -4.702  0.00  0.00    +0.000 A 
ATOM     14  N   UNL     1       8.611   1.299  -3.562  0.00  0.00    +0.000 NA
ENDBRANCH   8   9
ENDBRANCH   5   8
ENDBRANCH   1   2
BRANCH   1  15
ATOM     15  N   UNL     1       2.329   2.126  -0.747  0.00  0.00    +0.000 N 
ATOM     16  C   UNL     1       0.985   2.389  -0.780  0.00  0.00    +0.000 C 
ATOM     17  O   UNL     1       0.128   1.512  -0.826  0.00  0.00    +0.000 OA
ATOM     18  H   UNL     1       2.945   2.891  -0.996  0.00  0.00    +0.000 HD
BRANCH  16  19
ATOM     19  C   UNL     1       0.620   3.808  -0.693  0.00  0.00    +0.000 A 
ATOM     20  C   UNL     1      -0.588   4.188  -0.126  0.00  0.00    +0.000 A 
ATOM     21  S   UNL     1      -0.832   5.878  -0.115  0.00  0.00    +0.000 S 
ATOM     22  C   UNL     1       0.645   6.154  -0.911  0.00  0.00    +0.000 A 
ATOM     23  N   UNL     1       1.036   7.411  -1.257  0.00  0.00    +0.000 NA
ATOM     24  C   UNL     1       2.157   7.465  -1.893  0.00  0.00    +0.000 A 
ATOM     25  N   UNL     1       2.940   6.381  -2.195  0.00  0.00    +0.000 N 
ATOM     26  C   UNL     1       2.618   5.106  -1.807  0.00  0.00    +0.000 A 
ATOM     27  O   UNL     1       3.392   4.172  -1.988  0.00  0.00    +0.000 OA
ATOM     28  C   UNL     1       1.336   4.979  -1.139  0.00  0.00    +0.000 A 
ATOM     29  H   UNL     1       3.829   6.491  -2.660  0.00  0.00    +0.000 HD
ENDBRANCH  16  19
ENDBRANCH   1  15
BRANCH   1  30
ATOM     30  C   UNL     1       2.471  -0.201   0.186  0.00  0.00    +0.000 C 
BRANCH  30  31
ATOM     31  N   UNL     1       3.020  -1.561   0.060  0.00  0.00    +0.000 NA
ATOM     32  H   UNL     1       2.840  -2.063   0.929  0.00  0.00    +0.000 HD
ATOM     33  H   UNL     1       4.035  -1.508  -0.023  0.00  0.00    +0.000 HD
ENDBRANCH  30  31
ENDBRANCH   1  30
TORSDOF 7
