REMARK  Name = 
REMARK  9 active torsions:
REMARK  status: ('A' for Active; 'I' for Inactive)
REMARK    1  A    between atoms: C_1  and  C_2
REMARK    2  A    between atoms: C_2  and  C_3
REMARK    3  A    between atoms: C_3  and  N_4
REMARK    4  A    between atoms: C_3  and  C_17
REMARK    5  A    between atoms: C_5  and  C_7
REMARK    6  A    between atoms: C_20  and  C_21
REMARK    7  A    between atoms: C_21  and  N_22
REMARK    8  A    between atoms: N_22  and  C_23
REMARK    9  A    between atoms: C_23  and  C_24
REMARK                            x       y       z     vdW  Elec       q    Type
REMARK                         _______ _______ _______ _____ _____    ______ ____
ROOT
ATOM      1  C   UNL     1       2.982   0.775   1.237  0.00  0.00    +0.000 C 
ENDROOT
BRANCH   1   2
ATOM      2  C   UNL     1       4.505   0.755   1.277  0.00  0.00    +0.000 A 
ATOM      3  C   UNL     1       5.184   1.138   2.441  0.00  0.00    +0.000 A 
ATOM      4  C   UNL     1       6.581   1.099   2.498  0.00  0.00    +0.000 A 
ATOM      5  C   UNL     1       7.334   0.665   1.397  0.00  0.00    +0.000 A 
ATOM      6  C   UNL     1       6.658   0.278   0.234  0.00  0.00    +0.000 A 
ATOM      7  C   UNL     1       5.262   0.323   0.175  0.00  0.00    +0.000 A 
BRANCH   5   8
ATOM      8  C   UNL     1       8.845   0.626   1.456  0.00  0.00    +0.000 C 
BRANCH   8   9
ATOM      9  N   UNL     1       9.307  -0.240   2.535  0.00  0.00    +0.000 NA
ATOM     10  H   UNL     1       8.936  -1.181   2.390  0.00  0.00    +0.000 HD
BRANCH   9  11
ATOM     11  C   UNL     1      10.769  -0.341   2.558  0.00  0.00    +0.000 C 
BRANCH  11  12
ATOM     12  C   UNL     1      11.217  -1.262   3.677  0.00  0.00    +0.000 A 
ATOM     13  C   UNL     1      11.450  -0.748   4.952  0.00  0.00    +0.000 A 
ATOM     14  C   UNL     1      11.763  -1.627   5.984  0.00  0.00    +0.000 A 
ATOM     15  C   UNL     1      11.827  -2.989   5.721  0.00  0.00    +0.000 A 
ATOM     16  C   UNL     1      11.581  -3.419   4.428  0.00  0.00    +0.000 A 
ATOM     17  N   UNL     1      11.278  -2.592   3.403  0.00  0.00    +0.000 NA
ENDBRANCH  11  12
ENDBRANCH   9  11
ENDBRANCH   8   9
ENDBRANCH   5   8
ENDBRANCH   1   2
BRANCH   1  18
ATOM     18  N   UNL     1       2.501  -0.595   1.140  0.00  0.00    +0.000 N 
ATOM     19  C   UNL     1       1.268  -1.003   1.570  0.00  0.00    +0.000 C 
ATOM     20  O   UNL     1       0.442  -0.221   2.032  0.00  0.00    +0.000 OA
ATOM     21  H   UNL     1       3.179  -1.290   0.844  0.00  0.00    +0.000 HD
BRANCH  19  22
ATOM     22  C   UNL     1       0.968  -2.435   1.422  0.00  0.00    +0.000 A 
ATOM     23  C   UNL     1      -0.351  -2.867   1.383  0.00  0.00    +0.000 A 
ATOM     24  S   UNL     1      -0.514  -4.560   1.257  0.00  0.00    +0.000 S 
ATOM     25  C   UNL     1       1.171  -4.781   1.291  0.00  0.00    +0.000 A 
ATOM     26  N   UNL     1       1.717  -6.027   1.279  0.00  0.00    +0.000 NA
ATOM     27  C   UNL     1       3.006  -6.047   1.355  0.00  0.00    +0.000 A 
ATOM     28  N   UNL     1       3.804  -4.934   1.416  0.00  0.00    +0.000 N 
ATOM     29  C   UNL     1       3.300  -3.659   1.325  0.00  0.00    +0.000 A 
ATOM     30  O   UNL     1       4.046  -2.696   1.191  0.00  0.00    +0.000 OA
ATOM     31  C   UNL     1       1.854  -3.577   1.334  0.00  0.00    +0.000 A 
ATOM     32  H   UNL     1       4.807  -5.014   1.417  0.00  0.00    +0.000 HD
ENDBRANCH  19  22
ENDBRANCH   1  18
BRANCH   1  34
ATOM     33  C   UNL     1       2.838   3.093   0.156  0.00  0.00    +0.000 C 
ATOM     34  C   UNL     1       2.422   1.629   0.082  0.00  0.00    +0.000 C 
ENDBRANCH   1  34
TORSDOF 8
