REMARK  Name = 
REMARK  10 active torsions:
REMARK  status: ('A' for Active; 'I' for Inactive)
REMARK    1  A    between atoms: C_1  and  O_2
REMARK    2  A    between atoms: O_2  and  C_3
REMARK    3  A    between atoms: C_10  and  C_11
REMARK    4  A    between atoms: N_13  and  C_14
REMARK    5  A    between atoms: C_14  and  C_15
REMARK    6  A    between atoms: C_18  and  C_19
REMARK    7  A    between atoms: C_19  and  S_20
REMARK    8  A    between atoms: S_20  and  C_21
REMARK    9  A    between atoms: C_21  and  C_22
REMARK   10  A    between atoms: C_26  and  C_27
REMARK                            x       y       z     vdW  Elec       q    Type
REMARK                         _______ _______ _______ _____ _____    ______ ____
ROOT
ATOM      1  C   UNL     1       3.171  -2.606   2.095  0.00  0.00    +0.000 C 
ENDROOT
BRANCH   1   2
ATOM      2  C   UNL     1       2.100  -1.882   2.869  0.00  0.00    +0.000 A 
ATOM      3  C   UNL     1       1.058  -2.592   3.484  0.00  0.00    +0.000 A 
ATOM      4  C   UNL     1       0.062  -1.923   4.210  0.00  0.00    +0.000 A 
ATOM      5  C   UNL     1       0.081  -0.528   4.327  0.00  0.00    +0.000 A 
ATOM      6  C   UNL     1       1.100   0.178   3.675  0.00  0.00    +0.000 A 
ATOM      7  C   UNL     1       2.099  -0.486   2.957  0.00  0.00    +0.000 A 
BRANCH   5   8
ATOM      8  C   UNL     1      -1.004   0.241   5.047  0.00  0.00    +0.000 C 
BRANCH   8   9
ATOM      9  S   UNL     1      -1.235  -0.125   6.809  0.00  0.00    +0.000 S 
BRANCH   9  10
ATOM     10  C   UNL     1       0.410   0.248   7.500  0.00  0.00    +0.000 C 
BRANCH  10  11
ATOM     11  C   UNL     1       0.895   1.677   7.389  0.00  0.00    +0.000 A 
ATOM     12  N   UNL     1       0.592   2.528   8.375  0.00  0.00    +0.000 NA
ATOM     13  C   UNL     1       1.155   3.731   8.270  0.00  0.00    +0.000 A 
ATOM     14  N   UNL     1       1.969   4.136   7.297  0.00  0.00    +0.000 NA
ATOM     15  C   UNL     1       2.204   3.218   6.359  0.00  0.00    +0.000 A 
ATOM     16  C   UNL     1       3.119   3.585   5.233  0.00  0.00    +0.000 C 
ATOM     17  N   UNL     1       1.692   1.983   6.357  0.00  0.00    +0.000 NA
ENDBRANCH  10  11
ENDBRANCH   9  10
ENDBRANCH   8   9
ENDBRANCH   5   8
ENDBRANCH   1   2
BRANCH   1  20
ATOM     18  C   UNL     1       3.590  -3.439  -0.185  0.00  0.00    +0.000 C 
ATOM     19  O   UNL     1       4.662  -3.932   0.152  0.00  0.00    +0.000 OA
ATOM     20  N   UNL     1       2.801  -2.773   0.712  0.00  0.00    +0.000 N 
ATOM     21  H   UNL     1       1.930  -2.354   0.412  0.00  0.00    +0.000 HD
BRANCH  18  29
ATOM     22  C   UNL     1       0.710  -2.395  -1.759  0.00  0.00    +0.000 A 
ATOM     23  N   UNL     1      -0.281  -2.074  -2.614  0.00  0.00    +0.000 NA
ATOM     24  C   UNL     1      -0.144  -2.430  -3.894  0.00  0.00    +0.000 A 
ATOM     25  N   UNL     1       0.878  -3.086  -4.439  0.00  0.00    +0.000 NA
ATOM     26  C   UNL     1       1.847  -3.377  -3.555  0.00  0.00    +0.000 A 
ATOM     27  S   UNL     1       3.230  -4.215  -4.074  0.00  0.00    +0.000 S 
ATOM     28  C   UNL     1       3.898  -4.178  -2.511  0.00  0.00    +0.000 A 
ATOM     29  C   UNL     1       3.101  -3.535  -1.572  0.00  0.00    +0.000 A 
ATOM     30  C   UNL     1       1.866  -3.066  -2.198  0.00  0.00    +0.000 A 
BRANCH  22  32
ATOM     31  C   UNL     1      -0.777  -1.838  -0.039  0.00  0.00    +0.000 C 
ATOM     32  O   UNL     1       0.580  -2.005  -0.443  0.00  0.00    +0.000 OA
ENDBRANCH  22  32
ENDBRANCH  18  29
ENDBRANCH   1  20
TORSDOF 8
