REMARK  Name = 
REMARK  5 active torsions:
REMARK  status: ('A' for Active; 'I' for Inactive)
REMARK    1  A    between atoms: N_1  and  C_2
REMARK    2  A    between atoms: C_2  and  C_3
REMARK    3  A    between atoms: C_6  and  O_7
REMARK    4  A    between atoms: O_7  and  C_8
REMARK    5  A    between atoms: C_8  and  C_9
REMARK                            x       y       z     vdW  Elec       q    Type
REMARK                         _______ _______ _______ _____ _____    ______ ____
ROOT
ATOM      1  C   UNL     1       2.961  -0.309  -1.325  0.00  0.00    +0.000 A 
ATOM      2  C   UNL     1       3.315   0.754  -2.155  0.00  0.00    +0.000 A 
ATOM      3  C   UNL     1       3.715   0.483  -3.464  0.00  0.00    +0.000 A 
ATOM      4  C   UNL     1       3.723  -0.830  -3.922  0.00  0.00    +0.000 A 
ATOM      5  C   UNL     1       3.393  -1.828  -3.014  0.00  0.00    +0.000 A 
ATOM      6  N   UNL     1       3.003  -1.601  -1.739  0.00  0.00    +0.000 NA
ENDROOT
BRANCH   1   7
ATOM      7  C   UNL     1       2.422  -0.059   0.065  0.00  0.00    +0.000 C 
BRANCH   7   8
ATOM      8  N   UNL     1       0.964   0.090   0.064  0.00  0.00    +0.000 NA
ATOM      9  H   UNL     1       0.632   0.054   1.025  0.00  0.00    +0.000 HD
ATOM     10  H   UNL     1       0.578  -0.738  -0.395  0.00  0.00    +0.000 HD
ENDBRANCH   7   8
ENDBRANCH   1   7
BRANCH   4  11
ATOM     11  O   UNL     1       4.048  -1.017  -5.236  0.00  0.00    +0.000 OA
BRANCH  11  12
ATOM     12  C   UNL     1       3.554  -2.233  -5.803  0.00  0.00    +0.000 C 
BRANCH  12  13
ATOM     13  C   UNL     1       3.515  -2.099  -7.303  0.00  0.00    +0.000 A 
ATOM     14  C   UNL     1       4.700  -1.952  -8.041  0.00  0.00    +0.000 A 
ATOM     15  C   UNL     1       4.659  -1.832  -9.433  0.00  0.00    +0.000 A 
ATOM     16  C   UNL     1       3.434  -1.859 -10.097  0.00  0.00    +0.000 A 
ATOM     17  C   UNL     1       2.261  -2.006  -9.367  0.00  0.00    +0.000 A 
ATOM     18  F   UNL     1       1.084  -2.036 -10.006  0.00  0.00    +0.000 F 
ATOM     19  C   UNL     1       2.289  -2.126  -7.983  0.00  0.00    +0.000 A 
ENDBRANCH  12  13
ENDBRANCH  11  12
ENDBRANCH   4  11
TORSDOF 5
