REMARK  Name = 
REMARK  7 active torsions:
REMARK  status: ('A' for Active; 'I' for Inactive)
REMARK    1  A    between atoms: C_1  and  C_2
REMARK    2  A    between atoms: C_2  and  C_3
REMARK    3  A    between atoms: C_2  and  C_14
REMARK    4  A    between atoms: C_3  and  O_4
REMARK    5  A    between atoms: O_4  and  C_5
REMARK    6  A    between atoms: C_8  and  C_9
REMARK    7  A    between atoms: C_18  and  C_19
REMARK                            x       y       z     vdW  Elec       q    Type
REMARK                         _______ _______ _______ _____ _____    ______ ____
ROOT
ATOM      1  O   UNL     1       2.502   2.175   1.722  0.00  0.00    +0.000 OA
ENDROOT
BRANCH   1   2
ATOM      2  C   UNL     1       3.126   3.384   1.948  0.00  0.00    +0.000 A 
ATOM      3  C   UNL     1       2.662   4.156   2.997  0.00  0.00    +0.000 A 
ATOM      4  C   UNL     1       3.287   5.376   3.240  0.00  0.00    +0.000 A 
ATOM      5  C   UNL     1       4.340   5.743   2.418  0.00  0.00    +0.000 A 
ATOM      6  N   UNL     1       4.775   4.963   1.397  0.00  0.00    +0.000 NA
ATOM      7  N   UNL     1       4.157   3.773   1.162  0.00  0.00    +0.000 NA
BRANCH   5   8
ATOM      8  C   UNL     1       5.064   7.030   2.613  0.00  0.00    +0.000 C 
ATOM      9  N   UNL     1       6.098   7.273   1.748  0.00  0.00    +0.000 N 
ATOM     10  O   UNL     1       4.756   7.825   3.491  0.00  0.00    +0.000 OA
ATOM     11  H   UNL     1       6.347   6.603   1.029  0.00  0.00    +0.000 HD
ATOM     12  H   UNL     1       6.628   8.128   1.840  0.00  0.00    +0.000 HD
ENDBRANCH   5   8
ENDBRANCH   1   2
BRANCH   1  13
ATOM     13  C   UNL     1       3.065   1.478   0.609  0.00  0.00    +0.000 C 
BRANCH  13  15
ATOM     14  C   UNL     1       0.971   0.104   0.036  0.00  0.00    +0.000 C 
ATOM     15  C   UNL     1       2.393   0.142   0.494  0.00  0.00    +0.000 C 
BRANCH  15  16
ATOM     16  C   UNL     1       3.031  -1.053   1.067  0.00  0.00    +0.000 A 
ATOM     17  C   UNL     1       2.948  -2.297   0.431  0.00  0.00    +0.000 A 
ATOM     18  C   UNL     1       3.592  -3.417   0.966  0.00  0.00    +0.000 A 
ATOM     19  C   UNL     1       4.322  -3.308   2.149  0.00  0.00    +0.000 A 
ATOM     20  C   UNL     1       4.405  -2.076   2.800  0.00  0.00    +0.000 A 
ATOM     21  C   UNL     1       3.762  -0.958   2.260  0.00  0.00    +0.000 A 
BRANCH  20  22
ATOM     22  C   UNL     1       5.150  -1.948   4.017  0.00  0.00    +0.000 C 
ATOM     23  N   UNL     1       5.752  -1.831   5.003  0.00  0.00    +0.000 NA
ENDBRANCH  20  22
ENDBRANCH  15  16
ENDBRANCH  13  15
ENDBRANCH   1  13
TORSDOF 6
