REMARK  Name = 
REMARK  4 active torsions:
REMARK  status: ('A' for Active; 'I' for Inactive)
REMARK    1  A    between atoms: C_1  and  O_2
REMARK    2  A    between atoms: O_2  and  C_3
REMARK    3  A    between atoms: C_6  and  C_7
REMARK    4  A    between atoms: C_7  and  N_8
REMARK                            x       y       z     vdW  Elec       q    Type
REMARK                         _______ _______ _______ _____ _____    ______ ____
ROOT
ATOM      1  C   UNL     1       5.292   4.910  -0.057  0.00  0.00    +0.000 C 
ENDROOT
BRANCH   1   2
ATOM      2  N   UNL     1       4.788   5.949   0.834  0.00  0.00    +0.000 N 
ATOM      3  C   UNL     1       5.116   6.047   2.168  0.00  0.00    +0.000 A 
ATOM      4  C   UNL     1       4.616   7.239   2.644  0.00  0.00    +0.000 A 
ATOM      5  C   UNL     1       3.963   7.884   1.571  0.00  0.00    +0.000 A 
ATOM      6  N   UNL     1       3.347   9.092   1.559  0.00  0.00    +0.000 NA
ATOM      7  C   UNL     1       2.815   9.444   0.371  0.00  0.00    +0.000 A 
ATOM      8  C   UNL     1       2.842   8.677  -0.784  0.00  0.00    +0.000 A 
ATOM      9  C   UNL     1       3.478   7.438  -0.765  0.00  0.00    +0.000 A 
ATOM     10  C   UNL     1       4.057   7.056   0.450  0.00  0.00    +0.000 A 
ENDBRANCH   1   2
BRANCH   1  14
ATOM     11  C   UNL     1       2.872   1.323  -0.050  0.00  0.00    +0.000 A 
ATOM     12  C   UNL     1       2.594   2.357  -0.943  0.00  0.00    +0.000 A 
ATOM     13  C   UNL     1       3.371   3.521  -0.938  0.00  0.00    +0.000 A 
ATOM     14  C   UNL     1       4.440   3.668  -0.044  0.00  0.00    +0.000 A 
ATOM     15  C   UNL     1       4.710   2.626   0.854  0.00  0.00    +0.000 A 
ATOM     16  C   UNL     1       3.933   1.465   0.845  0.00  0.00    +0.000 A 
BRANCH  11  18
ATOM     17  C   UNL     1       1.073  -0.029  -0.812  0.00  0.00    +0.000 C 
ATOM     18  O   UNL     1       2.195   0.138   0.044  0.00  0.00    +0.000 OA
ENDBRANCH  11  18
ENDBRANCH   1  14
TORSDOF 3
