REMARK  Name = 
REMARK  5 active torsions:
REMARK  status: ('A' for Active; 'I' for Inactive)
REMARK    1  A    between atoms: C_2  and  C_5
REMARK    2  A    between atoms: C_9  and  N_10
REMARK    3  A    between atoms: N_10  and  C_11
REMARK    4  A    between atoms: C_11  and  C_12
REMARK    5  A    between atoms: C_16  and  N_17
REMARK                            x       y       z     vdW  Elec       q    Type
REMARK                         _______ _______ _______ _____ _____    ______ ____
ROOT
ATOM      1  C   UNL     1       2.330  -6.171   0.265  0.00  0.00    +0.000 C 
ENDROOT
BRANCH   1   2
ATOM      2  C   UNL     1       1.690  -7.263  -0.577  0.00  0.00    +0.000 A 
ATOM      3  N   UNL     1       2.084  -8.530  -0.354  0.00  0.00    +0.000 NA
ATOM      4  C   UNL     1       1.425  -9.471  -1.040  0.00  0.00    +0.000 A 
ATOM      5  C   UNL     1       0.417  -9.194  -1.935  0.00  0.00    +0.000 A 
ATOM      6  C   UNL     1       0.078  -7.867  -2.139  0.00  0.00    +0.000 A 
ATOM      7  N   UNL     1       0.719  -6.905  -1.447  0.00  0.00    +0.000 NA
BRANCH   6   8
ATOM      8  N   UNL     1      -0.958  -7.508  -2.982  0.00  0.00    +0.000 N 
ATOM      9  C   UNL     1      -1.305  -8.282  -4.182  0.00  0.00    +0.000 C 
ATOM     10  C   UNL     1      -1.063  -7.463  -5.471  0.00  0.00    +0.000 C 
ATOM     11  N   UNL     1      -1.708  -6.135  -5.463  0.00  0.00    +0.000 NA
ATOM     12  C   UNL     1      -1.219  -5.394  -4.280  0.00  0.00    +0.000 C 
ATOM     13  C   UNL     1      -1.476  -6.130  -2.947  0.00  0.00    +0.000 C 
ATOM     14  H   UNL     1      -2.714  -6.269  -5.357  0.00  0.00    +0.000 HD
ENDBRANCH   6   8
ENDBRANCH   1   2
BRANCH   1  15
ATOM     15  N   UNL     1       3.557  -5.638  -0.303  0.00  0.00    +0.000 N 
ATOM     16  H   UNL     1       3.924  -6.046  -1.154  0.00  0.00    +0.000 HD
BRANCH  15  21
ATOM     17  C   UNL     1       6.329  -3.491   0.232  0.00  0.00    +0.000 A 
ATOM     18  N   UNL     1       6.079  -2.879   1.414  0.00  0.00    +0.000 NA
ATOM     19  C   UNL     1       4.940  -3.219   2.033  0.00  0.00    +0.000 A 
ATOM     20  C   UNL     1       4.047  -4.132   1.526  0.00  0.00    +0.000 A 
ATOM     21  C   UNL     1       4.363  -4.723   0.321  0.00  0.00    +0.000 A 
ATOM     22  N   UNL     1       5.497  -4.411  -0.326  0.00  0.00    +0.000 NA
BRANCH  17  24
ATOM     23  F   UNL     1       8.382  -2.187   0.119  0.00  0.00    +0.000 F 
ATOM     24  C   UNL     1       7.614  -3.123  -0.520  0.00  0.00    +0.000 C 
ATOM     25  F   UNL     1       7.380  -2.601  -1.763  0.00  0.00    +0.000 F 
ATOM     26  F   UNL     1       8.446  -4.190  -0.720  0.00  0.00    +0.000 F 
ENDBRANCH  17  24
ENDBRANCH  15  21
ENDBRANCH   1  15
TORSDOF 5
