REMARK  Name = 
REMARK  10 active torsions:
REMARK  status: ('A' for Active; 'I' for Inactive)
REMARK    1  A    between atoms: C_1  and  O_2
REMARK    2  A    between atoms: O_2  and  C_3
REMARK    3  A    between atoms: C_3  and  C_4
REMARK    4  A    between atoms: C_4  and  N_5
REMARK    5  A    between atoms: N_5  and  C_6
REMARK    6  A    between atoms: C_6  and  C_7
REMARK    7  A    between atoms: C_7  and  C_8
REMARK    8  A    between atoms: N_14  and  C_15
REMARK    9  A    between atoms: C_15  and  C_16
REMARK   10  A    between atoms: C_19  and  C_20
REMARK                            x       y       z     vdW  Elec       q    Type
REMARK                         _______ _______ _______ _____ _____    ______ ____
ROOT
ATOM      1  C   UNL     1       8.426   4.017   0.408  0.00  0.00    +0.000 A 
ATOM      2  C   UNL     1       9.133   3.564   1.527  0.00  0.00    +0.000 A 
ATOM      3  N   UNL     1      10.477   3.530   1.622  0.00  0.00    +0.000 NA
ATOM      4  C   UNL     1      11.094   3.999   0.509  0.00  0.00    +0.000 A 
ATOM      5  C   UNL     1      12.472   4.136   0.241  0.00  0.00    +0.000 A 
ATOM      6  C   UNL     1      12.591   4.687  -1.018  0.00  0.00    +0.000 A 
ATOM      7  N   UNL     1      11.322   4.897  -1.518  0.00  0.00    +0.000 N 
ATOM      8  C   UNL     1      10.387   4.456  -0.605  0.00  0.00    +0.000 A 
ATOM      9  N   UNL     1       9.036   4.481  -0.721  0.00  0.00    +0.000 NA
ENDROOT
BRANCH   1  10
ATOM     10  C   UNL     1       6.915   4.044   0.448  0.00  0.00    +0.000 C 
BRANCH  10  11
ATOM     11  C   UNL     1       6.398   4.989   1.541  0.00  0.00    +0.000 C 
BRANCH  11  12
ATOM     12  N   UNL     1       4.933   5.016   1.571  0.00  0.00    +0.000 NA
ATOM     13  H   UNL     1       4.580   5.341   0.670  0.00  0.00    +0.000 HD
BRANCH  12  14
ATOM     14  C   UNL     1       4.458   5.915   2.631  0.00  0.00    +0.000 C 
BRANCH  14  15
ATOM     15  C   UNL     1       2.928   5.967   2.672  0.00  0.00    +0.000 C 
BRANCH  15  17
ATOM     16  C   UNL     1       1.099   6.935   3.791  0.00  0.00    +0.000 C 
ATOM     17  O   UNL     1       2.516   6.858   3.710  0.00  0.00    +0.000 OA
ENDBRANCH  15  17
ENDBRANCH  14  15
ENDBRANCH  12  14
ENDBRANCH  11  12
ENDBRANCH  10  11
ENDBRANCH   1  10
BRANCH   7  18
ATOM     18  C   UNL     1      11.054   5.518  -2.811  0.00  0.00    +0.000 C 
BRANCH  18  19
ATOM     19  C   UNL     1      10.911   7.011  -2.668  0.00  0.00    +0.000 A 
ATOM     20  C   UNL     1       9.647   7.586  -2.500  0.00  0.00    +0.000 A 
ATOM     21  C   UNL     1       9.523   8.947  -2.200  0.00  0.00    +0.000 A 
ATOM     22  C   UNL     1      10.660   9.758  -2.091  0.00  0.00    +0.000 A 
ATOM     23  C   UNL     1      11.922   9.197  -2.313  0.00  0.00    +0.000 A 
ATOM     24  C   UNL     1      12.034   7.840  -2.601  0.00  0.00    +0.000 A 
ATOM     25  F   UNL     1      13.256   7.323  -2.801  0.00  0.00    +0.000 F 
BRANCH  22  26
ATOM     26  C   UNL     1      10.594  11.206  -1.738  0.00  0.00    +0.000 C 
ATOM     27  N   UNL     1       9.370  11.764  -1.496  0.00  0.00    +0.000 N 
ATOM     28  O   UNL     1      11.602  11.889  -1.659  0.00  0.00    +0.000 OA
ATOM     29  H   UNL     1       8.489  11.271  -1.491  0.00  0.00    +0.000 HD
ATOM     30  H   UNL     1       9.359  12.741  -1.242  0.00  0.00    +0.000 HD
ENDBRANCH  22  26
ENDBRANCH  18  19
ENDBRANCH   7  18
TORSDOF 9
