REMARK  Name = 
REMARK  9 active torsions:
REMARK  status: ('A' for Active; 'I' for Inactive)
REMARK    1  A    between atoms: N_1  and  C_2
REMARK    2  A    between atoms: C_2  and  C_3
REMARK    3  A    between atoms: C_3  and  N_4
REMARK    4  A    between atoms: C_3  and  C_17
REMARK    5  A    between atoms: C_5  and  C_7
REMARK    6  A    between atoms: C_20  and  C_21
REMARK    7  A    between atoms: C_21  and  O_22
REMARK    8  A    between atoms: O_22  and  C_23
REMARK    9  A    between atoms: C_23  and  C_25
REMARK                            x       y       z     vdW  Elec       q    Type
REMARK                         _______ _______ _______ _____ _____    ______ ____
ROOT
ATOM      1  C   UNL     1       2.901   1.031  -0.732  0.00  0.00    +0.000 C 
ENDROOT
BRANCH   1   2
ATOM      2  C   UNL     1       4.423   1.146  -0.782  0.00  0.00    +0.000 A 
ATOM      3  C   UNL     1       5.089   1.157  -2.016  0.00  0.00    +0.000 A 
ATOM      4  C   UNL     1       6.483   1.234  -2.073  0.00  0.00    +0.000 A 
ATOM      5  C   UNL     1       7.243   1.303  -0.898  0.00  0.00    +0.000 A 
ATOM      6  C   UNL     1       6.582   1.309   0.336  0.00  0.00    +0.000 A 
ATOM      7  C   UNL     1       5.188   1.237   0.393  0.00  0.00    +0.000 A 
BRANCH   5   8
ATOM      8  C   UNL     1       8.747   1.377  -0.961  0.00  0.00    +0.000 C 
BRANCH   8   9
ATOM      9  O   UNL     1       9.224   2.578  -0.343  0.00  0.00    +0.000 OA
BRANCH   9  10
ATOM     10  C   UNL     1       9.233   3.676  -1.153  0.00  0.00    +0.000 C 
ATOM     11  O   UNL     1       8.896   3.678  -2.330  0.00  0.00    +0.000 OA
BRANCH  10  12
ATOM     12  C   UNL     1       9.705   4.872  -0.459  0.00  0.00    +0.000 A 
ATOM     13  C   UNL     1      10.210   4.960   0.884  0.00  0.00    +0.000 A 
ATOM     14  C   UNL     1      10.585   6.239   1.230  0.00  0.00    +0.000 A 
ATOM     15  S   UNL     1      10.324   7.349  -0.042  0.00  0.00    +0.000 S 
ATOM     16  C   UNL     1       9.721   6.118  -1.063  0.00  0.00    +0.000 A 
ENDBRANCH  10  12
ENDBRANCH   9  10
ENDBRANCH   8   9
ENDBRANCH   5   8
ENDBRANCH   1   2
BRANCH   1  17
ATOM     17  N   UNL     1       2.356   2.258  -0.161  0.00  0.00    +0.000 N 
ATOM     18  C   UNL     1       1.007   2.504  -0.099  0.00  0.00    +0.000 C 
ATOM     19  O   UNL     1       0.165   1.663  -0.396  0.00  0.00    +0.000 OA
ATOM     20  H   UNL     1       2.982   3.059  -0.164  0.00  0.00    +0.000 HD
BRANCH  18  21
ATOM     21  C   UNL     1       0.602   3.824   0.393  0.00  0.00    +0.000 A 
ATOM     22  C   UNL     1      -0.612   3.972   1.050  0.00  0.00    +0.000 A 
ATOM     23  S   UNL     1      -0.951   5.580   1.503  0.00  0.00    +0.000 S 
ATOM     24  C   UNL     1       0.495   6.139   0.800  0.00  0.00    +0.000 A 
ATOM     25  N   UNL     1       0.797   7.464   0.776  0.00  0.00    +0.000 NA
ATOM     26  C   UNL     1       1.904   7.747   0.174  0.00  0.00    +0.000 A 
ATOM     27  N   UNL     1       2.751   6.823  -0.381  0.00  0.00    +0.000 N 
ATOM     28  C   UNL     1       2.517   5.470  -0.324  0.00  0.00    +0.000 A 
ATOM     29  O   UNL     1       3.342   4.658  -0.728  0.00  0.00    +0.000 OA
ATOM     30  C   UNL     1       1.252   5.104   0.281  0.00  0.00    +0.000 A 
ATOM     31  H   UNL     1       3.622   7.107  -0.803  0.00  0.00    +0.000 HD
ENDBRANCH  18  21
ENDBRANCH   1  17
BRANCH   1  32
ATOM     32  C   UNL     1       2.458  -0.250   0.046  0.00  0.00    +0.000 C 
BRANCH  32  33
ATOM     33  N   UNL     1       2.995  -1.509  -0.493  0.00  0.00    +0.000 NA
ATOM     34  H   UNL     1       2.839  -2.249   0.189  0.00  0.00    +0.000 HD
ATOM     35  H   UNL     1       4.006  -1.428  -0.603  0.00  0.00    +0.000 HD
ENDBRANCH  32  33
ENDBRANCH   1  32
TORSDOF 9
