REMARK  Name = 
REMARK  9 active torsions:
REMARK  status: ('A' for Active; 'I' for Inactive)
REMARK    1  A    between atoms: C_1  and  C_2
REMARK    2  A    between atoms: C_2  and  N_3
REMARK    3  A    between atoms: C_2  and  C_17
REMARK    4  A    between atoms: C_4  and  C_6
REMARK    5  A    between atoms: N_12  and  C_13
REMARK    6  A    between atoms: C_20  and  C_21
REMARK    7  A    between atoms: C_21  and  C_22
REMARK    8  A    between atoms: C_21  and  O_23
REMARK    9  A    between atoms: C_21  and  C_24
REMARK                            x       y       z     vdW  Elec       q    Type
REMARK                         _______ _______ _______ _____ _____    ______ ____
ROOT
ATOM      1  C   UNL     1       1.189   0.298   0.691  0.00  0.00    +0.000 C 
ATOM      2  C   UNL     1       2.504  -0.060  -0.009  0.00  0.00    +0.000 C 
ENDROOT
BRANCH   2   3
ATOM      3  C   UNL     1       2.916   0.939  -1.083  0.00  0.00    +0.000 A 
ATOM      4  C   UNL     1       3.615   0.485  -2.210  0.00  0.00    +0.000 A 
ATOM      5  C   UNL     1       3.973   1.362  -3.242  0.00  0.00    +0.000 A 
ATOM      6  C   UNL     1       3.649   2.727  -3.183  0.00  0.00    +0.000 A 
ATOM      7  C   UNL     1       3.043   3.192  -2.003  0.00  0.00    +0.000 A 
ATOM      8  C   UNL     1       2.681   2.315  -0.973  0.00  0.00    +0.000 A 
BRANCH   6   9
ATOM      9  C   UNL     1       3.916   3.692  -4.349  0.00  0.00    +0.000 C 
ATOM     10  C   UNL     1       3.859   3.003  -5.727  0.00  0.00    +0.000 C 
BRANCH   9  11
ATOM     11  C   UNL     1       5.233   4.457  -4.209  0.00  0.00    +0.000 A 
ATOM     12  C   UNL     1       6.463   3.784  -4.188  0.00  0.00    +0.000 A 
ATOM     13  C   UNL     1       7.638   4.518  -4.106  0.00  0.00    +0.000 A 
ATOM     14  N   UNL     1       7.683   5.864  -4.042  0.00  0.00    +0.000 NA
ATOM     15  C   UNL     1       6.495   6.503  -4.064  0.00  0.00    +0.000 A 
ATOM     16  C   UNL     1       5.270   5.857  -4.144  0.00  0.00    +0.000 A 
ENDBRANCH   9  11
BRANCH   9  17
ATOM     17  O   UNL     1       2.824   4.633  -4.392  0.00  0.00    +0.000 OA
ATOM     18  H   UNL     1       2.010   4.120  -4.249  0.00  0.00    +0.000 HD
ENDBRANCH   9  17
ENDBRANCH   6   9
ENDBRANCH   2   3
BRANCH   2  19
ATOM     19  N   UNL     1       3.574  -0.194   0.955  0.00  0.00    +0.000 N 
ATOM     20  C   UNL     1       3.726  -1.287   1.768  0.00  0.00    +0.000 C 
ATOM     21  O   UNL     1       2.934  -2.226   1.761  0.00  0.00    +0.000 OA
ATOM     22  H   UNL     1       4.313   0.499   0.906  0.00  0.00    +0.000 HD
BRANCH  20  23
ATOM     23  C   UNL     1       4.871  -1.256   2.688  0.00  0.00    +0.000 A 
ATOM     24  C   UNL     1       4.854  -2.033   3.837  0.00  0.00    +0.000 A 
ATOM     25  S   UNL     1       6.261  -1.874   4.787  0.00  0.00    +0.000 S 
ATOM     26  C   UNL     1       6.958  -0.792   3.675  0.00  0.00    +0.000 A 
ATOM     27  N   UNL     1       8.204  -0.292   3.874  0.00  0.00    +0.000 NA
ATOM     28  C   UNL     1       8.621   0.499   2.940  0.00  0.00    +0.000 A 
ATOM     29  N   UNL     1       7.907   0.855   1.819  0.00  0.00    +0.000 N 
ATOM     30  C   UNL     1       8.459   1.769   0.838  0.00  0.00    +0.000 C 
ATOM     31  C   UNL     1       6.615   0.394   1.604  0.00  0.00    +0.000 A 
ATOM     32  O   UNL     1       5.935   0.759   0.648  0.00  0.00    +0.000 OA
ATOM     33  C   UNL     1       6.117  -0.527   2.612  0.00  0.00    +0.000 A 
ENDBRANCH  20  23
ENDBRANCH   2  19
TORSDOF 6
