REMARK  Name = 
REMARK  8 active torsions:
REMARK  status: ('A' for Active; 'I' for Inactive)
REMARK    1  A    between atoms: N_1  and  C_2
REMARK    2  A    between atoms: C_2  and  C_3
REMARK    3  A    between atoms: C_2  and  C_18
REMARK    4  A    between atoms: C_3  and  C_4
REMARK    5  A    between atoms: C_7  and  C_8
REMARK    6  A    between atoms: C_8  and  N_9
REMARK    7  A    between atoms: N_9  and  C_10
REMARK    8  A    between atoms: C_10  and  C_11
REMARK                            x       y       z     vdW  Elec       q    Type
REMARK                         _______ _______ _______ _____ _____    ______ ____
ROOT
ATOM      1  C   UNL     1       4.756  -2.361 -14.858  0.00  0.00    +0.000 C 
ENDROOT
BRANCH   1   2
ATOM      2  C   UNL     1       4.203  -2.187 -13.465  0.00  0.00    +0.000 A 
ATOM      3  C   UNL     1       3.611  -3.261 -12.797  0.00  0.00    +0.000 A 
ATOM      4  C   UNL     1       3.024  -3.068 -11.550  0.00  0.00    +0.000 A 
ATOM      5  C   UNL     1       3.034  -1.794 -10.988  0.00  0.00    +0.000 A 
ATOM      6  N   UNL     1       3.615  -0.734 -11.608  0.00  0.00    +0.000 NA
ATOM      7  C   UNL     1       4.185  -0.954 -12.820  0.00  0.00    +0.000 A 
BRANCH   5   8
ATOM      8  C   UNL     1       2.364  -1.563  -9.643  0.00  0.00    +0.000 C 
BRANCH   8   9
ATOM      9  N   UNL     1       1.345  -0.501  -9.628  0.00  0.00    +0.000 NA
ATOM     10  H   UNL     1       1.811   0.350  -9.955  0.00  0.00    +0.000 HD
BRANCH   9  11
ATOM     11  C   UNL     1       0.210  -0.773 -10.527  0.00  0.00    +0.000 C 
BRANCH  11  12
ATOM     12  C   UNL     1      -0.781   0.421 -10.489  0.00  0.00    +0.000 C 
ATOM     13  C   UNL     1      -2.002   0.240 -11.377  0.00  0.00    +0.000 C 
ATOM     14  C   UNL     1      -3.028  -0.443 -10.492  0.00  0.00    +0.000 C 
ATOM     15  C   UNL     1      -2.577  -0.169  -9.065  0.00  0.00    +0.000 C 
ATOM     16  N   UNL     1      -1.362   0.638  -9.153  0.00  0.00    +0.000 NA
ATOM     17  H   UNL     1      -0.675   0.335  -8.457  0.00  0.00    +0.000 HD
ENDBRANCH  11  12
ENDBRANCH   9  11
ENDBRANCH   8   9
ENDBRANCH   5   8
ENDBRANCH   1   2
BRANCH   1  18
ATOM     18  C   UNL     1       6.256  -2.045 -15.055  0.00  0.00    +0.000 C 
BRANCH  18  19
ATOM     19  C   UNL     1       6.668  -2.280 -16.501  0.00  0.00    +0.000 A 
ATOM     20  C   UNL     1       7.084  -3.488 -17.043  0.00  0.00    +0.000 A 
ATOM     21  S   UNL     1       7.493  -3.387 -18.699  0.00  0.00    +0.000 S 
ATOM     22  C   UNL     1       7.085  -1.737 -18.760  0.00  0.00    +0.000 A 
ATOM     23  N   UNL     1       7.196  -1.024 -19.913  0.00  0.00    +0.000 NA
ATOM     24  C   UNL     1       6.836   0.212 -19.807  0.00  0.00    +0.000 A 
ATOM     25  N   UNL     1       6.369   0.798 -18.657  0.00  0.00    +0.000 N 
ATOM     26  C   UNL     1       6.215   0.113 -17.474  0.00  0.00    +0.000 A 
ATOM     27  O   UNL     1       5.732   0.641 -16.477  0.00  0.00    +0.000 OA
ATOM     28  C   UNL     1       6.641  -1.273 -17.536  0.00  0.00    +0.000 A 
ATOM     29  H   UNL     1       6.082   1.765 -18.649  0.00  0.00    +0.000 HD
ENDBRANCH  18  19
BRANCH  18  30
ATOM     30  N   UNL     1       7.119  -2.852 -14.186  0.00  0.00    +0.000 NA
ATOM     31  H   UNL     1       8.093  -2.712 -14.453  0.00  0.00    +0.000 HD
ATOM     32  H   UNL     1       6.912  -3.840 -14.298  0.00  0.00    +0.000 HD
ENDBRANCH  18  30
ENDBRANCH   1  18
TORSDOF 8
