REMARK  Name = 
REMARK  8 active torsions:
REMARK  status: ('A' for Active; 'I' for Inactive)
REMARK    1  A    between atoms: C_2  and  O_3
REMARK    2  A    between atoms: C_2  and  C_20
REMARK    3  A    between atoms: O_3  and  C_4
REMARK    4  A    between atoms: C_4  and  C_5
REMARK    5  A    between atoms: C_8  and  C_9
REMARK    6  A    between atoms: C_9  and  N_10
REMARK    7  A    between atoms: N_10  and  C_11
REMARK    8  A    between atoms: C_11  and  C_12
REMARK                            x       y       z     vdW  Elec       q    Type
REMARK                         _______ _______ _______ _____ _____    ______ ____
ROOT
ATOM      1  C   UNL     1       4.778   1.251   2.367  0.00  0.00    +0.000 C 
ATOM      2  C   UNL     1       4.074   0.548   3.540  0.00  0.00    +0.000 C 
ATOM      3  C   UNL     1       4.379   1.224   4.875  0.00  0.00    +0.000 C 
ATOM      4  C   UNL     1       4.025   2.718   4.841  0.00  0.00    +0.000 C 
ATOM      5  C   UNL     1       4.752   3.410   3.676  0.00  0.00    +0.000 C 
ATOM      6  C   UNL     1       4.441   2.745   2.339  0.00  0.00    +0.000 C 
ENDROOT
BRANCH   1   7
ATOM      7  C   UNL     1       4.425   0.582   1.035  0.00  0.00    +0.000 C 
BRANCH   7   8
ATOM      8  O   UNL     1       4.746  -0.817   1.083  0.00  0.00    +0.000 OA
BRANCH   8  10
ATOM      9  O   UNL     1       6.934  -0.416   0.564  0.00  0.00    +0.000 OA
ATOM     10  C   UNL     1       6.017  -1.194   0.796  0.00  0.00    +0.000 C 
BRANCH  10  11
ATOM     11  C   UNL     1       6.196  -2.644   0.857  0.00  0.00    +0.000 A 
ATOM     12  C   UNL     1       7.429  -3.216   1.132  0.00  0.00    +0.000 A 
ATOM     13  S   UNL     1       7.395  -4.925   1.140  0.00  0.00    +0.000 S 
ATOM     14  C   UNL     1       5.725  -4.950   0.812  0.00  0.00    +0.000 A 
ATOM     15  N   UNL     1       5.050  -6.127   0.714  0.00  0.00    +0.000 NA
ATOM     16  C   UNL     1       3.779  -5.991   0.499  0.00  0.00    +0.000 A 
ATOM     17  N   UNL     1       3.138  -4.791   0.361  0.00  0.00    +0.000 N 
ATOM     18  C   UNL     1       3.793  -3.584   0.343  0.00  0.00    +0.000 A 
ATOM     19  O   UNL     1       3.190  -2.561   0.043  0.00  0.00    +0.000 OA
ATOM     20  C   UNL     1       5.207  -3.676   0.669  0.00  0.00    +0.000 A 
ATOM     21  H   UNL     1       2.151  -4.750   0.151  0.00  0.00    +0.000 HD
ENDBRANCH  10  11
ENDBRANCH   8  10
ENDBRANCH   7   8
ENDBRANCH   1   7
BRANCH   4  22
ATOM     22  C   UNL     1       4.359   3.388   6.188  0.00  0.00    +0.000 C 
BRANCH  22  23
ATOM     23  N   UNL     1       3.986   4.801   6.150  0.00  0.00    +0.000 NA
ATOM     24  H   UNL     1       2.990   4.896   5.953  0.00  0.00    +0.000 HD
BRANCH  23  25
ATOM     25  C   UNL     1       4.304   5.492   7.395  0.00  0.00    +0.000 C 
BRANCH  25  26
ATOM     26  C   UNL     1       3.917   6.944   7.313  0.00  0.00    +0.000 A 
ATOM     27  C   UNL     1       4.492   7.812   6.379  0.00  0.00    +0.000 A 
ATOM     28  C   UNL     1       4.089   9.144   6.330  0.00  0.00    +0.000 A 
ATOM     29  C   UNL     1       3.121   9.568   7.225  0.00  0.00    +0.000 A 
ATOM     30  N   UNL     1       2.550   8.767   8.149  0.00  0.00    +0.000 NA
ATOM     31  C   UNL     1       2.962   7.479   8.171  0.00  0.00    +0.000 A 
ENDBRANCH  25  26
ENDBRANCH  23  25
ENDBRANCH  22  23
ENDBRANCH   4  22
TORSDOF 8
