REMARK  Name = 
REMARK  9 active torsions:
REMARK  status: ('A' for Active; 'I' for Inactive)
REMARK    1  A    between atoms: C_1  and  N_2
REMARK    2  A    between atoms: N_2  and  C_3
REMARK    3  A    between atoms: C_3  and  C_4
REMARK    4  A    between atoms: C_4  and  C_5
REMARK    5  A    between atoms: C_8  and  C_9
REMARK    6  A    between atoms: C_9  and  O_10
REMARK    7  A    between atoms: O_10  and  C_11
REMARK    8  A    between atoms: C_14  and  C_15
REMARK    9  A    between atoms: C_18  and  C_19
REMARK                            x       y       z     vdW  Elec       q    Type
REMARK                         _______ _______ _______ _____ _____    ______ ____
ROOT
ATOM      1  O   UNL     1       7.363  -4.231  -5.924  0.00  0.00    +0.000 OA
ENDROOT
BRANCH   1   2
ATOM      2  C   UNL     1       7.730  -4.974  -7.013  0.00  0.00    +0.000 A 
ATOM      3  C   UNL     1       6.899  -5.304  -8.083  0.00  0.00    +0.000 A 
ATOM      4  C   UNL     1       7.380  -6.062  -9.150  0.00  0.00    +0.000 A 
ATOM      5  C   UNL     1       8.711  -6.509  -9.165  0.00  0.00    +0.000 A 
ATOM      6  C   UNL     1       9.562  -6.159  -8.105  0.00  0.00    +0.000 A 
ATOM      7  C   UNL     1       9.057  -5.405  -7.029  0.00  0.00    +0.000 A 
BRANCH   5   8
ATOM      8  C   UNL     1       9.193  -7.306 -10.324  0.00  0.00    +0.000 C 
ATOM      9  N   UNL     1       8.289  -8.092 -10.981  0.00  0.00    +0.000 N 
ATOM     10  O   UNL     1      10.362  -7.279 -10.687  0.00  0.00    +0.000 OA
ATOM     11  H   UNL     1       7.340  -8.263 -10.677  0.00  0.00    +0.000 HD
ATOM     12  H   UNL     1       8.659  -8.689 -11.713  0.00  0.00    +0.000 HD
ENDBRANCH   5   8
BRANCH   6  13
ATOM     13  C   UNL     1      10.948  -6.534  -8.052  0.00  0.00    +0.000 C 
ATOM     14  N   UNL     1      12.072  -6.793  -7.929  0.00  0.00    +0.000 NA
ENDBRANCH   6  13
ENDBRANCH   1   2
BRANCH   1  15
ATOM     15  C   UNL     1       6.017  -3.749  -5.938  0.00  0.00    +0.000 C 
BRANCH  15  19
ATOM     16  C   UNL     1       4.993  -1.514  -2.464  0.00  0.00    +0.000 A 
ATOM     17  C   UNL     1       5.583  -0.854  -3.542  0.00  0.00    +0.000 A 
ATOM     18  C   UNL     1       5.954  -1.576  -4.672  0.00  0.00    +0.000 A 
ATOM     19  C   UNL     1       5.718  -2.948  -4.698  0.00  0.00    +0.000 A 
ATOM     20  N   UNL     1       5.162  -3.614  -3.657  0.00  0.00    +0.000 NA
ATOM     21  C   UNL     1       4.816  -2.890  -2.574  0.00  0.00    +0.000 A 
BRANCH  16  22
ATOM     22  C   UNL     1       4.545  -0.772  -1.235  0.00  0.00    +0.000 C 
BRANCH  22  23
ATOM     23  C   UNL     1       5.299  -1.237   0.016  0.00  0.00    +0.000 C 
BRANCH  23  25
ATOM     24  C   UNL     1       5.557  -0.979   2.385  0.00  0.00    +0.000 C 
ATOM     25  N   UNL     1       4.839  -0.514   1.204  0.00  0.00    +0.000 NA
ATOM     26  H   UNL     1       5.004   0.485   1.084  0.00  0.00    +0.000 HD
ENDBRANCH  23  25
ENDBRANCH  22  23
ENDBRANCH  16  22
ENDBRANCH  15  19
ENDBRANCH   1  15
TORSDOF 8
