REMARK  Name = 
REMARK  3 active torsions:
REMARK  status: ('A' for Active; 'I' for Inactive)
REMARK    1  A    between atoms: N_5  and  C_6
REMARK    2  A    between atoms: C_6  and  C_7
REMARK    3  A    between atoms: C_11  and  C_12
REMARK                            x       y       z     vdW  Elec       q    Type
REMARK                         _______ _______ _______ _____ _____    ______ ____
ROOT
ATOM      1  C   UNL     1      -0.717   4.940   0.051  0.00  0.00    +0.000 A 
ATOM      2  C   UNL     1      -1.572   5.876  -0.544  0.00  0.00    +0.000 A 
ATOM      3  C   UNL     1      -1.304   7.238  -0.435  0.00  0.00    +0.000 A 
ATOM      4  C   UNL     1      -0.176   7.678   0.264  0.00  0.00    +0.000 A 
ATOM      5  C   UNL     1       0.711   6.773   0.874  0.00  0.00    +0.000 A 
ATOM      6  C   UNL     1       0.420   5.400   0.739  0.00  0.00    +0.000 A 
ENDROOT
BRANCH   5   7
ATOM      7  C   UNL     1       1.882   7.243   1.648  0.00  0.00    +0.000 A 
ATOM      8  C   UNL     1       3.094   6.537   1.688  0.00  0.00    +0.000 A 
ATOM      9  C   UNL     1       4.171   7.006   2.443  0.00  0.00    +0.000 A 
ATOM     10  C   UNL     1       4.017   8.188   3.145  0.00  0.00    +0.000 A 
ATOM     11  N   UNL     1       2.880   8.908   3.144  0.00  0.00    +0.000 NA
ATOM     12  C   UNL     1       1.850   8.418   2.407  0.00  0.00    +0.000 A 
ENDBRANCH   5   7
BRANCH   1  13
ATOM     13  C   UNL     1      -1.041   3.465  -0.007  0.00  0.00    +0.000 C 
BRANCH  13  18
ATOM     14  C   UNL     1      -1.194  -1.126  -1.800  0.00  0.00    +0.000 A 
ATOM     15  C   UNL     1      -1.683  -0.471  -0.699  0.00  0.00    +0.000 A 
ATOM     16  N   UNL     1      -1.546   0.853  -0.502  0.00  0.00    +0.000 NA
ATOM     17  C   UNL     1      -0.879   1.553  -1.435  0.00  0.00    +0.000 A 
ATOM     18  N   UNL     1      -0.749   2.925  -1.315  0.00  0.00    +0.000 N 
ATOM     19  N   UNL     1      -0.329   0.991  -2.522  0.00  0.00    +0.000 NA
ATOM     20  C   UNL     1      -0.515  -0.333  -2.690  0.00  0.00    +0.000 A 
ATOM     21  H   UNL     1       0.100   3.227  -1.774  0.00  0.00    +0.000 HD
ENDBRANCH  13  18
ENDBRANCH   1  13
TORSDOF 3
