REMARK  Name = 
REMARK  6 active torsions:
REMARK  status: ('A' for Active; 'I' for Inactive)
REMARK    1  A    between atoms: N_1  and  C_2
REMARK    2  A    between atoms: C_2  and  C_3
REMARK    3  A    between atoms: C_7  and  N_8
REMARK    4  A    between atoms: N_8  and  C_9
REMARK    5  A    between atoms: C_9  and  C_10
REMARK    6  A    between atoms: C_10  and  C_11
REMARK                            x       y       z     vdW  Elec       q    Type
REMARK                         _______ _______ _______ _____ _____    ______ ____
ROOT
ATOM      1  C   UNL     1       2.830  -1.350   0.549  0.00  0.00    +0.000 A 
ATOM      2  C   UNL     1       3.811  -1.473   1.539  0.00  0.00    +0.000 A 
ATOM      3  C   UNL     1       4.315  -2.725   1.874  0.00  0.00    +0.000 A 
ATOM      4  C   UNL     1       3.822  -3.870   1.246  0.00  0.00    +0.000 A 
ATOM      5  C   UNL     1       2.797  -3.793   0.293  0.00  0.00    +0.000 A 
ATOM      6  C   UNL     1       2.349  -2.514  -0.078  0.00  0.00    +0.000 A 
ENDROOT
BRANCH   5   7
ATOM      7  N   UNL     1       2.299  -4.919  -0.393  0.00  0.00    +0.000 N 
ATOM      8  H   UNL     1       1.384  -4.711  -0.790  0.00  0.00    +0.000 HD
BRANCH   7   9
ATOM      9  C   UNL     1       2.290  -6.193   0.343  0.00  0.00    +0.000 C 
BRANCH   9  10
ATOM     10  C   UNL     1       1.681  -7.308  -0.510  0.00  0.00    +0.000 C 
BRANCH  10  11
ATOM     11  C   UNL     1       1.660  -8.609   0.250  0.00  0.00    +0.000 A 
ATOM     12  C   UNL     1       2.733  -9.495   0.180  0.00  0.00    +0.000 A 
ATOM     13  C   UNL     1       2.678 -10.678   0.912  0.00  0.00    +0.000 A 
ATOM     14  C   UNL     1       1.563 -10.943   1.697  0.00  0.00    +0.000 A 
ATOM     15  C   UNL     1       0.545 -10.005   1.720  0.00  0.00    +0.000 A 
ATOM     16  N   UNL     1       0.571  -8.848   1.022  0.00  0.00    +0.000 NA
ENDBRANCH  10  11
ENDBRANCH   9  10
ENDBRANCH   7   9
ENDBRANCH   5   7
BRANCH   1  17
ATOM     17  C   UNL     1       2.285   0.008   0.187  0.00  0.00    +0.000 C 
BRANCH  17  18
ATOM     18  N   UNL     1       3.337   0.912  -0.265  0.00  0.00    +0.000 NA
ATOM     19  H   UNL     1       2.913   1.767  -0.617  0.00  0.00    +0.000 HD
ATOM     20  H   UNL     1       3.820   0.481  -1.052  0.00  0.00    +0.000 HD
ENDBRANCH  17  18
ENDBRANCH   1  17
TORSDOF 6
