REMARK  Name = 
REMARK  4 active torsions:
REMARK  status: ('A' for Active; 'I' for Inactive)
REMARK    1  A    between atoms: N_1  and  C_2
REMARK    2  A    between atoms: C_2  and  C_3
REMARK    3  A    between atoms: C_7  and  C_8
REMARK    4  A    between atoms: C_8  and  N_9
REMARK                            x       y       z     vdW  Elec       q    Type
REMARK                         _______ _______ _______ _____ _____    ______ ____
ROOT
ATOM      1  C   UNL     1       1.772  -2.143  -1.404  0.00  0.00    +0.000 A 
ATOM      2  C   UNL     1       2.365  -2.316  -0.152  0.00  0.00    +0.000 A 
ATOM      3  C   UNL     1       3.726  -2.566  -0.092  0.00  0.00    +0.000 A 
ATOM      4  N   UNL     1       4.527  -2.636  -1.177  0.00  0.00    +0.000 NA
ATOM      5  C   UNL     1       3.951  -2.460  -2.394  0.00  0.00    +0.000 A 
ATOM      6  C   UNL     1       2.584  -2.230  -2.543  0.00  0.00    +0.000 A 
ENDROOT
BRANCH   1   7
ATOM      7  C   UNL     1       0.304  -1.829  -1.528  0.00  0.00    +0.000 C 
BRANCH   7   8
ATOM      8  N   UNL     1      -0.409  -2.866  -2.262  0.00  0.00    +0.000 NA
ATOM      9  H   UNL     1      -1.396  -2.619  -2.305  0.00  0.00    +0.000 HD
ATOM     10  H   UNL     1      -0.358  -3.738  -1.737  0.00  0.00    +0.000 HD
ENDBRANCH   7   8
ENDBRANCH   1   7
BRANCH   5  11
ATOM     11  C   UNL     1       4.869  -2.501  -3.588  0.00  0.00    +0.000 C 
BRANCH  11  12
ATOM     12  N   UNL     1       5.377  -1.183  -3.945  0.00  0.00    +0.000 N 
ATOM     13  C   UNL     1       6.135  -0.383  -3.131  0.00  0.00    +0.000 A 
ATOM     14  N   UNL     1       6.575   0.681  -3.759  0.00  0.00    +0.000 NA
ATOM     15  C   UNL     1       6.109   0.557  -5.045  0.00  0.00    +0.000 A 
ATOM     16  C   UNL     1       6.321   1.393  -6.152  0.00  0.00    +0.000 A 
ATOM     17  C   UNL     1       5.754   1.041  -7.381  0.00  0.00    +0.000 A 
ATOM     18  C   UNL     1       4.979  -0.114  -7.504  0.00  0.00    +0.000 A 
ATOM     19  C   UNL     1       4.750  -0.956  -6.408  0.00  0.00    +0.000 A 
ATOM     20  C   UNL     1       5.339  -0.597  -5.190  0.00  0.00    +0.000 A 
ENDBRANCH  11  12
ENDBRANCH   5  11
TORSDOF 4
