REMARK  Name = 
REMARK  7 active torsions:
REMARK  status: ('A' for Active; 'I' for Inactive)
REMARK    1  A    between atoms: C_2  and  O_3
REMARK    2  A    between atoms: C_2  and  C_19
REMARK    3  A    between atoms: O_3  and  C_4
REMARK    4  A    between atoms: C_4  and  C_5
REMARK    5  A    between atoms: C_8  and  C_9
REMARK    6  A    between atoms: C_9  and  C_10
REMARK    7  A    between atoms: C_13  and  O_14
REMARK                            x       y       z     vdW  Elec       q    Type
REMARK                         _______ _______ _______ _____ _____    ______ ____
ROOT
ATOM      1  C   UNL     1      12.642   2.717  -7.346  0.00  0.00    +0.000 C 
ENDROOT
BRANCH   1   2
ATOM      2  C   UNL     1      11.156   2.664  -7.535  0.00  0.00    +0.000 A 
ATOM      3  C   UNL     1      10.312   2.193  -6.526  0.00  0.00    +0.000 A 
ATOM      4  C   UNL     1       8.933   2.264  -6.692  0.00  0.00    +0.000 A 
ATOM      5  C   UNL     1       8.428   2.796  -7.874  0.00  0.00    +0.000 A 
ATOM      6  N   UNL     1       9.228   3.214  -8.884  0.00  0.00    +0.000 NA
ATOM      7  C   UNL     1      10.564   3.141  -8.695  0.00  0.00    +0.000 A 
BRANCH   5   8
ATOM      8  C   UNL     1       6.940   2.951  -8.073  0.00  0.00    +0.000 C 
BRANCH   8   9
ATOM      9  C   UNL     1       6.421   2.152  -9.280  0.00  0.00    +0.000 C 
ATOM     10  C   UNL     1       6.602   0.639  -9.078  0.00  0.00    +0.000 C 
ATOM     11  C   UNL     1       6.128  -0.131 -10.309  0.00  0.00    +0.000 C 
ATOM     12  C   UNL     1       4.679   0.188 -10.672  0.00  0.00    +0.000 C 
ATOM     13  C   UNL     1       4.419   1.693 -10.765  0.00  0.00    +0.000 C 
ATOM     14  C   UNL     1       4.942   2.469  -9.553  0.00  0.00    +0.000 C 
BRANCH  12  15
ATOM     15  O   UNL     1       3.797  -0.402  -9.718  0.00  0.00    +0.000 OA
ATOM     16  H   UNL     1       3.956   0.010  -8.853  0.00  0.00    +0.000 HD
ENDBRANCH  12  15
ENDBRANCH   8   9
ENDBRANCH   5   8
ENDBRANCH   1   2
BRANCH   1  17
ATOM     17  O   UNL     1      12.938   3.470  -6.165  0.00  0.00    +0.000 OA
BRANCH  17  19
ATOM     18  O   UNL     1      12.809   5.411  -7.362  0.00  0.00    +0.000 OA
ATOM     19  C   UNL     1      13.010   4.816  -6.310  0.00  0.00    +0.000 C 
BRANCH  19  20
ATOM     20  C   UNL     1      13.298   5.502  -5.053  0.00  0.00    +0.000 A 
ATOM     21  C   UNL     1      12.930   6.826  -4.864  0.00  0.00    +0.000 A 
ATOM     22  S   UNL     1      13.341   7.425  -3.320  0.00  0.00    +0.000 S 
ATOM     23  C   UNL     1      14.026   5.935  -2.862  0.00  0.00    +0.000 A 
ATOM     24  N   UNL     1      14.573   5.771  -1.627  0.00  0.00    +0.000 NA
ATOM     25  C   UNL     1      15.042   4.587  -1.402  0.00  0.00    +0.000 A 
ATOM     26  N   UNL     1      15.023   3.560  -2.311  0.00  0.00    +0.000 N 
ATOM     27  C   UNL     1      14.559   3.699  -3.599  0.00  0.00    +0.000 A 
ATOM     28  O   UNL     1      14.705   2.793  -4.411  0.00  0.00    +0.000 OA
ATOM     29  C   UNL     1      13.958   4.995  -3.874  0.00  0.00    +0.000 A 
ATOM     30  H   UNL     1      15.443   2.667  -2.090  0.00  0.00    +0.000 HD
ENDBRANCH  19  20
ENDBRANCH  17  19
ENDBRANCH   1  17
TORSDOF 7
