REMARK  Name = 
REMARK  5 active torsions:
REMARK  status: ('A' for Active; 'I' for Inactive)
REMARK    1  A    between atoms: C_1  and  C_2
REMARK    2  A    between atoms: C_5  and  C_6
REMARK    3  A    between atoms: C_6  and  C_7
REMARK    4  A    between atoms: C_6  and  N_8
REMARK    5  A    between atoms: C_14  and  C_15
REMARK                            x       y       z     vdW  Elec       q    Type
REMARK                         _______ _______ _______ _____ _____    ______ ____
ROOT
ATOM      1  N   UNL     1      -3.733   1.644   0.054  0.00  0.00    +0.000 N 
ATOM      2  C   UNL     1      -4.987   1.901  -0.481  0.00  0.00    +0.000 A 
ATOM      3  N   UNL     1      -5.933   0.957  -0.481  0.00  0.00    +0.000 NA
ATOM      4  C   UNL     1      -7.148   1.285  -0.974  0.00  0.00    +0.000 A 
ATOM      5  C   UNL     1      -7.477   2.522  -1.470  0.00  0.00    +0.000 A 
ATOM      6 CL   UNL     1      -9.074   2.788  -2.037  0.00  0.00    +0.000 Cl
ATOM      7  C   UNL     1      -6.439   3.428  -1.443  0.00  0.00    +0.000 A 
ATOM      8  N   UNL     1      -5.187   3.135  -0.959  0.00  0.00    +0.000 NA
ATOM      9  H   UNL     1      -3.098   2.300  -0.390  0.00  0.00    +0.000 HD
ENDROOT
BRANCH   7  10
ATOM     10  C   UNL     1      -6.596   4.838  -1.945  0.00  0.00    +0.000 C 
ATOM     11  N   UNL     1      -5.478   5.628  -1.853  0.00  0.00    +0.000 N 
ATOM     12  O   UNL     1      -7.625   5.303  -2.415  0.00  0.00    +0.000 OA
ATOM     13  H   UNL     1      -4.624   5.259  -1.453  0.00  0.00    +0.000 HD
ATOM     14  H   UNL     1      -5.529   6.585  -2.168  0.00  0.00    +0.000 HD
ENDBRANCH   7  10
BRANCH   1  15
ATOM     15  C   UNL     1      -3.264   0.253   0.009  0.00  0.00    +0.000 C 
ATOM     16  C   UNL     1      -3.755  -0.548   1.222  0.00  0.00    +0.000 C 
BRANCH  15  21
ATOM     17  C   UNL     1       2.513  -0.134  -0.279  0.00  0.00    +0.000 C 
ATOM     18  C   UNL     1       1.030   0.019  -0.163  0.00  0.00    +0.000 A 
ATOM     19  C   UNL     1       0.433   0.598   0.955  0.00  0.00    +0.000 A 
ATOM     20  C   UNL     1      -0.958   0.701   1.021  0.00  0.00    +0.000 A 
ATOM     21  C   UNL     1      -1.731   0.214  -0.035  0.00  0.00    +0.000 A 
ATOM     22  N   UNL     1      -1.162  -0.340  -1.137  0.00  0.00    +0.000 NA
ATOM     23  C   UNL     1       0.188  -0.429  -1.173  0.00  0.00    +0.000 A 
ENDBRANCH  15  21
ENDBRANCH   1  15
TORSDOF 3
