REMARK  Name = 
REMARK  8 active torsions:
REMARK  status: ('A' for Active; 'I' for Inactive)
REMARK    1  A    between atoms: C_1  and  O_2
REMARK    2  A    between atoms: O_2  and  C_3
REMARK    3  A    between atoms: C_7  and  N_8
REMARK    4  A    between atoms: N_8  and  C_9
REMARK    5  A    between atoms: C_9  and  C_10
REMARK    6  A    between atoms: C_15  and  C_16
REMARK    7  A    between atoms: C_20  and  C_21
REMARK    8  A    between atoms: C_21  and  O_22
REMARK                            x       y       z     vdW  Elec       q    Type
REMARK                         _______ _______ _______ _____ _____    ______ ____
ROOT
ATOM      1  C   UNL     1       1.849   1.767  -6.486  0.00  0.00    +0.000 A 
ATOM      2  C   UNL     1       1.715   0.803  -7.490  0.00  0.00    +0.000 A 
ATOM      3  C   UNL     1       1.647   1.194  -8.824  0.00  0.00    +0.000 A 
ATOM      4  C   UNL     1       1.727   2.545  -9.159  0.00  0.00    +0.000 A 
ATOM      5  F   UNL     1       1.674   2.859 -10.463  0.00  0.00    +0.000 F 
ATOM      6  C   UNL     1       1.868   3.552  -8.188  0.00  0.00    +0.000 A 
ATOM      7  C   UNL     1       1.930   3.127  -6.845  0.00  0.00    +0.000 A 
ENDROOT
BRANCH   6   8
ATOM      8  C   UNL     1       1.931   4.991  -8.534  0.00  0.00    +0.000 A 
ATOM      9  C   UNL     1       1.225   5.537  -9.608  0.00  0.00    +0.000 A 
ATOM     10  N   UNL     1       1.223   6.849  -9.958  0.00  0.00    +0.000 NA
ATOM     11  C   UNL     1       1.957   7.683  -9.196  0.00  0.00    +0.000 A 
ATOM     12  C   UNL     1       2.688   7.279  -8.087  0.00  0.00    +0.000 A 
ATOM     13  C   UNL     1       2.686   5.909  -7.784  0.00  0.00    +0.000 A 
BRANCH  12  14
ATOM     14  C   UNL     1       3.491   8.272  -7.302  0.00  0.00    +0.000 C 
BRANCH  14  15
ATOM     15  O   UNL     1       3.535   7.926  -5.923  0.00  0.00    +0.000 OA
ATOM     16  H   UNL     1       2.613   7.858  -5.620  0.00  0.00    +0.000 HD
ENDBRANCH  14  15
ENDBRANCH  12  14
ENDBRANCH   6   8
BRANCH   1  17
ATOM     17  C   UNL     1       1.933   1.355  -5.035  0.00  0.00    +0.000 C 
BRANCH  17  18
ATOM     18  N   UNL     1       3.304   0.999  -4.711  0.00  0.00    +0.000 N 
ATOM     19  H   UNL     1       4.003   1.599  -5.144  0.00  0.00    +0.000 HD
BRANCH  18  24
ATOM     20  C   UNL     1       3.114  -0.189  -1.178  0.00  0.00    +0.000 A 
ATOM     21  C   UNL     1       4.477  -0.327  -0.953  0.00  0.00    +0.000 A 
ATOM     22  N   UNL     1       5.428  -0.063  -1.876  0.00  0.00    +0.000 NA
ATOM     23  C   UNL     1       4.984   0.380  -3.077  0.00  0.00    +0.000 A 
ATOM     24  C   UNL     1       3.647   0.610  -3.414  0.00  0.00    +0.000 A 
ATOM     25  C   UNL     1       2.707   0.286  -2.425  0.00  0.00    +0.000 A 
BRANCH  20  27
ATOM     26  C   UNL     1       0.970  -0.913  -0.501  0.00  0.00    +0.000 C 
ATOM     27  O   UNL     1       2.285  -0.502  -0.139  0.00  0.00    +0.000 OA
ENDBRANCH  20  27
ENDBRANCH  18  24
ENDBRANCH  17  18
ENDBRANCH   1  17
TORSDOF 7
