REMARK  Name = 
REMARK  4 active torsions:
REMARK  status: ('A' for Active; 'I' for Inactive)
REMARK    1  A    between atoms: C_2  and  C_3
REMARK    2  A    between atoms: C_6  and  C_7
REMARK    3  A    between atoms: C_7  and  N_8
REMARK    4  A    between atoms: C_13  and  C_14
REMARK                            x       y       z     vdW  Elec       q    Type
REMARK                         _______ _______ _______ _____ _____    ______ ____
ROOT
ATOM      1  N   UNL     1       4.415  -1.416   0.111  0.00  0.00    +0.000 N 
ATOM      2  C   UNL     1       5.084  -1.971   1.170  0.00  0.00    +0.000 A 
ATOM      3  N   UNL     1       5.388  -3.234   0.956  0.00  0.00    +0.000 NA
ATOM      4  C   UNL     1       4.876  -3.513  -0.286  0.00  0.00    +0.000 A 
ATOM      5  C   UNL     1       4.850  -4.707  -1.017  0.00  0.00    +0.000 A 
ATOM      6  C   UNL     1       4.211  -4.681  -2.262  0.00  0.00    +0.000 A 
ATOM      7  C   UNL     1       3.649  -3.476  -2.702  0.00  0.00    +0.000 A 
ATOM      8  N   UNL     1       3.654  -2.290  -2.031  0.00  0.00    +0.000 NA
ATOM      9  C   UNL     1       4.274  -2.389  -0.840  0.00  0.00    +0.000 A 
ENDROOT
BRANCH   6  10
ATOM     10  C   UNL     1       4.081  -5.870  -3.137  0.00  0.00    +0.000 C 
ATOM     11  N   UNL     1       4.613  -7.056  -2.714  0.00  0.00    +0.000 N 
ATOM     12  O   UNL     1       3.505  -5.802  -4.218  0.00  0.00    +0.000 OA
ATOM     13  H   UNL     1       5.109  -7.204  -1.850  0.00  0.00    +0.000 HD
ATOM     14  H   UNL     1       4.519  -7.849  -3.338  0.00  0.00    +0.000 HD
ENDBRANCH   6  10
BRANCH   1  15
ATOM     15  C   UNL     1       3.799  -0.102   0.082  0.00  0.00    +0.000 C 
BRANCH  15  19
ATOM     16  C   UNL     1       6.477   3.041  -1.223  0.00  0.00    +0.000 A 
ATOM     17  C   UNL     1       6.166   1.987  -2.086  0.00  0.00    +0.000 A 
ATOM     18  C   UNL     1       5.294   0.972  -1.676  0.00  0.00    +0.000 A 
ATOM     19  C   UNL     1       4.743   0.982  -0.385  0.00  0.00    +0.000 A 
ATOM     20  C   UNL     1       5.054   2.054   0.470  0.00  0.00    +0.000 A 
ATOM     21  C   UNL     1       5.913   3.074   0.055  0.00  0.00    +0.000 A 
BRANCH  16  23
ATOM     22  N   UNL     1       8.084   4.923  -1.992  0.00  0.00    +0.000 NA
ATOM     23  C   UNL     1       7.365   4.081  -1.649  0.00  0.00    +0.000 C 
ENDBRANCH  16  23
ENDBRANCH  15  19
ENDBRANCH   1  15
TORSDOF 4
