REMARK  Name = 
REMARK  8 active torsions:
REMARK  status: ('A' for Active; 'I' for Inactive)
REMARK    1  A    between atoms: C_2  and  CA_27
REMARK    2  A    between atoms: N_3  and  CA_4
REMARK    3  A    between atoms: CA_4  and  C_5
REMARK    4  A    between atoms: CA_4  and  C_7
REMARK    5  A    between atoms: C_5  and  O_6
REMARK    6  A    between atoms: C_10  and  C_11
REMARK    7  A    between atoms: C_11  and  N_12
REMARK    8  A    between atoms: C_13  and  C_15
REMARK                            x       y       z     vdW  Elec       q    Type
REMARK                         _______ _______ _______ _____ _____    ______ ____
ROOT
ATOM      1  C   UNL     1       3.175   3.128   1.681  0.00  0.00    +0.000 A 
ATOM      2  C   UNL     1       2.885   4.481   1.430  0.00  0.00    +0.000 A 
ATOM      3  C   UNL     1       3.682   5.501   1.960  0.00  0.00    +0.000 A 
ATOM      4  C   UNL     1       4.799   5.196   2.747  0.00  0.00    +0.000 A 
ATOM      5  C   UNL     1       5.093   3.851   3.000  0.00  0.00    +0.000 A 
ATOM      6  C   UNL     1       4.296   2.830   2.471  0.00  0.00    +0.000 A 
ENDROOT
BRANCH   1   7
ATOM      7  CA  UNL     1       2.195   2.056   1.212  0.00  0.00    +0.000 C 
BRANCH   7  10
ATOM      8  O   UNL     1       0.937  -0.201   0.067  0.00  0.00    +0.000 OA
ATOM      9  C   UNL     1       2.139  -0.247   0.308  0.00  0.00    +0.000 C 
ATOM     10  N   UNL     1       2.840   0.786   0.902  0.00  0.00    +0.000 N 
ATOM     11  H   UNL     1       3.849   0.719   0.809  0.00  0.00    +0.000 HD
BRANCH   9  12
ATOM     12  CA  UNL     1       2.965  -1.415  -0.009  0.00  0.00    +0.000 A 
ATOM     13  C   UNL     1       2.515  -2.621  -0.511  0.00  0.00    +0.000 A 
ATOM     14  N   UNL     1       3.626  -3.405  -0.630  0.00  0.00    +0.000 N 
ATOM     15  C   UNL     1       4.697  -2.667  -0.206  0.00  0.00    +0.000 A 
ATOM     16  N   UNL     1       4.339  -1.465   0.176  0.00  0.00    +0.000 NA
ATOM     17  H   UNL     1       3.653  -4.360  -0.966  0.00  0.00    +0.000 HD
ENDBRANCH   9  12
ENDBRANCH   7  10
BRANCH   7  18
ATOM     18  C   UNL     1       1.072   1.892   2.276  0.00  0.00    +0.000 C 
BRANCH  18  19
ATOM     19  O   UNL     1       1.560   1.385   3.525  0.00  0.00    +0.000 OA
ATOM     20  H   UNL     1       2.396   0.926   3.332  0.00  0.00    +0.000 HD
ENDBRANCH  18  19
ENDBRANCH   7  18
ENDBRANCH   1   7
BRANCH   4  21
ATOM     21  C   UNL     1       5.643   6.285   3.356  0.00  0.00    +0.000 C 
BRANCH  21  22
ATOM     22  N   UNL     1       5.166   6.663   4.662  0.00  0.00    +0.000 N 
ATOM     23  C   UNL     1       5.761   7.685   5.359  0.00  0.00    +0.000 C 
ATOM     24  O   UNL     1       6.689   8.337   4.886  0.00  0.00    +0.000 OA
ATOM     25  H   UNL     1       4.567   6.003   5.151  0.00  0.00    +0.000 HD
BRANCH  23  26
ATOM     26  C   UNL     1       5.194   8.011   6.675  0.00  0.00    +0.000 A 
ATOM     27  C   UNL     1       5.389   9.278   7.210  0.00  0.00    +0.000 A 
ATOM     28  S   UNL     1       4.622   9.512   8.715  0.00  0.00    +0.000 S 
ATOM     29  C   UNL     1       4.049   7.910   8.732  0.00  0.00    +0.000 A 
ATOM     30  N   UNL     1       3.321   7.440   9.781  0.00  0.00    +0.000 NA
ATOM     31  C   UNL     1       2.981   6.199   9.679  0.00  0.00    +0.000 A 
ATOM     32  N   UNL     1       3.300   5.386   8.622  0.00  0.00    +0.000 N 
ATOM     33  C   UNL     1       4.007   5.825   7.528  0.00  0.00    +0.000 A 
ATOM     34  O   UNL     1       4.245   5.085   6.580  0.00  0.00    +0.000 OA
ATOM     35  C   UNL     1       4.423   7.213   7.597  0.00  0.00    +0.000 A 
ATOM     36  H   UNL     1       2.996   4.423   8.599  0.00  0.00    +0.000 HD
ENDBRANCH  23  26
ENDBRANCH  21  22
ENDBRANCH   4  21
TORSDOF 8
