REMARK  Name = 
REMARK  7 active torsions:
REMARK  status: ('A' for Active; 'I' for Inactive)
REMARK    1  A    between atoms: C_2  and  C_21
REMARK    2  A    between atoms: N_3  and  C_4
REMARK    3  A    between atoms: C_4  and  C_5
REMARK    4  A    between atoms: C_8  and  C_9
REMARK    5  A    between atoms: C_9  and  N_10
REMARK    6  A    between atoms: C_11  and  C_13
REMARK    7  A    between atoms: C_16  and  O_17
REMARK                            x       y       z     vdW  Elec       q    Type
REMARK                         _______ _______ _______ _____ _____    ______ ____
ROOT
ATOM      1  C   UNL     1       8.221  13.917  -0.855  0.00  0.00    +0.000 A 
ATOM      2  C   UNL     1       8.356  13.373  -2.139  0.00  0.00    +0.000 A 
ATOM      3  C   UNL     1       7.558  12.298  -2.547  0.00  0.00    +0.000 A 
ATOM      4  C   UNL     1       6.594  11.755  -1.687  0.00  0.00    +0.000 A 
ATOM      5  C   UNL     1       6.457  12.302  -0.404  0.00  0.00    +0.000 A 
ATOM      6  C   UNL     1       7.255  13.379   0.005  0.00  0.00    +0.000 A 
ENDROOT
BRANCH   1   7
ATOM      7  C   UNL     1       9.060  15.099  -0.435  0.00  0.00    +0.000 C 
BRANCH   7  10
ATOM      8  O   UNL     1      10.000  17.664   0.172  0.00  0.00    +0.000 OA
ATOM      9  C   UNL     1       8.953  17.555  -0.462  0.00  0.00    +0.000 C 
ATOM     10  N   UNL     1       8.387  16.337  -0.740  0.00  0.00    +0.000 N 
ATOM     11  H   UNL     1       7.653  16.285  -1.438  0.00  0.00    +0.000 HD
BRANCH   9  12
ATOM     12  C   UNL     1       8.206  18.731  -0.924  0.00  0.00    +0.000 A 
ATOM     13  C   UNL     1       8.346  19.948  -0.274  0.00  0.00    +0.000 A 
ATOM     14  S   UNL     1       7.356  21.181  -0.919  0.00  0.00    +0.000 S 
ATOM     15  C   UNL     1       6.747  20.144  -2.123  0.00  0.00    +0.000 A 
ATOM     16  N   UNL     1       5.846  20.584  -3.042  0.00  0.00    +0.000 NA
ATOM     17  C   UNL     1       5.501  19.698  -3.917  0.00  0.00    +0.000 A 
ATOM     18  N   UNL     1       5.974  18.411  -3.958  0.00  0.00    +0.000 N 
ATOM     19  C   UNL     1       6.862  17.917  -3.035  0.00  0.00    +0.000 A 
ATOM     20  O   UNL     1       7.233  16.749  -3.073  0.00  0.00    +0.000 OA
ATOM     21  C   UNL     1       7.285  18.873  -2.030  0.00  0.00    +0.000 A 
ATOM     22  H   UNL     1       5.659  17.765  -4.664  0.00  0.00    +0.000 HD
ENDBRANCH   9  12
ENDBRANCH   7  10
ENDBRANCH   1   7
BRANCH   4  23
ATOM     23  C   UNL     1       5.733  10.602  -2.134  0.00  0.00    +0.000 C 
BRANCH  23  24
ATOM     24  N   UNL     1       6.339   9.326  -1.818  0.00  0.00    +0.000 N 
ATOM     25  C   UNL     1       5.684   8.149  -2.110  0.00  0.00    +0.000 C 
ATOM     26  O   UNL     1       4.569   8.130  -2.624  0.00  0.00    +0.000 OA
ATOM     27  H   UNL     1       7.335   9.312  -1.648  0.00  0.00    +0.000 HD
BRANCH  25  28
ATOM     28  C   UNL     1       6.420   6.881  -1.662  0.00  0.00    +0.000 C 
ATOM     29  C   UNL     1       5.654   5.583  -2.006  0.00  0.00    +0.000 C 
ATOM     30  C   UNL     1       6.541   4.795  -2.975  0.00  0.00    +0.000 C 
ATOM     31  C   UNL     1       7.509   5.826  -3.531  0.00  0.00    +0.000 C 
ATOM     32  C   UNL     1       7.789   6.716  -2.330  0.00  0.00    +0.000 C 
BRANCH  31  33
ATOM     33  O   UNL     1       6.916   6.584  -4.578  0.00  0.00    +0.000 OA
ATOM     34  H   UNL     1       5.953   6.646  -4.435  0.00  0.00    +0.000 HD
ENDBRANCH  31  33
ENDBRANCH  25  28
ENDBRANCH  23  24
ENDBRANCH   4  23
TORSDOF 7
