REMARK  Name = 
REMARK  8 active torsions:
REMARK  status: ('A' for Active; 'I' for Inactive)
REMARK    1  A    between atoms: N_1  and  C_2
REMARK    2  A    between atoms: C_2  and  C_3
REMARK    3  A    between atoms: C_3  and  N_4
REMARK    4  A    between atoms: C_3  and  C_17
REMARK    5  A    between atoms: C_5  and  C_7
REMARK    6  A    between atoms: C_20  and  O_21
REMARK    7  A    between atoms: O_21  and  C_22
REMARK    8  A    between atoms: C_22  and  C_23
REMARK                            x       y       z     vdW  Elec       q    Type
REMARK                         _______ _______ _______ _____ _____    ______ ____
ROOT
ATOM      1  C   UNL     1       2.813  -0.989   0.607  0.00  0.00    +0.000 C 
ENDROOT
BRANCH   1   2
ATOM      2  C   UNL     1       4.339  -1.077   0.604  0.00  0.00    +0.000 A 
ATOM      3  C   UNL     1       5.061  -1.200   1.800  0.00  0.00    +0.000 A 
ATOM      4  C   UNL     1       6.452  -1.359   1.778  0.00  0.00    +0.000 A 
ATOM      5  C   UNL     1       7.138  -1.415   0.564  0.00  0.00    +0.000 A 
ATOM      6  C   UNL     1       6.435  -1.236  -0.626  0.00  0.00    +0.000 A 
ATOM      7  C   UNL     1       5.049  -1.086  -0.608  0.00  0.00    +0.000 A 
BRANCH   5   8
ATOM      8  O   UNL     1       8.484  -1.660   0.642  0.00  0.00    +0.000 OA
BRANCH   8   9
ATOM      9  C   UNL     1       9.054  -2.244  -0.539  0.00  0.00    +0.000 C 
BRANCH   9  10
ATOM     10  C   UNL     1      10.337  -2.983  -0.238  0.00  0.00    +0.000 A 
ATOM     11  C   UNL     1      11.249  -2.502   0.697  0.00  0.00    +0.000 A 
ATOM     12  C   UNL     1      12.422  -3.218   0.920  0.00  0.00    +0.000 A 
ATOM     13  C   UNL     1      12.662  -4.380   0.197  0.00  0.00    +0.000 A 
ATOM     14  C   UNL     1      11.718  -4.779  -0.731  0.00  0.00    +0.000 A 
ATOM     15  N   UNL     1      10.570  -4.109  -0.966  0.00  0.00    +0.000 NA
ENDBRANCH   9  10
ENDBRANCH   8   9
ENDBRANCH   5   8
ENDBRANCH   1   2
BRANCH   1  16
ATOM     16  N   UNL     1       2.301  -2.188  -0.047  0.00  0.00    +0.000 N 
ATOM     17  C   UNL     1       0.972  -2.523  -0.097  0.00  0.00    +0.000 C 
ATOM     18  O   UNL     1       0.074  -1.773   0.267  0.00  0.00    +0.000 OA
ATOM     19  H   UNL     1       2.974  -2.940  -0.137  0.00  0.00    +0.000 HD
BRANCH  17  20
ATOM     20  C   UNL     1       0.683  -3.834  -0.686  0.00  0.00    +0.000 A 
ATOM     21  C   UNL     1      -0.493  -4.051  -1.390  0.00  0.00    +0.000 A 
ATOM     22  S   UNL     1      -0.616  -5.631  -2.030  0.00  0.00    +0.000 S 
ATOM     23  C   UNL     1       0.871  -6.089  -1.337  0.00  0.00    +0.000 A 
ATOM     24  N   UNL     1       1.360  -7.352  -1.482  0.00  0.00    +0.000 NA
ATOM     25  C   UNL     1       2.480  -7.562  -0.873  0.00  0.00    +0.000 A 
ATOM     26  N   UNL     1       3.159  -6.627  -0.137  0.00  0.00    +0.000 N 
ATOM     27  C   UNL     1       2.723  -5.331   0.005  0.00  0.00    +0.000 A 
ATOM     28  O   UNL     1       3.390  -4.500   0.606  0.00  0.00    +0.000 OA
ATOM     29  C   UNL     1       1.461  -5.047  -0.648  0.00  0.00    +0.000 A 
ATOM     30  H   UNL     1       4.041  -6.848   0.301  0.00  0.00    +0.000 HD
ENDBRANCH  17  20
ENDBRANCH   1  16
BRANCH   1  31
ATOM     31  C   UNL     1       2.309   0.314  -0.082  0.00  0.00    +0.000 C 
BRANCH  31  32
ATOM     32  N   UNL     1       2.829   1.556   0.505  0.00  0.00    +0.000 NA
ATOM     33  H   UNL     1       2.625   2.326  -0.131  0.00  0.00    +0.000 HD
ATOM     34  H   UNL     1       3.845   1.502   0.572  0.00  0.00    +0.000 HD
ENDBRANCH  31  32
ENDBRANCH   1  31
TORSDOF 8
