REMARK  Name = 
REMARK  11 active torsions:
REMARK  status: ('A' for Active; 'I' for Inactive)
REMARK    1  A    between atoms: C_1  and  C_2
REMARK    2  A    between atoms: C_2  and  N_3
REMARK    3  A    between atoms: C_2  and  C_14
REMARK    4  A    between atoms: N_3  and  C_4
REMARK    5  A    between atoms: C_4  and  C_5
REMARK    6  A    between atoms: N_8  and  C_9
REMARK    7  A    between atoms: C_9  and  C_10
REMARK    8  A    between atoms: C_10  and  N_11
REMARK    9  A    between atoms: C_17  and  C_18
REMARK   10  A    between atoms: C_18  and  N_19
REMARK   11  A    between atoms: C_20  and  C_22
REMARK                            x       y       z     vdW  Elec       q    Type
REMARK                         _______ _______ _______ _____ _____    ______ ____
ROOT
ATOM      1  C   UNL     1       3.255   1.371   0.268  0.00  0.00    +0.000 A 
ATOM      2  C   UNL     1       2.659   2.195   1.225  0.00  0.00    +0.000 A 
ATOM      3  C   UNL     1       3.308   3.364   1.629  0.00  0.00    +0.000 A 
ATOM      4  C   UNL     1       4.550   3.691   1.085  0.00  0.00    +0.000 A 
ATOM      5  C   UNL     1       5.069   2.823   0.135  0.00  0.00    +0.000 A 
ATOM      6  N   UNL     1       4.457   1.688  -0.279  0.00  0.00    +0.000 NA
ENDROOT
BRANCH   1   8
ATOM      7  C   UNL     1       3.183  -0.556  -1.416  0.00  0.00    +0.000 C 
ATOM      8  C   UNL     1       2.652   0.005  -0.087  0.00  0.00    +0.000 C 
BRANCH   8   9
ATOM      9  N   UNL     1       1.170  -0.084  -0.015  0.00  0.00    +0.000 NA
ATOM     10  H   UNL     1       0.905  -1.065  -0.106  0.00  0.00    +0.000 HD
BRANCH   9  11
ATOM     11  C   UNL     1       0.491   0.683  -1.059  0.00  0.00    +0.000 C 
BRANCH  11  12
ATOM     12  C   UNL     1      -1.046   0.600  -0.940  0.00  0.00    +0.000 C 
ATOM     13  C   UNL     1      -1.691   1.459  -2.039  0.00  0.00    +0.000 C 
ATOM     14  C   UNL     1      -1.547   2.956  -1.766  0.00  0.00    +0.000 C 
ATOM     15  N   UNL     1      -2.088   3.322  -0.449  0.00  0.00    +0.000 NA
ATOM     16  C   UNL     1      -1.417   2.567   0.625  0.00  0.00    +0.000 C 
ATOM     17  C   UNL     1      -1.591   1.062   0.419  0.00  0.00    +0.000 C 
BRANCH  15  18
ATOM     18  C   UNL     1      -1.974   4.774  -0.198  0.00  0.00    +0.000 C 
BRANCH  18  19
ATOM     19  C   UNL     1      -2.842   5.611  -1.159  0.00  0.00    +0.000 C 
BRANCH  19  20
ATOM     20  N   UNL     1      -2.777   7.047  -0.871  0.00  0.00    +0.000 NA
ATOM     21  H   UNL     1      -3.156   7.217   0.061  0.00  0.00    +0.000 HD
ATOM     22  H   UNL     1      -3.392   7.533  -1.520  0.00  0.00    +0.000 HD
ENDBRANCH  19  20
ENDBRANCH  18  19
ENDBRANCH  15  18
ENDBRANCH  11  12
ENDBRANCH   9  11
ENDBRANCH   8   9
ENDBRANCH   1   8
BRANCH   4  23
ATOM     23  C   UNL     1       5.316   4.903   1.519  0.00  0.00    +0.000 C 
BRANCH  23  24
ATOM     24  N   UNL     1       6.138   4.652   2.681  0.00  0.00    +0.000 N 
ATOM     25  C   UNL     1       6.837   5.686   3.260  0.00  0.00    +0.000 C 
ATOM     26  O   UNL     1       6.736   6.841   2.848  0.00  0.00    +0.000 OA
ATOM     27  H   UNL     1       6.398   3.693   2.896  0.00  0.00    +0.000 HD
BRANCH  25  28
ATOM     28  C   UNL     1       7.667   5.369   4.429  0.00  0.00    +0.000 A 
ATOM     29  C   UNL     1       7.924   6.357   5.370  0.00  0.00    +0.000 A 
ATOM     30  S   UNL     1       8.886   5.828   6.673  0.00  0.00    +0.000 S 
ATOM     31  C   UNL     1       9.074   4.284   5.975  0.00  0.00    +0.000 A 
ATOM     32  N   UNL     1       9.870   3.349   6.556  0.00  0.00    +0.000 NA
ATOM     33  C   UNL     1       9.990   2.257   5.873  0.00  0.00    +0.000 A 
ATOM     34  N   UNL     1       9.350   2.007   4.689  0.00  0.00    +0.000 N 
ATOM     35  C   UNL     1       8.460   2.889   4.113  0.00  0.00    +0.000 A 
ATOM     36  O   UNL     1       7.804   2.589   3.125  0.00  0.00    +0.000 OA
ATOM     37  C   UNL     1       8.356   4.160   4.800  0.00  0.00    +0.000 A 
ATOM     38  H   UNL     1       9.469   1.121   4.219  0.00  0.00    +0.000 HD
ENDBRANCH  25  28
ENDBRANCH  23  24
ENDBRANCH   4  23
TORSDOF 10
