REMARK  Name = 
REMARK  11 active torsions:
REMARK  status: ('A' for Active; 'I' for Inactive)
REMARK    1  A    between atoms: C_1  and  C_2
REMARK    2  A    between atoms: C_2  and  C_3
REMARK    3  A    between atoms: C_3  and  N_4
REMARK    4  A    between atoms: C_3  and  C_21
REMARK    5  A    between atoms: N_4  and  C_5
REMARK    6  A    between atoms: C_5  and  C_6
REMARK    7  A    between atoms: C_9  and  C_10
REMARK    8  A    between atoms: C_10  and  O_11
REMARK    9  A    between atoms: C_10  and  C_12
REMARK   10  A    between atoms: C_12  and  N_13
REMARK   11  A    between atoms: N_13  and  C_14
REMARK                            x       y       z     vdW  Elec       q    Type
REMARK                         _______ _______ _______ _____ _____    ______ ____
ROOT
ATOM      1  C   UNL     1       0.599   0.842  -1.544  0.00  0.00    +0.000 A 
ATOM      2  C   UNL     1       0.956   1.861  -2.438  0.00  0.00    +0.000 A 
ATOM      3  C   UNL     1       1.148   1.583  -3.791  0.00  0.00    +0.000 A 
ATOM      4  C   UNL     1       0.982   0.280  -4.277  0.00  0.00    +0.000 A 
ATOM      5  C   UNL     1       0.635  -0.739  -3.376  0.00  0.00    +0.000 A 
ATOM      6  C   UNL     1       0.451  -0.462  -2.023  0.00  0.00    +0.000 A 
ENDROOT
BRANCH   1   7
ATOM      7  C   UNL     1       0.414   1.144  -0.079  0.00  0.00    +0.000 C 
BRANCH   7   8
ATOM      8  N   UNL     1      -0.675   2.097   0.132  0.00  0.00    +0.000 NA
ATOM      9  H   UNL     1      -1.530   1.687  -0.244  0.00  0.00    +0.000 HD
BRANCH   8  10
ATOM     10  C   UNL     1      -0.892   2.435   1.551  0.00  0.00    +0.000 C 
BRANCH  10  11
ATOM     11  C   UNL     1      -2.092   3.372   1.580  0.00  0.00    +0.000 A 
ATOM     12  C   UNL     1      -2.131   4.608   0.951  0.00  0.00    +0.000 A 
ATOM     13  S   UNL     1      -3.625   5.414   1.117  0.00  0.00    +0.000 S 
ATOM     14  C   UNL     1      -4.282   4.134   2.030  0.00  0.00    +0.000 A 
ATOM     15  N   UNL     1      -5.569   4.178   2.473  0.00  0.00    +0.000 NA
ATOM     16  C   UNL     1      -5.933   3.136   3.144  0.00  0.00    +0.000 A 
ATOM     17  N   UNL     1      -5.125   2.063   3.418  0.00  0.00    +0.000 N 
ATOM     18  C   UNL     1      -3.811   1.981   3.011  0.00  0.00    +0.000 A 
ATOM     19  O   UNL     1      -3.107   1.027   3.320  0.00  0.00    +0.000 OA
ATOM     20  C   UNL     1      -3.367   3.122   2.226  0.00  0.00    +0.000 A 
ATOM     21  H   UNL     1      -5.467   1.285   3.964  0.00  0.00    +0.000 HD
ENDBRANCH  10  11
BRANCH  10  23
ATOM     22  C   UNL     1       0.255   3.447   3.630  0.00  0.00    +0.000 C 
ATOM     23  C   UNL     1       0.379   3.061   2.166  0.00  0.00    +0.000 C 
ENDBRANCH  10  23
ENDBRANCH   8  10
ENDBRANCH   7   8
ENDBRANCH   1   7
BRANCH   4  24
ATOM     24  C   UNL     1       1.138  -0.000  -5.757  0.00  0.00    +0.000 C 
BRANCH  24  25
ATOM     25  O   UNL     1       2.218  -0.914  -5.978  0.00  0.00    +0.000 OA
ATOM     26  H   UNL     1       2.225  -1.544  -5.239  0.00  0.00    +0.000 HD
ENDBRANCH  24  25
BRANCH  24  27
ATOM     27  C   UNL     1      -0.139  -0.595  -6.399  0.00  0.00    +0.000 C 
BRANCH  27  28
ATOM     28  N   UNL     1      -1.321   0.270  -6.288  0.00  0.00    +0.000 NA
ATOM     29  H   UNL     1      -1.130   1.173  -6.721  0.00  0.00    +0.000 HD
BRANCH  28  30
ATOM     30  C   UNL     1      -2.497  -0.345  -6.899  0.00  0.00    +0.000 C 
ATOM     31  C   UNL     1      -3.723   0.551  -6.782  0.00  0.00    +0.000 C 
ATOM     32  C   UNL     1      -4.595   0.046  -7.913  0.00  0.00    +0.000 C 
ATOM     33  N   UNL     1      -3.663  -0.177  -9.025  0.00  0.00    +0.000 NA
ATOM     34  C   UNL     1      -2.401  -0.621  -8.411  0.00  0.00    +0.000 C 
ATOM     35  H   UNL     1      -3.487   0.723  -9.476  0.00  0.00    +0.000 HD
ENDBRANCH  28  30
ENDBRANCH  27  28
ENDBRANCH  24  27
ENDBRANCH   4  24
TORSDOF 10
