REMARK  Name = 
REMARK  9 active torsions:
REMARK  status: ('A' for Active; 'I' for Inactive)
REMARK    1  A    between atoms: C_1  and  O_2
REMARK    2  A    between atoms: O_2  and  C_3
REMARK    3  A    between atoms: C_10  and  C_11
REMARK    4  A    between atoms: N_13  and  C_14
REMARK    5  A    between atoms: C_14  and  C_15
REMARK    6  A    between atoms: C_18  and  C_19
REMARK    7  A    between atoms: C_19  and  C_20
REMARK    8  A    between atoms: C_20  and  C_21
REMARK    9  A    between atoms: C_21  and  C_22
REMARK                            x       y       z     vdW  Elec       q    Type
REMARK                         _______ _______ _______ _____ _____    ______ ____
ROOT
ATOM      1  C   UNL     1       2.973  -2.955  -1.676  0.00  0.00    +0.000 C 
ENDROOT
BRANCH   1   2
ATOM      2  C   UNL     1       1.852  -3.289  -0.728  0.00  0.00    +0.000 A 
ATOM      3  C   UNL     1       1.661  -4.595  -0.254  0.00  0.00    +0.000 A 
ATOM      4  C   UNL     1       0.654  -4.872   0.680  0.00  0.00    +0.000 A 
ATOM      5  C   UNL     1      -0.168  -3.847   1.168  0.00  0.00    +0.000 A 
ATOM      6  C   UNL     1      -0.010  -2.556   0.647  0.00  0.00    +0.000 A 
ATOM      7  C   UNL     1       0.977  -2.284  -0.301  0.00  0.00    +0.000 A 
BRANCH   5   8
ATOM      8  C   UNL     1      -1.221  -4.100   2.220  0.00  0.00    +0.000 C 
BRANCH   8   9
ATOM      9  C   UNL     1      -0.705  -4.721   3.524  0.00  0.00    +0.000 C 
BRANCH   9  10
ATOM     10  C   UNL     1       0.334  -3.863   4.257  0.00  0.00    +0.000 C 
BRANCH  10  11
ATOM     11  C   UNL     1       0.818  -4.558   5.507  0.00  0.00    +0.000 A 
ATOM     12  C   UNL     1       1.890  -5.454   5.445  0.00  0.00    +0.000 A 
ATOM     13  C   UNL     1       2.284  -6.104   6.604  0.00  0.00    +0.000 A 
ATOM     14  N   UNL     1       1.690  -5.929   7.803  0.00  0.00    +0.000 NA
ATOM     15  C   UNL     1       0.654  -5.063   7.842  0.00  0.00    +0.000 A 
ATOM     16  C   UNL     1       0.186  -4.365   6.737  0.00  0.00    +0.000 A 
ENDBRANCH  10  11
ENDBRANCH   9  10
ENDBRANCH   8   9
ENDBRANCH   5   8
ENDBRANCH   1   2
BRANCH   1  19
ATOM     17  C   UNL     1       3.446  -2.801  -4.071  0.00  0.00    +0.000 C 
ATOM     18  O   UNL     1       4.595  -2.438  -3.836  0.00  0.00    +0.000 OA
ATOM     19  N   UNL     1       2.571  -3.074  -3.054  0.00  0.00    +0.000 N 
ATOM     20  H   UNL     1       1.624  -3.367  -3.252  0.00  0.00    +0.000 HD
BRANCH  17  28
ATOM     21  C   UNL     1       0.448  -3.819  -5.454  0.00  0.00    +0.000 A 
ATOM     22  N   UNL     1      -0.575  -4.184  -6.254  0.00  0.00    +0.000 NA
ATOM     23  C   UNL     1      -0.403  -4.112  -7.575  0.00  0.00    +0.000 A 
ATOM     24  N   UNL     1       0.691  -3.713  -8.214  0.00  0.00    +0.000 NA
ATOM     25  C   UNL     1       1.693  -3.374  -7.385  0.00  0.00    +0.000 A 
ATOM     26  S   UNL     1       3.166  -2.843  -8.038  0.00  0.00    +0.000 S 
ATOM     27  C   UNL     1       3.830  -2.632  -6.490  0.00  0.00    +0.000 A 
ATOM     28  C   UNL     1       2.961  -2.953  -5.453  0.00  0.00    +0.000 A 
ATOM     29  C   UNL     1       1.677  -3.397  -5.992  0.00  0.00    +0.000 A 
BRANCH  21  31
ATOM     30  C   UNL     1      -1.134  -3.779  -3.745  0.00  0.00    +0.000 C 
ATOM     31  O   UNL     1       0.249  -3.886  -4.089  0.00  0.00    +0.000 OA
ENDBRANCH  21  31
ENDBRANCH  17  28
ENDBRANCH   1  19
TORSDOF 8
