REMARK  Name = 
REMARK  5 active torsions:
REMARK  status: ('A' for Active; 'I' for Inactive)
REMARK    1  A    between atoms: N_1  and  C_2
REMARK    2  A    between atoms: C_2  and  C_3
REMARK    3  A    between atoms: C_6  and  C_7
REMARK    4  A    between atoms: C_7  and  O_8
REMARK    5  A    between atoms: O_8  and  C_9
REMARK                            x       y       z     vdW  Elec       q    Type
REMARK                         _______ _______ _______ _____ _____    ______ ____
ROOT
ATOM      1  C   UNL     1       2.911   1.230  -0.538  0.00  0.00    +0.000 A 
ATOM      2  C   UNL     1       2.140   1.643  -1.605  0.00  0.00    +0.000 A 
ATOM      3  N   UNL     1       2.436   2.704  -2.382  0.00  0.00    +0.000 NA
ATOM      4  C   UNL     1       3.559   3.384  -2.069  0.00  0.00    +0.000 A 
ATOM      5  N   UNL     1       4.391   3.056  -1.058  0.00  0.00    +0.000 NA
ATOM      6  C   UNL     1       4.041   1.988  -0.315  0.00  0.00    +0.000 A 
ENDROOT
BRANCH   1   7
ATOM      7  C   UNL     1       2.531   0.076   0.329  0.00  0.00    +0.000 C 
BRANCH   7   8
ATOM      8  N   UNL     1       2.441  -1.166  -0.427  0.00  0.00    +0.000 NA
ATOM      9  H   UNL     1       2.229  -1.932   0.211  0.00  0.00    +0.000 HD
ATOM     10  H   UNL     1       3.351  -1.382  -0.835  0.00  0.00    +0.000 HD
ENDBRANCH   7   8
ENDBRANCH   1   7
BRANCH   4  11
ATOM     11  C   UNL     1       3.912   4.587  -2.912  0.00  0.00    +0.000 C 
BRANCH  11  12
ATOM     12  O   UNL     1       3.348   5.770  -2.337  0.00  0.00    +0.000 OA
BRANCH  12  13
ATOM     13  C   UNL     1       3.558   6.937  -3.018  0.00  0.00    +0.000 A 
ATOM     14  C   UNL     1       4.316   7.080  -4.183  0.00  0.00    +0.000 A 
ATOM     15  C   UNL     1       4.449   8.334  -4.784  0.00  0.00    +0.000 A 
ATOM     16  C   UNL     1       3.827   9.439  -4.217  0.00  0.00    +0.000 A 
ATOM     17  F   UNL     1       3.958  10.638  -4.798  0.00  0.00    +0.000 F 
ATOM     18  C   UNL     1       3.072   9.315  -3.058  0.00  0.00    +0.000 A 
ATOM     19  C   UNL     1       2.939   8.062  -2.458  0.00  0.00    +0.000 A 
ENDBRANCH  12  13
ENDBRANCH  11  12
ENDBRANCH   4  11
TORSDOF 5
