REMARK  Name = 
REMARK  5 active torsions:
REMARK  status: ('A' for Active; 'I' for Inactive)
REMARK    1  A    between atoms: C_2  and  C_4
REMARK    2  A    between atoms: C_7  and  N_8
REMARK    3  A    between atoms: N_8  and  C_9
REMARK    4  A    between atoms: C_9  and  C_10
REMARK    5  A    between atoms: C_14  and  C_15
REMARK                            x       y       z     vdW  Elec       q    Type
REMARK                         _______ _______ _______ _____ _____    ______ ____
ROOT
ATOM      1  C   UNL     1       4.903   0.033   6.045  0.00  0.00    +0.000 C 
ENDROOT
BRANCH   1   2
ATOM      2  C   UNL     1       5.835   0.439   7.153  0.00  0.00    +0.000 A 
ATOM      3  C   UNL     1       7.079  -0.158   7.310  0.00  0.00    +0.000 A 
ATOM      4  N   UNL     1       7.939   0.144   8.305  0.00  0.00    +0.000 NA
ATOM      5  C   UNL     1       7.537   1.088   9.196  0.00  0.00    +0.000 A 
ATOM      6  C   UNL     1       6.325   1.777   9.142  0.00  0.00    +0.000 A 
ATOM      7  C   UNL     1       5.476   1.430   8.079  0.00  0.00    +0.000 A 
BRANCH   6   8
ATOM      8  C   UNL     1       5.963   2.779  10.158  0.00  0.00    +0.000 A 
ATOM      9  C   UNL     1       5.125   3.867   9.886  0.00  0.00    +0.000 A 
ATOM     10  C   UNL     1       4.799   4.758  10.909  0.00  0.00    +0.000 A 
ATOM     11  C   UNL     1       5.317   4.543  12.174  0.00  0.00    +0.000 A 
ATOM     12  F   UNL     1       5.021   5.376  13.177  0.00  0.00    +0.000 F 
ATOM     13  C   UNL     1       6.144   3.456  12.376  0.00  0.00    +0.000 A 
ATOM     14  N   UNL     1       6.480   2.577  11.399  0.00  0.00    +0.000 NA
ENDBRANCH   6   8
ENDBRANCH   1   2
BRANCH   1  15
ATOM     15  N   UNL     1       5.160   0.830   4.850  0.00  0.00    +0.000 N 
ATOM     16  H   UNL     1       6.154   0.928   4.653  0.00  0.00    +0.000 HD
BRANCH  15  20
ATOM     17  C   UNL     1       2.944   0.372   1.348  0.00  0.00    +0.000 A 
ATOM     18  C   UNL     1       2.345   0.010   2.543  0.00  0.00    +0.000 A 
ATOM     19  C   UNL     1       3.085   0.126   3.724  0.00  0.00    +0.000 A 
ATOM     20  C   UNL     1       4.404   0.584   3.696  0.00  0.00    +0.000 A 
ATOM     21  C   UNL     1       4.894   0.943   2.432  0.00  0.00    +0.000 A 
ATOM     22  N   UNL     1       4.220   0.833   1.257  0.00  0.00    +0.000 NA
BRANCH  17  24
ATOM     23  N   UNL     1       2.840   0.601  -1.069  0.00  0.00    +0.000 N 
ATOM     24  C   UNL     1       2.159   0.283   0.074  0.00  0.00    +0.000 C 
ATOM     25  O   UNL     1       0.982  -0.057   0.048  0.00  0.00    +0.000 OA
ATOM     26  H   UNL     1       2.368   0.539  -1.959  0.00  0.00    +0.000 HD
ATOM     27  H   UNL     1       3.822   0.844  -1.020  0.00  0.00    +0.000 HD
ENDBRANCH  17  24
ENDBRANCH  15  20
ENDBRANCH   1  15
TORSDOF 5
