REMARK  Name = 
REMARK  10 active torsions:
REMARK  status: ('A' for Active; 'I' for Inactive)
REMARK    1  A    between atoms: C_1  and  C_2
REMARK    2  A    between atoms: C_2  and  C_3
REMARK    3  A    between atoms: C_2  and  C_4
REMARK    4  A    between atoms: C_2  and  C_5
REMARK    5  A    between atoms: N_7  and  C_8
REMARK    6  A    between atoms: C_8  and  C_9
REMARK    7  A    between atoms: C_12  and  C_13
REMARK    8  A    between atoms: C_13  and  C_14
REMARK    9  A    between atoms: C_14  and  C_15
REMARK   10  A    between atoms: C_15  and  O_17
REMARK                            x       y       z     vdW  Elec       q    Type
REMARK                         _______ _______ _______ _____ _____    ______ ____
ROOT
ATOM      1  C   UNL     1       2.928   0.950  -0.892  0.00  0.00    +0.000 A 
ATOM      2  C   UNL     1       2.635   2.297  -0.748  0.00  0.00    +0.000 A 
ATOM      3  N   UNL     1       3.131   2.993  -1.817  0.00  0.00    +0.000 N 
ATOM      4  C   UNL     1       3.722   2.117  -2.702  0.00  0.00    +0.000 A 
ATOM      5  C   UNL     1       4.320   2.343  -3.941  0.00  0.00    +0.000 A 
ATOM      6  N   UNL     1       4.843   1.310  -4.635  0.00  0.00    +0.000 NA
ATOM      7  C   UNL     1       4.787   0.077  -4.097  0.00  0.00    +0.000 A 
ATOM      8  C   UNL     1       4.210  -0.223  -2.873  0.00  0.00    +0.000 A 
ATOM      9  C   UNL     1       3.637   0.835  -2.137  0.00  0.00    +0.000 A 
ENDROOT
BRANCH   1  11
ATOM     10  C   UNL     1       0.936  -0.108   0.182  0.00  0.00    +0.000 C 
ATOM     11  C   UNL     1       2.481  -0.111   0.117  0.00  0.00    +0.000 C 
ATOM     12  C   UNL     1       3.040   0.222   1.519  0.00  0.00    +0.000 C 
ATOM     13  C   UNL     1       2.928  -1.542  -0.225  0.00  0.00    +0.000 C 
ENDBRANCH   1  11
BRANCH   3  14
ATOM     14  C   UNL     1       2.975   4.435  -2.001  0.00  0.00    +0.000 C 
BRANCH  14  15
ATOM     15  C   UNL     1       4.142   5.180  -1.405  0.00  0.00    +0.000 A 
ATOM     16  N   UNL     1       5.204   5.417  -2.203  0.00  0.00    +0.000 NA
ATOM     17  C   UNL     1       6.306   5.926  -1.612  0.00  0.00    +0.000 A 
ATOM     18  C   UNL     1       6.386   6.254  -0.274  0.00  0.00    +0.000 A 
ATOM     19  C   UNL     1       5.223   6.025   0.435  0.00  0.00    +0.000 A 
ATOM     20  N   UNL     1       4.097   5.503  -0.097  0.00  0.00    +0.000 NA
BRANCH  18  21
ATOM     21  C   UNL     1       7.639   6.747   0.390  0.00  0.00    +0.000 C 
BRANCH  21  22
ATOM     22  C   UNL     1       8.157   8.077  -0.162  0.00  0.00    +0.000 C 
BRANCH  22  23
ATOM     23  C   UNL     1       9.404   8.526   0.563  0.00  0.00    +0.000 C 
ATOM     24  O   UNL     1       9.944   7.920   1.475  0.00  0.00    +0.000 OA
BRANCH  23  25
ATOM     25  O   UNL     1       9.880   9.704   0.093  0.00  0.00    +0.000 OA
ATOM     26  H   UNL     1       9.355  10.087  -0.635  0.00  0.00    +0.000 HD
ENDBRANCH  23  25
ENDBRANCH  22  23
ENDBRANCH  21  22
ENDBRANCH  18  21
ENDBRANCH  14  15
ENDBRANCH   3  14
TORSDOF 7
