REMARK  Name = 
REMARK  7 active torsions:
REMARK  status: ('A' for Active; 'I' for Inactive)
REMARK    1  A    between atoms: C_1  and  C_2
REMARK    2  A    between atoms: C_2  and  C_3
REMARK    3  A    between atoms: C_2  and  C_4
REMARK    4  A    between atoms: C_2  and  C_20
REMARK    5  A    between atoms: C_4  and  N_5
REMARK    6  A    between atoms: C_10  and  C_11
REMARK    7  A    between atoms: C_14  and  C_15
REMARK                            x       y       z     vdW  Elec       q    Type
REMARK                         _______ _______ _______ _____ _____    ______ ____
ROOT
ATOM      1  N   UNL     1       2.757  -0.193  -2.590  0.00  0.00    +0.000 N 
ATOM      2  C   UNL     1       3.080   0.346  -3.824  0.00  0.00    +0.000 A 
ATOM      3  C   UNL     1       3.784   1.543  -3.942  0.00  0.00    +0.000 A 
ATOM      4  C   UNL     1       4.119   2.030  -5.196  0.00  0.00    +0.000 A 
ATOM      5  C   UNL     1       3.786   1.283  -6.312  0.00  0.00    +0.000 A 
ATOM      6  C   UNL     1       3.099   0.080  -6.148  0.00  0.00    +0.000 A 
ATOM      7  N   UNL     1       2.732  -0.373  -4.914  0.00  0.00    +0.000 NA
ATOM      8  H   UNL     1       1.984  -0.848  -2.642  0.00  0.00    +0.000 HD
ENDROOT
BRANCH   6   9
ATOM      9  C   UNL     1       2.789  -0.789  -7.310  0.00  0.00    +0.000 A 
ATOM     10  C   UNL     1       2.751  -2.189  -7.189  0.00  0.00    +0.000 A 
ATOM     11  C   UNL     1       2.533  -3.016  -8.301  0.00  0.00    +0.000 A 
ATOM     12  C   UNL     1       2.336  -2.461  -9.565  0.00  0.00    +0.000 A 
ATOM     13  C   UNL     1       2.355  -1.070  -9.711  0.00  0.00    +0.000 A 
ATOM     14  C   UNL     1       2.571  -0.253  -8.596  0.00  0.00    +0.000 A 
BRANCH  12  15
ATOM     15  C   UNL     1       2.128  -3.299 -10.712  0.00  0.00    +0.000 C 
ATOM     16  N   UNL     1       1.960  -3.962 -11.647  0.00  0.00    +0.000 NA
ENDBRANCH  12  15
ENDBRANCH   6   9
BRANCH   1  17
ATOM     17  C   UNL     1       3.045   0.517  -1.355  0.00  0.00    +0.000 C 
BRANCH  17  19
ATOM     18  C   UNL     1       3.475  -1.542   0.051  0.00  0.00    +0.000 C 
ATOM     19  C   UNL     1       2.641  -0.243  -0.057  0.00  0.00    +0.000 C 
ATOM     20  C   UNL     1       3.067   0.653   1.136  0.00  0.00    +0.000 C 
BRANCH  19  21
ATOM     21  C   UNL     1       1.123  -0.479  -0.002  0.00  0.00    +0.000 A 
ATOM     22  C   UNL     1       0.563  -1.753   0.160  0.00  0.00    +0.000 A 
ATOM     23  C   UNL     1      -0.818  -1.899   0.157  0.00  0.00    +0.000 A 
ATOM     24  N   UNL     1      -1.683  -0.877   0.010  0.00  0.00    +0.000 NA
ATOM     25  C   UNL     1      -1.141   0.347  -0.134  0.00  0.00    +0.000 A 
ATOM     26  C   UNL     1       0.225   0.592  -0.139  0.00  0.00    +0.000 A 
ENDBRANCH  19  21
ENDBRANCH  17  19
ENDBRANCH   1  17
TORSDOF 5
