REMARK  Name = 
REMARK  6 active torsions:
REMARK  status: ('A' for Active; 'I' for Inactive)
REMARK    1  A    between atoms: C_1  and  O_2
REMARK    2  A    between atoms: O_2  and  C_3
REMARK    3  A    between atoms: C_5  and  C_6
REMARK    4  A    between atoms: C_6  and  N_7
REMARK    5  A    between atoms: C_11  and  C_12
REMARK    6  A    between atoms: C_15  and  C_16
REMARK                            x       y       z     vdW  Elec       q    Type
REMARK                         _______ _______ _______ _____ _____    ______ ____
ROOT
ATOM      1  N   UNL     1       1.536   0.957   4.629  0.00  0.00    +0.000 N 
ATOM      2  C   UNL     1       1.014   0.907   5.909  0.00  0.00    +0.000 A 
ATOM      3  N   UNL     1       1.221   1.901   6.778  0.00  0.00    +0.000 NA
ATOM      4  C   UNL     1       0.633   1.779   7.990  0.00  0.00    +0.000 A 
ATOM      5  C   UNL     1      -0.165   0.719   8.373  0.00  0.00    +0.000 A 
ATOM      6  C   UNL     1      -0.304  -0.276   7.420  0.00  0.00    +0.000 A 
ATOM      7  C   UNL     1      -1.117  -1.524   7.592  0.00  0.00    +0.000 C 
ATOM      8  N   UNL     1       0.288  -0.181   6.196  0.00  0.00    +0.000 NA
ATOM      9  H   UNL     1       1.542   0.007   4.275  0.00  0.00    +0.000 HD
ENDROOT
BRANCH   5  10
ATOM     10  C   UNL     1      -0.759   0.682   9.727  0.00  0.00    +0.000 C 
ATOM     11  N   UNL     1      -1.090   1.876  10.311  0.00  0.00    +0.000 N 
ATOM     12  O   UNL     1      -0.956  -0.365  10.329  0.00  0.00    +0.000 OA
ATOM     13  H   UNL     1      -1.104   2.767   9.834  0.00  0.00    +0.000 HD
ATOM     14  H   UNL     1      -1.554   1.825  11.212  0.00  0.00    +0.000 HD
ENDBRANCH   5  10
BRANCH   1  15
ATOM     15  C   UNL     1       2.777   1.685   4.490  0.00  0.00    +0.000 C 
BRANCH  15  18
ATOM     16  C   UNL     1       2.981   2.070   0.716  0.00  0.00    +0.000 A 
ATOM     17  C   UNL     1       2.489   2.144   2.011  0.00  0.00    +0.000 A 
ATOM     18  C   UNL     1       3.254   1.609   3.057  0.00  0.00    +0.000 A 
ATOM     19  C   UNL     1       4.481   1.021   2.741  0.00  0.00    +0.000 A 
ATOM     20  C   UNL     1       4.888   0.999   1.416  0.00  0.00    +0.000 A 
ATOM     21  N   UNL     1       4.168   1.512   0.397  0.00  0.00    +0.000 NA
BRANCH  16  23
ATOM     22  C   UNL     1       2.772   2.486  -1.575  0.00  0.00    +0.000 C 
ATOM     23  O   UNL     1       2.191   2.610  -0.280  0.00  0.00    +0.000 OA
ENDBRANCH  16  23
ENDBRANCH  15  18
ENDBRANCH   1  15
TORSDOF 4
