REMARK  Name = 
REMARK  8 active torsions:
REMARK  status: ('A' for Active; 'I' for Inactive)
REMARK    1  A    between atoms: C_1  and  C_2
REMARK    2  A    between atoms: C_2  and  C_3
REMARK    3  A    between atoms: C_2  and  C_4
REMARK    4  A    between atoms: C_2  and  C_5
REMARK    5  A    between atoms: N_7  and  C_8
REMARK    6  A    between atoms: C_8  and  C_9
REMARK    7  A    between atoms: C_12  and  C_13
REMARK    8  A    between atoms: C_22  and  C_23
REMARK                            x       y       z     vdW  Elec       q    Type
REMARK                         _______ _______ _______ _____ _____    ______ ____
ROOT
ATOM      1  C   UNL     1       2.920   1.381   0.049  0.00  0.00    +0.000 A 
ATOM      2  C   UNL     1       4.223   1.837   0.184  0.00  0.00    +0.000 A 
ATOM      3  N   UNL     1       4.230   3.211   0.156  0.00  0.00    +0.000 N 
ATOM      4  C   UNL     1       2.946   3.674   0.002  0.00  0.00    +0.000 A 
ATOM      5  N   UNL     1       2.580   4.971  -0.066  0.00  0.00    +0.000 NA
ATOM      6  C   UNL     1       1.236   5.142  -0.197  0.00  0.00    +0.000 A 
ATOM      7  C   UNL     1       0.280   4.130  -0.251  0.00  0.00    +0.000 A 
ATOM      8  C   UNL     1       0.722   2.809  -0.183  0.00  0.00    +0.000 A 
ATOM      9  C   UNL     1       2.105   2.563  -0.055  0.00  0.00    +0.000 A 
ENDROOT
BRANCH   7  10
ATOM     10  C   UNL     1      -1.152   4.502  -0.370  0.00  0.00    +0.000 C 
ATOM     11  N   UNL     1      -2.095   3.510  -0.390  0.00  0.00    +0.000 N 
ATOM     12  O   UNL     1      -1.496   5.677  -0.442  0.00  0.00    +0.000 OA
ATOM     13  H   UNL     1      -1.912   2.525  -0.313  0.00  0.00    +0.000 HD
ATOM     14  H   UNL     1      -3.063   3.801  -0.457  0.00  0.00    +0.000 HD
ENDBRANCH   7  10
BRANCH   1  16
ATOM     15  C   UNL     1       3.634  -1.059   0.167  0.00  0.00    +0.000 C 
ATOM     16  C   UNL     1       2.452  -0.074   0.028  0.00  0.00    +0.000 C 
ATOM     17  C   UNL     1       1.748  -0.388  -1.308  0.00  0.00    +0.000 C 
ATOM     18  C   UNL     1       1.488  -0.353   1.201  0.00  0.00    +0.000 C 
ENDBRANCH   1  16
BRANCH   3  19
ATOM     19  C   UNL     1       5.403   4.029   0.435  0.00  0.00    +0.000 C 
BRANCH  19  20
ATOM     20  C   UNL     1       6.215   4.364  -0.785  0.00  0.00    +0.000 A 
ATOM     21  C   UNL     1       5.698   5.131  -1.833  0.00  0.00    +0.000 A 
ATOM     22  C   UNL     1       6.535   5.534  -2.871  0.00  0.00    +0.000 A 
ATOM     23  C   UNL     1       7.870   5.155  -2.830  0.00  0.00    +0.000 A 
ATOM     24  N   UNL     1       8.407   4.384  -1.849  0.00  0.00    +0.000 NA
ATOM     25  C   UNL     1       7.563   4.014  -0.861  0.00  0.00    +0.000 A 
ATOM     26  F   UNL     1       8.095   3.280   0.129  0.00  0.00    +0.000 F 
BRANCH  23  27
ATOM     27  C   UNL     1       8.805   5.651  -3.891  0.00  0.00    +0.000 C 
ATOM     28  N   UNL     1      10.112   5.260  -3.771  0.00  0.00    +0.000 N 
ATOM     29  O   UNL     1       8.436   6.376  -4.807  0.00  0.00    +0.000 OA
ATOM     30  H   UNL     1      10.405   4.682  -2.993  0.00  0.00    +0.000 HD
ATOM     31  H   UNL     1      10.789   5.596  -4.442  0.00  0.00    +0.000 HD
ENDBRANCH  23  27
ENDBRANCH  19  20
ENDBRANCH   3  19
TORSDOF 5
