REMARK  Name = 
REMARK  7 active torsions:
REMARK  status: ('A' for Active; 'I' for Inactive)
REMARK    1  A    between atoms: C_1  and  C_2
REMARK    2  A    between atoms: C_2  and  N_3
REMARK    3  A    between atoms: C_2  and  C_12
REMARK    4  A    between atoms: C_4  and  C_6
REMARK    5  A    between atoms: C_15  and  C_16
REMARK    6  A    between atoms: C_16  and  N_17
REMARK    7  A    between atoms: C_18  and  C_20
REMARK                            x       y       z     vdW  Elec       q    Type
REMARK                         _______ _______ _______ _____ _____    ______ ____
ROOT
ATOM      1  C   UNL     1       7.733   5.556   1.736  0.00  0.00    +0.000 A 
ATOM      2  C   UNL     1       6.957   6.086   2.765  0.00  0.00    +0.000 A 
ATOM      3  C   UNL     1       7.574   6.804   3.792  0.00  0.00    +0.000 A 
ATOM      4  C   UNL     1       8.958   6.979   3.789  0.00  0.00    +0.000 A 
ATOM      5  C   UNL     1       9.649   6.465   2.699  0.00  0.00    +0.000 A 
ATOM      6  N   UNL     1       9.074   5.764   1.687  0.00  0.00    +0.000 NA
ENDROOT
BRANCH   1   8
ATOM      7  C   UNL     1       6.542   3.386   1.277  0.00  0.00    +0.000 C 
ATOM      8  C   UNL     1       7.119   4.659   0.656  0.00  0.00    +0.000 C 
BRANCH   8   9
ATOM      9  N   UNL     1       6.080   5.353  -0.107  0.00  0.00    +0.000 N 
ATOM     10  C   UNL     1       5.846   5.107  -1.435  0.00  0.00    +0.000 C 
ATOM     11  O   UNL     1       6.468   4.262  -2.070  0.00  0.00    +0.000 OA
ATOM     12  H   UNL     1       5.384   5.845   0.430  0.00  0.00    +0.000 HD
BRANCH  10  13
ATOM     13  C   UNL     1       4.774   6.008  -2.130  0.00  0.00    +0.000 C 
ATOM     14  C   UNL     1       4.123   7.126  -1.305  0.00  0.00    +0.000 C 
ATOM     15  C   UNL     1       5.053   8.310  -1.030  0.00  0.00    +0.000 C 
ATOM     16  C   UNL     1       5.851   8.736  -2.260  0.00  0.00    +0.000 C 
ATOM     17  C   UNL     1       6.402   7.557  -3.055  0.00  0.00    +0.000 C 
ATOM     18  N   UNL     1       5.349   6.588  -3.367  0.00  0.00    +0.000 NA
ATOM     19  H   UNL     1       5.765   5.818  -3.899  0.00  0.00    +0.000 HD
ENDBRANCH  10  13
ENDBRANCH   8   9
ENDBRANCH   1   8
BRANCH   4  20
ATOM     20  C   UNL     1       9.668   7.670   4.919  0.00  0.00    +0.000 C 
BRANCH  20  21
ATOM     21  N   UNL     1       9.765   9.094   4.722  0.00  0.00    +0.000 N 
ATOM     22  C   UNL     1      10.474   9.884   5.598  0.00  0.00    +0.000 C 
ATOM     23  O   UNL     1      11.082   9.411   6.554  0.00  0.00    +0.000 OA
ATOM     24  H   UNL     1       9.078   9.529   4.115  0.00  0.00    +0.000 HD
BRANCH  22  25
ATOM     25  C   UNL     1      10.516  11.320   5.294  0.00  0.00    +0.000 A 
ATOM     26  C   UNL     1      11.574  12.092   5.757  0.00  0.00    +0.000 A 
ATOM     27  S   UNL     1      11.484  13.730   5.286  0.00  0.00    +0.000 S 
ATOM     28  C   UNL     1      10.001  13.476   4.492  0.00  0.00    +0.000 A 
ATOM     29  N   UNL     1       9.344  14.504   3.891  0.00  0.00    +0.000 NA
ATOM     30  C   UNL     1       8.216  14.178   3.357  0.00  0.00    +0.000 A 
ATOM     31  N   UNL     1       7.688  12.911   3.360  0.00  0.00    +0.000 N 
ATOM     32  C   UNL     1       8.340  11.834   3.910  0.00  0.00    +0.000 A 
ATOM     33  O   UNL     1       7.878  10.699   3.828  0.00  0.00    +0.000 OA
ATOM     34  C   UNL     1       9.598  12.154   4.557  0.00  0.00    +0.000 A 
ATOM     35  H   UNL     1       6.809  12.718   2.903  0.00  0.00    +0.000 HD
ENDBRANCH  22  25
ENDBRANCH  20  21
ENDBRANCH   4  20
TORSDOF 6
