REMARK  Name = 
REMARK  8 active torsions:
REMARK  status: ('A' for Active; 'I' for Inactive)
REMARK    1  A    between atoms: C_1  and  C_2
REMARK    2  A    between atoms: C_5  and  C_6
REMARK    3  A    between atoms: C_6  and  O_7
REMARK    4  A    between atoms: O_7  and  C_8
REMARK    5  A    between atoms: C_11  and  C_12
REMARK    6  A    between atoms: C_12  and  N_13
REMARK    7  A    between atoms: C_14  and  C_16
REMARK    8  A    between atoms: C_28  and  C_29
REMARK                            x       y       z     vdW  Elec       q    Type
REMARK                         _______ _______ _______ _____ _____    ______ ____
ROOT
ATOM      1  C   UNL     1       3.387  -4.120  -0.161  0.00  0.00    +0.000 A 
ATOM      2  C   UNL     1       4.442  -3.859   0.697  0.00  0.00    +0.000 A 
ATOM      3  C   UNL     1       5.552  -4.705   0.661  0.00  0.00    +0.000 A 
ATOM      4  C   UNL     1       5.546  -5.804  -0.206  0.00  0.00    +0.000 A 
ATOM      5  C   UNL     1       4.414  -5.986  -0.994  0.00  0.00    +0.000 A 
ATOM      6  N   UNL     1       3.334  -5.178  -0.989  0.00  0.00    +0.000 NA
ENDROOT
BRANCH   1   7
ATOM      7  O   UNL     1       2.326  -3.246  -0.149  0.00  0.00    +0.000 OA
BRANCH   7   8
ATOM      8  C   UNL     1       1.644  -3.213  -1.413  0.00  0.00    +0.000 C 
BRANCH   8  13
ATOM      9  C   UNL     1      -1.274   1.724  -2.089  0.00  0.00    +0.000 C 
ATOM     10  C   UNL     1      -0.491   0.464  -1.883  0.00  0.00    +0.000 A 
ATOM     11  C   UNL     1       0.185   0.237  -0.697  0.00  0.00    +0.000 A 
ATOM     12  C   UNL     1       0.871  -0.961  -0.545  0.00  0.00    +0.000 A 
ATOM     13  C   UNL     1       0.888  -1.911  -1.575  0.00  0.00    +0.000 A 
ATOM     14  C   UNL     1       0.196  -1.593  -2.751  0.00  0.00    +0.000 A 
ATOM     15  C   UNL     1       0.156  -2.484  -3.959  0.00  0.00    +0.000 C 
ATOM     16  N   UNL     1      -0.490  -0.427  -2.901  0.00  0.00    +0.000 NA
ENDBRANCH   8  13
ENDBRANCH   7   8
ENDBRANCH   1   7
BRANCH   4  17
ATOM     17  C   UNL     1       6.700  -6.757  -0.329  0.00  0.00    +0.000 C 
BRANCH  17  18
ATOM     18  N   UNL     1       7.705  -6.337  -1.278  0.00  0.00    +0.000 N 
ATOM     19  C   UNL     1       7.464  -6.227  -2.628  0.00  0.00    +0.000 C 
ATOM     20  O   UNL     1       6.364  -6.407  -3.137  0.00  0.00    +0.000 OA
ATOM     21  H   UNL     1       8.661  -6.550  -1.011  0.00  0.00    +0.000 HD
BRANCH  19  22
ATOM     22  C   UNL     1       8.610  -5.820  -3.448  0.00  0.00    +0.000 A 
ATOM     23  C   UNL     1       8.408  -5.070  -4.599  0.00  0.00    +0.000 A 
ATOM     24  S   UNL     1       9.851  -4.700  -5.429  0.00  0.00    +0.000 S 
ATOM     25  C   UNL     1      10.788  -5.557  -4.294  0.00  0.00    +0.000 A 
ATOM     26  N   UNL     1      12.135  -5.664  -4.433  0.00  0.00    +0.000 NA
ATOM     27  C   UNL     1      12.712  -6.353  -3.504  0.00  0.00    +0.000 A 
ATOM     28  N   UNL     1      12.068  -6.938  -2.446  0.00  0.00    +0.000 N 
ATOM     29  C   UNL     1      10.714  -6.828  -2.252  0.00  0.00    +0.000 A 
ATOM     30  O   UNL     1      10.168  -7.307  -1.258  0.00  0.00    +0.000 OA
ATOM     31  C   UNL     1      10.014  -6.088  -3.279  0.00  0.00    +0.000 A 
ATOM     32  H   UNL     1      12.585  -7.446  -1.745  0.00  0.00    +0.000 HD
ENDBRANCH  19  22
ENDBRANCH  17  18
ENDBRANCH   4  17
TORSDOF 6
