REMARK  Name = 
REMARK  5 active torsions:
REMARK  status: ('A' for Active; 'I' for Inactive)
REMARK    1  A    between atoms: N_1  and  C_2
REMARK    2  A    between atoms: C_2  and  C_3
REMARK    3  A    between atoms: C_3  and  C_4
REMARK    4  A    between atoms: C_7  and  C_8
REMARK    5  A    between atoms: C_8  and  N_9
REMARK                            x       y       z     vdW  Elec       q    Type
REMARK                         _______ _______ _______ _____ _____    ______ ____
ROOT
ATOM      1  C   UNL     1       4.603   1.150  -0.900  0.00  0.00    +0.000 A 
ATOM      2  C   UNL     1       5.345   2.333  -0.939  0.00  0.00    +0.000 A 
ATOM      3  C   UNL     1       6.737   2.297  -0.978  0.00  0.00    +0.000 A 
ATOM      4  C   UNL     1       7.379   1.064  -0.980  0.00  0.00    +0.000 A 
ATOM      5  N   UNL     1       6.683  -0.102  -1.003  0.00  0.00    +0.000 NA
ATOM      6  C   UNL     1       5.325  -0.035  -0.961  0.00  0.00    +0.000 A 
ENDROOT
BRANCH   1   7
ATOM      7  C   UNL     1       3.092   1.170  -0.840  0.00  0.00    +0.000 C 
BRANCH   7   8
ATOM      8  C   UNL     1       2.449   0.024  -0.035  0.00  0.00    +0.000 C 
BRANCH   8   9
ATOM      9  N   UNL     1       0.992   0.159   0.010  0.00  0.00    +0.000 NA
ATOM     10  H   UNL     1       0.599  -0.618   0.541  0.00  0.00    +0.000 HD
ATOM     11  H   UNL     1       0.609   0.077  -0.932  0.00  0.00    +0.000 HD
ENDBRANCH   8   9
ENDBRANCH   7   8
ENDBRANCH   1   7
BRANCH   4  12
ATOM     12  C   UNL     1       8.844   0.939  -0.682  0.00  0.00    +0.000 C 
BRANCH  12  13
ATOM     13  N   UNL     1       9.787   1.503  -1.662  0.00  0.00    +0.000 N 
ATOM     14  C   UNL     1      10.567   0.651  -2.435  0.00  0.00    +0.000 A 
ATOM     15  C   UNL     1      11.828   0.714  -1.872  0.00  0.00    +0.000 A 
ATOM     16  C   UNL     1      11.924   2.023  -1.326  0.00  0.00    +0.000 A 
ATOM     17  C   UNL     1      12.939   2.875  -0.880  0.00  0.00    +0.000 A 
ATOM     18 CL   UNL     1      14.526   2.249  -0.868  0.00  0.00    +0.000 Cl
ATOM     19  C   UNL     1      12.644   4.191  -0.567  0.00  0.00    +0.000 A 
ATOM     20  C   UNL     1      11.315   4.585  -0.631  0.00  0.00    +0.000 A 
ATOM     21  N   UNL     1      10.259   3.788  -0.940  0.00  0.00    +0.000 NA
ATOM     22  C   UNL     1      10.629   2.546  -1.310  0.00  0.00    +0.000 A 
ENDBRANCH  12  13
ENDBRANCH   4  12
TORSDOF 5
