REMARK  Name = 
REMARK  11 active torsions:
REMARK  status: ('A' for Active; 'I' for Inactive)
REMARK    1  A    between atoms: C_2  and  C_24
REMARK    2  A    between atoms: N_3  and  CA_4
REMARK    3  A    between atoms: CA_4  and  C_5
REMARK    4  A    between atoms: CA_4  and  C_7
REMARK    5  A    between atoms: C_5  and  O_6
REMARK    6  A    between atoms: C_11  and  C_12
REMARK    7  A    between atoms: C_12  and  N_13
REMARK    8  A    between atoms: N_13  and  CA_14
REMARK    9  A    between atoms: CA_14  and  C_15
REMARK   10  A    between atoms: CA_14  and  C_17
REMARK   11  A    between atoms: C_15  and  O_16
REMARK                            x       y       z     vdW  Elec       q    Type
REMARK                         _______ _______ _______ _____ _____    ______ ____
ROOT
ATOM      1  CA  UNL     1       2.020  -2.452   1.669  0.00  0.00    +0.000 C 
ENDROOT
BRANCH   1   2
ATOM      2  C   UNL     1       2.985  -3.344   2.433  0.00  0.00    +0.000 A 
ATOM      3  C   UNL     1       2.712  -4.708   2.535  0.00  0.00    +0.000 A 
ATOM      4  N   UNL     1       3.546  -5.620   3.084  0.00  0.00    +0.000 NA
ATOM      5  C   UNL     1       4.718  -5.160   3.569  0.00  0.00    +0.000 A 
ATOM      6  C   UNL     1       5.107  -3.827   3.528  0.00  0.00    +0.000 A 
ATOM      7  C   UNL     1       4.219  -2.914   2.937  0.00  0.00    +0.000 A 
BRANCH   6   8
ATOM      8  C   UNL     1       6.449  -3.398   4.063  0.00  0.00    +0.000 C 
BRANCH   8   9
ATOM      9  N   UNL     1       6.301  -2.384   5.100  0.00  0.00    +0.000 NA
ATOM     10  H   UNL     1       5.664  -2.724   5.824  0.00  0.00    +0.000 HD
BRANCH   9  11
ATOM     11  CA  UNL     1       7.588  -2.044   5.776  0.00  0.00    +0.000 C 
BRANCH  11  12
ATOM     12  C   UNL     1       7.380  -1.159   7.014  0.00  0.00    +0.000 A 
ATOM     13  N   UNL     1       8.291  -1.246   8.007  0.00  0.00    +0.000 NA
ATOM     14  C   UNL     1       8.082  -0.465   9.083  0.00  0.00    +0.000 A 
ATOM     15  C   UNL     1       7.007   0.384   9.214  0.00  0.00    +0.000 A 
ATOM     16  C   UNL     1       6.132   0.395   8.156  0.00  0.00    +0.000 A 
ATOM     17  N   UNL     1       6.289  -0.362   7.056  0.00  0.00    +0.000 NA
ENDBRANCH  11  12
BRANCH  11  18
ATOM     18  C   UNL     1       8.564  -1.333   4.813  0.00  0.00    +0.000 C 
BRANCH  18  19
ATOM     19  O   UNL     1       7.947  -0.247   4.116  0.00  0.00    +0.000 OA
ATOM     20  H   UNL     1       6.982  -0.376   4.220  0.00  0.00    +0.000 HD
ENDBRANCH  18  19
ENDBRANCH  11  18
ENDBRANCH   9  11
ENDBRANCH   8   9
ENDBRANCH   6   8
ENDBRANCH   1   2
BRANCH   1  23
ATOM     21  O   UNL     1       0.276  -1.960  -0.560  0.00  0.00    +0.000 OA
ATOM     22  C   UNL     1       1.369  -2.499  -0.739  0.00  0.00    +0.000 C 
ATOM     23  N   UNL     1       2.306  -2.636   0.254  0.00  0.00    +0.000 N 
ATOM     24  H   UNL     1       3.153  -3.140   0.040  0.00  0.00    +0.000 HD
BRANCH  22  25
ATOM     25  C   UNL     1       1.719  -3.246  -1.937  0.00  0.00    +0.000 A 
ATOM     26  C   UNL     1       0.796  -4.013  -2.627  0.00  0.00    +0.000 A 
ATOM     27  S   UNL     1       1.561  -5.180  -3.625  0.00  0.00    +0.000 S 
ATOM     28  C   UNL     1       3.110  -4.578  -3.242  0.00  0.00    +0.000 A 
ATOM     29  N   UNL     1       4.254  -5.197  -3.636  0.00  0.00    +0.000 NA
ATOM     30  C   UNL     1       5.337  -4.570  -3.309  0.00  0.00    +0.000 A 
ATOM     31  N   UNL     1       5.381  -3.355  -2.668  0.00  0.00    +0.000 N 
ATOM     32  C   UNL     1       4.253  -2.697  -2.243  0.00  0.00    +0.000 A 
ATOM     33  O   UNL     1       4.304  -1.606  -1.689  0.00  0.00    +0.000 OA
ATOM     34  C   UNL     1       3.027  -3.427  -2.490  0.00  0.00    +0.000 A 
ATOM     35  H   UNL     1       6.257  -2.879  -2.513  0.00  0.00    +0.000 HD
ENDBRANCH  22  25
ENDBRANCH   1  23
BRANCH   1  36
ATOM     36  C   UNL     1       2.039  -0.960   2.071  0.00  0.00    +0.000 C 
BRANCH  36  37
ATOM     37  O   UNL     1       1.010  -0.187   1.453  0.00  0.00    +0.000 OA
ATOM     38  H   UNL     1       0.616  -0.706   0.721  0.00  0.00    +0.000 HD
ENDBRANCH  36  37
ENDBRANCH   1  36
TORSDOF 11
