REMARK  Name = 
REMARK  10 active torsions:
REMARK  status: ('A' for Active; 'I' for Inactive)
REMARK    1  A    between atoms: C_1  and  N_2
REMARK    2  A    between atoms: N_2  and  C_3
REMARK    3  A    between atoms: N_2  and  C_4
REMARK    4  A    between atoms: C_4  and  C_5
REMARK    5  A    between atoms: C_5  and  O_6
REMARK    6  A    between atoms: O_6  and  C_7
REMARK    7  A    between atoms: C_11  and  C_12
REMARK    8  A    between atoms: C_12  and  O_13
REMARK    9  A    between atoms: O_13  and  C_14
REMARK   10  A    between atoms: C_17  and  C_18
REMARK                            x       y       z     vdW  Elec       q    Type
REMARK                         _______ _______ _______ _____ _____    ______ ____
ROOT
ATOM      1  C   UNL     1       8.678  -2.972  -4.736  0.00  0.00    +0.000 C 
ENDROOT
BRANCH   1   6
ATOM      2  C   UNL     1       6.277  -2.406  -1.998  0.00  0.00    +0.000 A 
ATOM      3  C   UNL     1       7.048  -2.318  -0.853  0.00  0.00    +0.000 A 
ATOM      4  C   UNL     1       8.424  -2.477  -0.980  0.00  0.00    +0.000 A 
ATOM      5  C   UNL     1       8.978  -2.701  -2.240  0.00  0.00    +0.000 A 
ATOM      6  C   UNL     1       8.134  -2.737  -3.346  0.00  0.00    +0.000 A 
ATOM      7  N   UNL     1       6.793  -2.590  -3.233  0.00  0.00    +0.000 NA
BRANCH   2   8
ATOM      8  O   UNL     1       4.907  -2.279  -1.857  0.00  0.00    +0.000 OA
BRANCH   8   9
ATOM      9  C   UNL     1       4.221  -2.847  -2.982  0.00  0.00    +0.000 C 
BRANCH   9  10
ATOM     10  C   UNL     1       2.707  -2.624  -2.846  0.00  0.00    +0.000 C 
BRANCH  10  12
ATOM     11  C   UNL     1       0.477  -3.055  -3.662  0.00  0.00    +0.000 C 
ATOM     12  N   UNL     1       1.903  -3.298  -3.887  0.00  0.00    +0.000 NA
ATOM     13  C   UNL     1       2.270  -2.873  -5.241  0.00  0.00    +0.000 C 
ENDBRANCH  10  12
ENDBRANCH   9  10
ENDBRANCH   8   9
ENDBRANCH   2   8
ENDBRANCH   1   6
BRANCH   1  14
ATOM     14  O   UNL     1       8.762  -4.379  -4.965  0.00  0.00    +0.000 OA
BRANCH  14  15
ATOM     15  C   UNL     1       9.201  -4.787  -6.193  0.00  0.00    +0.000 A 
ATOM     16  C   UNL     1       9.596  -3.958  -7.244  0.00  0.00    +0.000 A 
ATOM     17  C   UNL     1      10.040  -4.517  -8.448  0.00  0.00    +0.000 A 
ATOM     18  C   UNL     1      10.099  -5.907  -8.610  0.00  0.00    +0.000 A 
ATOM     19  C   UNL     1       9.690  -6.738  -7.564  0.00  0.00    +0.000 A 
ATOM     20  C   UNL     1       9.244  -6.174  -6.364  0.00  0.00    +0.000 A 
BRANCH  18  21
ATOM     21  C   UNL     1      10.563  -6.446  -9.915  0.00  0.00    +0.000 C 
ATOM     22  N   UNL     1      11.099  -7.703  -9.929  0.00  0.00    +0.000 N 
ATOM     23  O   UNL     1      10.499  -5.779 -10.942  0.00  0.00    +0.000 OA
ATOM     24  H   UNL     1      11.371  -8.195  -9.091  0.00  0.00    +0.000 HD
ATOM     25  H   UNL     1      11.490  -8.013 -10.810  0.00  0.00    +0.000 HD
ENDBRANCH  18  21
ENDBRANCH  14  15
ENDBRANCH   1  14
TORSDOF 8
