REMARK  Name = 
REMARK  5 active torsions:
REMARK  status: ('A' for Active; 'I' for Inactive)
REMARK    1  A    between atoms: N_1  and  C_2
REMARK    2  A    between atoms: C_2  and  C_3
REMARK    3  A    between atoms: C_3  and  C_4
REMARK    4  A    between atoms: N_10  and  C_11
REMARK    5  A    between atoms: C_11  and  C_12
REMARK                            x       y       z     vdW  Elec       q    Type
REMARK                         _______ _______ _______ _____ _____    ______ ____
ROOT
ATOM      1  C   UNL     1       4.598  -1.054   1.128  0.00  0.00    +0.000 A 
ATOM      2  C   UNL     1       5.293   0.162   1.181  0.00  0.00    +0.000 A 
ATOM      3  N   UNL     1       6.642   0.285   1.168  0.00  0.00    +0.000 NA
ATOM      4  C   UNL     1       7.270  -0.914   1.104  0.00  0.00    +0.000 A 
ATOM      5  N   UNL     1       8.619  -1.128   1.042  0.00  0.00    +0.000 NA
ATOM      6  C   UNL     1       8.747  -2.436   0.997  0.00  0.00    +0.000 A 
ATOM      7  N   UNL     1       7.536  -3.077   1.049  0.00  0.00    +0.000 N 
ATOM      8  C   UNL     1       6.564  -2.115   1.081  0.00  0.00    +0.000 A 
ATOM      9  N   UNL     1       5.220  -2.266   1.092  0.00  0.00    +0.000 NA
ENDROOT
BRANCH   1  10
ATOM     10  C   UNL     1       3.090  -1.053   1.101  0.00  0.00    +0.000 C 
BRANCH  10  11
ATOM     11  C   UNL     1       2.500  -1.145   2.509  0.00  0.00    +0.000 C 
BRANCH  11  12
ATOM     12  N   UNL     1       1.037  -1.119   2.464  0.00  0.00    +0.000 NA
ATOM     13  H   UNL     1       0.670  -1.196   3.413  0.00  0.00    +0.000 HD
ATOM     14  H   UNL     1       0.694  -1.939   1.965  0.00  0.00    +0.000 HD
ENDBRANCH  11  12
ENDBRANCH  10  11
ENDBRANCH   1  10
BRANCH   7  15
ATOM     15  C   UNL     1       7.327  -4.510   1.057  0.00  0.00    +0.000 C 
BRANCH  15  16
ATOM     16  C   UNL     1       7.293  -5.037   2.472  0.00  0.00    +0.000 A 
ATOM     17  C   UNL     1       6.079  -5.100   3.173  0.00  0.00    +0.000 A 
ATOM     18  C   UNL     1       6.052  -5.487   4.514  0.00  0.00    +0.000 A 
ATOM     19  C   UNL     1       7.239  -5.815   5.164  0.00  0.00    +0.000 A 
ATOM     20 CL   UNL     1       7.214  -6.237   6.831  0.00  0.00    +0.000 Cl
ATOM     21  C   UNL     1       8.450  -5.787   4.475  0.00  0.00    +0.000 A 
ATOM     22  C   UNL     1       8.478  -5.401   3.132  0.00  0.00    +0.000 A 
ENDBRANCH  15  16
ENDBRANCH   7  15
TORSDOF 5
