REMARK  Name = 
REMARK  6 active torsions:
REMARK  status: ('A' for Active; 'I' for Inactive)
REMARK    1  A    between atoms: C_1  and  N_2
REMARK    2  A    between atoms: N_5  and  C_6
REMARK    3  A    between atoms: C_10  and  C_11
REMARK    4  A    between atoms: C_11  and  C_12
REMARK    5  A    between atoms: C_12  and  N_13
REMARK    6  A    between atoms: C_17  and  C_18
REMARK                            x       y       z     vdW  Elec       q    Type
REMARK                         _______ _______ _______ _____ _____    ______ ____
ROOT
ATOM      1  C   UNL     1      -6.596   1.134   0.039  0.00  0.00    +0.000 C 
ENDROOT
BRANCH   1   6
ATOM      2  C   UNL     1      -3.056  -0.006   0.881  0.00  0.00    +0.000 A 
ATOM      3  C   UNL     1      -3.325  -0.622   2.107  0.00  0.00    +0.000 A 
ATOM      4  C   UNL     1      -4.615  -0.640   2.594  0.00  0.00    +0.000 A 
ATOM      5  N   UNL     1      -5.655  -0.084   1.950  0.00  0.00    +0.000 NA
ATOM      6  C   UNL     1      -5.413   0.518   0.760  0.00  0.00    +0.000 A 
ATOM      7  C   UNL     1      -4.135   0.574   0.204  0.00  0.00    +0.000 A 
BRANCH   2  12
ATOM      8  C   UNL     1       2.153  -1.012  -0.895  0.00  0.00    +0.000 C 
ATOM      9  N   UNL     1       0.963  -0.212  -0.610  0.00  0.00    +0.000 NA
ATOM     10  C   UNL     1      -0.193  -0.711  -1.392  0.00  0.00    +0.000 C 
ATOM     11  C   UNL     1      -1.510   0.039  -1.071  0.00  0.00    +0.000 C 
ATOM     12  N   UNL     1      -1.770  -0.060   0.371  0.00  0.00    +0.000 N 
ATOM     13  C   UNL     1      -0.667   0.476   1.192  0.00  0.00    +0.000 C 
ATOM     14  C   UNL     1       0.643  -0.265   0.837  0.00  0.00    +0.000 C 
ENDBRANCH   2  12
ENDBRANCH   1   6
BRANCH   1  15
ATOM     15  C   UNL     1      -7.884   0.937   0.845  0.00  0.00    +0.000 C 
BRANCH  15  16
ATOM     16  N   UNL     1      -9.051   1.572   0.234  0.00  0.00    +0.000 N 
ATOM     17  C   UNL     1     -10.257   1.389   0.916  0.00  0.00    +0.000 A 
ATOM     18  C   UNL     1     -10.338   1.377   2.309  0.00  0.00    +0.000 A 
ATOM     19  C   UNL     1     -11.568   1.183   2.935  0.00  0.00    +0.000 A 
ATOM     20  C   UNL     1     -12.719   1.049   2.166  0.00  0.00    +0.000 A 
ATOM     21  C   UNL     1     -12.558   1.105   0.790  0.00  0.00    +0.000 A 
ATOM     22  N   UNL     1     -11.361   1.261   0.154  0.00  0.00    +0.000 NA
ATOM     23  H   UNL     1      -9.229   1.333  -0.739  0.00  0.00    +0.000 HD
BRANCH  20  24
ATOM     24  C   UNL     1     -14.015   0.858   2.863  0.00  0.00    +0.000 C 
ATOM     25  N   UNL     1     -15.161   0.764   2.128  0.00  0.00    +0.000 N 
ATOM     26  O   UNL     1     -14.072   0.784   4.087  0.00  0.00    +0.000 OA
ATOM     27  H   UNL     1     -15.233   0.839   1.126  0.00  0.00    +0.000 HD
ATOM     28  H   UNL     1     -16.020   0.645   2.653  0.00  0.00    +0.000 HD
ENDBRANCH  20  24
ENDBRANCH  15  16
ENDBRANCH   1  15
TORSDOF 5
