REMARK  Name = 
REMARK  4 active torsions:
REMARK  status: ('A' for Active; 'I' for Inactive)
REMARK    1  A    between atoms: C_2  and  C_4
REMARK    2  A    between atoms: C_7  and  N_8
REMARK    3  A    between atoms: N_8  and  C_9
REMARK    4  A    between atoms: C_9  and  C_10
REMARK                            x       y       z     vdW  Elec       q    Type
REMARK                         _______ _______ _______ _____ _____    ______ ____
ROOT
ATOM      1  C   UNL     1       3.260   0.907   0.738  0.00  0.00    +0.000 A 
ATOM      2  N   UNL     1       4.186   1.542  -0.020  0.00  0.00    +0.000 NA
ATOM      3  C   UNL     1       4.777   2.605   0.566  0.00  0.00    +0.000 A 
ATOM      4  C   UNL     1       4.499   3.081   1.840  0.00  0.00    +0.000 A 
ATOM      5  C   UNL     1       3.538   2.327   2.501  0.00  0.00    +0.000 A 
ATOM      6  N   UNL     1       2.900   1.251   1.987  0.00  0.00    +0.000 NA
ENDROOT
BRANCH   1   8
ATOM      7  N   UNL     1       3.009  -0.592  -1.173  0.00  0.00    +0.000 N 
ATOM      8  C   UNL     1       2.599  -0.290   0.109  0.00  0.00    +0.000 C 
ATOM      9  O   UNL     1       1.747  -0.983   0.664  0.00  0.00    +0.000 OA
ATOM     10  H   UNL     1       2.618  -1.399  -1.638  0.00  0.00    +0.000 HD
ATOM     11  H   UNL     1       3.726  -0.033  -1.618  0.00  0.00    +0.000 HD
ENDBRANCH   1   8
BRANCH   4  12
ATOM     12  N   UNL     1       5.173   4.113   2.471  0.00  0.00    +0.000 N 
ATOM     13  H   UNL     1       4.733   4.501   3.300  0.00  0.00    +0.000 HD
BRANCH  12  14
ATOM     14  C   UNL     1       6.102   4.970   1.743  0.00  0.00    +0.000 C 
BRANCH  14  15
ATOM     15  C   UNL     1       6.580   6.155   2.603  0.00  0.00    +0.000 C 
ATOM     16  C   UNL     1       5.420   7.105   2.948  0.00  0.00    +0.000 C 
ATOM     17  C   UNL     1       5.896   8.351   3.689  0.00  0.00    +0.000 C 
ATOM     18  C   UNL     1       6.964   9.088   2.893  0.00  0.00    +0.000 C 
ATOM     19  C   UNL     1       8.143   8.172   2.587  0.00  0.00    +0.000 C 
ATOM     20  C   UNL     1       7.696   6.910   1.854  0.00  0.00    +0.000 C 
ENDBRANCH  14  15
ENDBRANCH  12  14
ENDBRANCH   4  12
TORSDOF 4
