REMARK  Name = 
REMARK  6 active torsions:
REMARK  status: ('A' for Active; 'I' for Inactive)
REMARK    1  A    between atoms: C_1  and  C_2
REMARK    2  A    between atoms: C_4  and  C_5
REMARK    3  A    between atoms: C_10  and  O_11
REMARK    4  A    between atoms: O_11  and  C_12
REMARK    5  A    between atoms: C_12  and  C_13
REMARK    6  A    between atoms: C_17  and  C_18
REMARK                            x       y       z     vdW  Elec       q    Type
REMARK                         _______ _______ _______ _____ _____    ______ ____
ROOT
ATOM      1  C   UNL     1       2.369  -2.551  -0.016  0.00  0.00    +0.000 C 
ENDROOT
BRANCH   1   2
ATOM      2  C   UNL     1       2.753  -4.004   0.037  0.00  0.00    +0.000 A 
ATOM      3  C   UNL     1       2.967  -4.737  -1.119  0.00  0.00    +0.000 A 
ATOM      4  N   UNL     1       3.386  -6.019  -1.125  0.00  0.00    +0.000 NA
ATOM      5  C   UNL     1       3.589  -6.602   0.084  0.00  0.00    +0.000 A 
ATOM      6  C   UNL     1       3.401  -5.982   1.322  0.00  0.00    +0.000 A 
ATOM      7  C   UNL     1       2.965  -4.649   1.263  0.00  0.00    +0.000 A 
BRANCH   6   8
ATOM      8  C   UNL     1       3.658  -6.664   2.610  0.00  0.00    +0.000 A 
ATOM      9  C   UNL     1       4.665  -7.642   2.741  0.00  0.00    +0.000 A 
ATOM     10  C   UNL     1       4.913  -8.273   3.965  0.00  0.00    +0.000 A 
ATOM     11  C   UNL     1       4.164  -7.927   5.080  0.00  0.00    +0.000 A 
ATOM     12  F   UNL     1       4.406  -8.525   6.253  0.00  0.00    +0.000 F 
ATOM     13  C   UNL     1       3.167  -6.968   4.993  0.00  0.00    +0.000 A 
ATOM     14  C   UNL     1       2.913  -6.349   3.766  0.00  0.00    +0.000 A 
ENDBRANCH   6   8
ENDBRANCH   1   2
BRANCH   1  15
ATOM     15  O   UNL     1       0.959  -2.397  -0.022  0.00  0.00    +0.000 OA
BRANCH  15  22
ATOM     16  C   UNL     1       2.530   0.374   0.004  0.00  0.00    +0.000 C 
ATOM     17  C   UNL     1       1.049   0.119  -0.016  0.00  0.00    +0.000 A 
ATOM     18  C   UNL     1       0.239   1.280  -0.024  0.00  0.00    +0.000 A 
ATOM     19  C   UNL     1      -1.162   1.229  -0.044  0.00  0.00    +0.000 A 
ATOM     20  C   UNL     1      -1.776  -0.020  -0.055  0.00  0.00    +0.000 A 
ATOM     21  C   UNL     1      -0.990  -1.182  -0.047  0.00  0.00    +0.000 A 
ATOM     22  C   UNL     1       0.417  -1.136  -0.028  0.00  0.00    +0.000 A 
BRANCH  19  23
ATOM     23  C   UNL     1      -1.896   2.530  -0.051  0.00  0.00    +0.000 C 
ATOM     24  N   UNL     1      -3.262   2.513  -0.077  0.00  0.00    +0.000 N 
ATOM     25  O   UNL     1      -1.303   3.602  -0.039  0.00  0.00    +0.000 OA
ATOM     26  H   UNL     1      -3.835   1.686  -0.095  0.00  0.00    +0.000 HD
ATOM     27  H   UNL     1      -3.722   3.414  -0.087  0.00  0.00    +0.000 HD
ENDBRANCH  19  23
ENDBRANCH  15  22
ENDBRANCH   1  15
TORSDOF 5
