REMARK  Name = 
REMARK  4 active torsions:
REMARK  status: ('A' for Active; 'I' for Inactive)
REMARK    1  A    between atoms: C_2  and  C_4
REMARK    2  A    between atoms: N_8  and  C_9
REMARK    3  A    between atoms: C_9  and  C_10
REMARK    4  A    between atoms: C_14  and  C_15
REMARK                            x       y       z     vdW  Elec       q    Type
REMARK                         _______ _______ _______ _____ _____    ______ ____
ROOT
ATOM      1  C   UNL     1       4.636   4.452  -4.135  0.00  0.00    +0.000 C 
ATOM      2  C   UNL     1       4.609   5.734  -3.329  0.00  0.00    +0.000 C 
ATOM      3  C   UNL     1       3.825   5.640  -4.599  0.00  0.00    +0.000 C 
ENDROOT
BRANCH   1   8
ATOM      4  C   UNL     1       2.605   0.276  -6.350  0.00  0.00    +0.000 A 
ATOM      5  C   UNL     1       3.076   1.459  -6.893  0.00  0.00    +0.000 A 
ATOM      6  C   UNL     1       3.389   2.504  -6.031  0.00  0.00    +0.000 A 
ATOM      7  C   UNL     1       3.331   2.333  -4.648  0.00  0.00    +0.000 A 
ATOM      8  N   UNL     1       3.809   3.295  -3.748  0.00  0.00    +0.000 N 
ATOM      9  N   UNL     1       2.807   1.211  -4.116  0.00  0.00    +0.000 NA
ATOM     10  C   UNL     1       2.428   0.223  -4.975  0.00  0.00    +0.000 A 
ATOM     11  H   UNL     1       3.792   2.943  -2.798  0.00  0.00    +0.000 HD
BRANCH   4  13
ATOM     12  N   UNL     1       3.083  -1.081  -8.301  0.00  0.00    +0.000 N 
ATOM     13  C   UNL     1       2.307  -0.905  -7.182  0.00  0.00    +0.000 C 
ATOM     14  O   UNL     1       1.454  -1.710  -6.848  0.00  0.00    +0.000 OA
ATOM     15  H   UNL     1       2.972  -1.963  -8.784  0.00  0.00    +0.000 HD
ATOM     16  H   UNL     1       3.942  -0.570  -8.451  0.00  0.00    +0.000 HD
ENDBRANCH   4  13
ENDBRANCH   1   8
BRANCH   1  17
ATOM     17  C   UNL     1       5.976   4.060  -4.778  0.00  0.00    +0.000 A 
ATOM     18  C   UNL     1       6.955   3.375  -4.043  0.00  0.00    +0.000 A 
ATOM     19  C   UNL     1       7.938   2.621  -4.687  0.00  0.00    +0.000 A 
ATOM     20  C   UNL     1       7.931   2.511  -6.079  0.00  0.00    +0.000 A 
ATOM     21  C   UNL     1       7.017   3.241  -6.851  0.00  0.00    +0.000 A 
ATOM     22  C   UNL     1       6.143   4.109  -6.174  0.00  0.00    +0.000 A 
BRANCH  21  23
ATOM     23  C   UNL     1       6.801   2.971  -8.287  0.00  0.00    +0.000 A 
ATOM     24  C   UNL     1       6.464   3.973  -9.206  0.00  0.00    +0.000 A 
ATOM     25  C   UNL     1       6.134   3.649 -10.522  0.00  0.00    +0.000 A 
ATOM     26  C   UNL     1       6.149   2.317 -10.896  0.00  0.00    +0.000 A 
ATOM     27  N   UNL     1       6.456   1.310 -10.053  0.00  0.00    +0.000 NA
ATOM     28  C   UNL     1       6.777   1.662  -8.783  0.00  0.00    +0.000 A 
ENDBRANCH  21  23
ENDBRANCH   1  17
TORSDOF 4
