REMARK  Name = 
REMARK  9 active torsions:
REMARK  status: ('A' for Active; 'I' for Inactive)
REMARK    1  A    between atoms: C_2  and  C_3
REMARK    2  A    between atoms: C_7  and  C_8
REMARK    3  A    between atoms: N_10  and  C_11
REMARK    4  A    between atoms: C_11  and  C_12
REMARK    5  A    between atoms: C_15  and  C_16
REMARK    6  A    between atoms: C_16  and  N_17
REMARK    7  A    between atoms: C_18  and  C_20
REMARK    8  A    between atoms: N_26  and  C_27
REMARK    9  A    between atoms: C_27  and  C_28
REMARK                            x       y       z     vdW  Elec       q    Type
REMARK                         _______ _______ _______ _____ _____    ______ ____
ROOT
ATOM      1  C   UNL     1       4.064   6.050   1.361  0.00  0.00    +0.000 A 
ATOM      2  C   UNL     1       5.211   6.679   1.866  0.00  0.00    +0.000 A 
ATOM      3  C   UNL     1       5.108   7.772   2.741  0.00  0.00    +0.000 A 
ATOM      4  C   UNL     1       3.856   8.247   3.157  0.00  0.00    +0.000 A 
ATOM      5  C   UNL     1       2.711   7.637   2.627  0.00  0.00    +0.000 A 
ATOM      6  C   UNL     1       2.813   6.541   1.755  0.00  0.00    +0.000 A 
ENDROOT
BRANCH   1   7
ATOM      7  C   UNL     1       4.182   4.908   0.379  0.00  0.00    +0.000 C 
BRANCH   7  10
ATOM      8  C   UNL     1       4.436   2.480   0.214  0.00  0.00    +0.000 C 
ATOM      9  O   UNL     1       4.482   2.539  -1.011  0.00  0.00    +0.000 OA
ATOM     10  N   UNL     1       4.277   3.602   1.003  0.00  0.00    +0.000 N 
ATOM     11  H   UNL     1       4.099   3.521   1.996  0.00  0.00    +0.000 HD
BRANCH   8  16
ATOM     12  C   UNL     1       4.844  -0.027   0.022  0.00  0.00    +0.000 C 
ATOM     13  C   UNL     1       5.455  -1.092   0.931  0.00  0.00    +0.000 C 
ATOM     14  C   UNL     1       6.027  -0.348   2.136  0.00  0.00    +0.000 C 
ATOM     15  C   UNL     1       5.735   1.131   1.915  0.00  0.00    +0.000 C 
ATOM     16  C   UNL     1       4.544   1.158   0.964  0.00  0.00    +0.000 C 
BRANCH  12  18
ATOM     17  N   UNL     1       2.498  -0.925  -1.172  0.00  0.00    +0.000 NA
ATOM     18  C   UNL     1       3.561  -0.518  -0.630  0.00  0.00    +0.000 C 
ENDBRANCH  12  18
ENDBRANCH   8  16
ENDBRANCH   7  10
ENDBRANCH   1   7
BRANCH   4  19
ATOM     19  C   UNL     1       3.730   9.369   4.168  0.00  0.00    +0.000 C 
BRANCH  19  20
ATOM     20  N   UNL     1       3.637  10.667   3.562  0.00  0.00    +0.000 N 
ATOM     21  C   UNL     1       3.508  11.822   4.303  0.00  0.00    +0.000 C 
ATOM     22  O   UNL     1       3.347  11.814   5.513  0.00  0.00    +0.000 OA
ATOM     23  H   UNL     1       3.997  10.735   2.615  0.00  0.00    +0.000 HD
BRANCH  21  24
ATOM     24  C   UNL     1       3.532  13.069   3.525  0.00  0.00    +0.000 A 
ATOM     25  C   UNL     1       2.869  14.204   3.977  0.00  0.00    +0.000 A 
ATOM     26  S   UNL     1       3.022  15.545   2.926  0.00  0.00    +0.000 S 
ATOM     27  C   UNL     1       4.000  14.661   1.846  0.00  0.00    +0.000 A 
ATOM     28  N   UNL     1       4.506  15.231   0.722  0.00  0.00    +0.000 NA
ATOM     29  C   UNL     1       5.241  14.446   0.003  0.00  0.00    +0.000 A 
ATOM     30  N   UNL     1       5.533  13.129   0.293  0.00  0.00    +0.000 N 
ATOM     31  C   UNL     1       4.990  12.507   1.407  0.00  0.00    +0.000 A 
ATOM     32  O   UNL     1       5.163  11.313   1.633  0.00  0.00    +0.000 OA
ATOM     33  C   UNL     1       4.181  13.361   2.264  0.00  0.00    +0.000 A 
BRANCH  30  34
ATOM     34  C   UNL     1       6.380  12.329  -0.589  0.00  0.00    +0.000 C 
BRANCH  34  35
ATOM     35  C   UNL     1       5.593  11.555  -1.641  0.00  0.00    +0.000 C 
ATOM     36  F   UNL     1       4.953  12.440  -2.453  0.00  0.00    +0.000 F 
ENDBRANCH  34  35
ENDBRANCH  30  34
ENDBRANCH  21  24
ENDBRANCH  19  20
ENDBRANCH   4  19
TORSDOF 9
