REMARK  Name = 
REMARK  8 active torsions:
REMARK  status: ('A' for Active; 'I' for Inactive)
REMARK    1  A    between atoms: C_2  and  C_21
REMARK    2  A    between atoms: N_3  and  C_4
REMARK    3  A    between atoms: C_4  and  C_5
REMARK    4  A    between atoms: C_8  and  C_9
REMARK    5  A    between atoms: C_9  and  C_10
REMARK    6  A    between atoms: C_9  and  C_12
REMARK    7  A    between atoms: C_10  and  O_11
REMARK    8  A    between atoms: C_12  and  C_13
REMARK                            x       y       z     vdW  Elec       q    Type
REMARK                         _______ _______ _______ _____ _____    ______ ____
ROOT
ATOM      1  C   UNL     1       7.479  -8.267   1.875  0.00  0.00    +0.000 A 
ATOM      2  C   UNL     1       6.436  -8.683   2.704  0.00  0.00    +0.000 A 
ATOM      3  C   UNL     1       5.814  -7.765   3.546  0.00  0.00    +0.000 A 
ATOM      4  C   UNL     1       6.253  -6.444   3.545  0.00  0.00    +0.000 A 
ATOM      5  N   UNL     1       7.229  -6.003   2.708  0.00  0.00    +0.000 NA
ATOM      6  C   UNL     1       7.833  -6.924   1.921  0.00  0.00    +0.000 A 
ENDROOT
BRANCH   1   7
ATOM      7  C   UNL     1       8.251  -9.240   1.035  0.00  0.00    +0.000 C 
BRANCH   7  10
ATOM      8  O   UNL     1       9.969 -11.236   0.128  0.00  0.00    +0.000 OA
ATOM      9  C   UNL     1      10.186 -10.735   1.228  0.00  0.00    +0.000 C 
ATOM     10  N   UNL     1       9.338  -9.815   1.789  0.00  0.00    +0.000 N 
ATOM     11  H   UNL     1       9.639  -9.308   2.615  0.00  0.00    +0.000 HD
BRANCH   9  12
ATOM     12  C   UNL     1      11.358 -11.112   2.027  0.00  0.00    +0.000 A 
ATOM     13  C   UNL     1      11.968 -12.343   1.829  0.00  0.00    +0.000 A 
ATOM     14  S   UNL     1      13.320 -12.604   2.837  0.00  0.00    +0.000 S 
ATOM     15  C   UNL     1      13.163 -11.063   3.541  0.00  0.00    +0.000 A 
ATOM     16  N   UNL     1      14.050 -10.625   4.475  0.00  0.00    +0.000 NA
ATOM     17  C   UNL     1      13.837  -9.420   4.889  0.00  0.00    +0.000 A 
ATOM     18  N   UNL     1      12.809  -8.619   4.466  0.00  0.00    +0.000 N 
ATOM     19  C   UNL     1      11.860  -9.038   3.566  0.00  0.00    +0.000 A 
ATOM     20  O   UNL     1      10.902  -8.331   3.276  0.00  0.00    +0.000 OA
ATOM     21  C   UNL     1      12.076 -10.372   3.038  0.00  0.00    +0.000 A 
ATOM     22  H   UNL     1      12.692  -7.691   4.846  0.00  0.00    +0.000 HD
ENDBRANCH   9  12
ENDBRANCH   7  10
ENDBRANCH   1   7
BRANCH   4  23
ATOM     23  C   UNL     1       5.683  -5.443   4.536  0.00  0.00    +0.000 C 
BRANCH  23  24
ATOM     24  C   UNL     1       4.924  -4.345   3.770  0.00  0.00    +0.000 C 
BRANCH  24  25
ATOM     25  O   UNL     1       5.788  -3.509   3.003  0.00  0.00    +0.000 OA
ATOM     26  H   UNL     1       6.406  -4.111   2.535  0.00  0.00    +0.000 HD
ENDBRANCH  24  25
ENDBRANCH  23  24
BRANCH  23  27
ATOM     27  C   UNL     1       6.777  -4.835   5.444  0.00  0.00    +0.000 C 
BRANCH  27  28
ATOM     28  C   UNL     1       7.573  -5.846   6.245  0.00  0.00    +0.000 A 
ATOM     29  C   UNL     1       8.763  -6.374   5.721  0.00  0.00    +0.000 A 
ATOM     30  C   UNL     1       9.506  -7.310   6.440  0.00  0.00    +0.000 A 
ATOM     31  C   UNL     1       9.077  -7.723   7.697  0.00  0.00    +0.000 A 
ATOM     32  C   UNL     1       7.898  -7.206   8.230  0.00  0.00    +0.000 A 
ATOM     33  C   UNL     1       7.145  -6.276   7.506  0.00  0.00    +0.000 A 
ENDBRANCH  27  28
ENDBRANCH  23  27
ENDBRANCH   4  23
TORSDOF 8
