REMARK  Name = 
REMARK  5 active torsions:
REMARK  status: ('A' for Active; 'I' for Inactive)
REMARK    1  A    between atoms: C_7  and  C_8
REMARK    2  A    between atoms: N_10  and  C_11
REMARK    3  A    between atoms: C_11  and  C_12
REMARK    4  A    between atoms: C_15  and  C_16
REMARK    5  A    between atoms: C_16  and  N_17
REMARK                            x       y       z     vdW  Elec       q    Type
REMARK                         _______ _______ _______ _____ _____    ______ ____
ROOT
ATOM      1  C   UNL     1       9.772   2.580  -1.959  0.00  0.00    +0.000 C 
ATOM      2  O   UNL     1      10.730   3.161  -1.452  0.00  0.00    +0.000 OA
ATOM      3  N   UNL     1       8.600   2.408  -1.275  0.00  0.00    +0.000 N 
ATOM      4  H   UNL     1       7.778   2.029  -1.737  0.00  0.00    +0.000 HD
ENDROOT
BRANCH   1  11
ATOM      5  N   UNL     1       6.714  -0.602  -7.038  0.00  0.00    +0.000 N 
ATOM      6  C   UNL     1       7.481   0.027  -6.114  0.00  0.00    +0.000 A 
ATOM      7  N   UNL     1       8.705   0.358  -6.387  0.00  0.00    +0.000 NA
ATOM      8  C   UNL     1       9.368   1.004  -5.391  0.00  0.00    +0.000 A 
ATOM      9  S   UNL     1      10.974   1.521  -5.611  0.00  0.00    +0.000 S 
ATOM     10  C   UNL     1      11.026   2.197  -4.049  0.00  0.00    +0.000 A 
ATOM     11  C   UNL     1       9.848   2.041  -3.327  0.00  0.00    +0.000 A 
ATOM     12  C   UNL     1       8.883   1.330  -4.138  0.00  0.00    +0.000 A 
ATOM     13  C   UNL     1       7.518   0.923  -3.866  0.00  0.00    +0.000 A 
ATOM     14  O   UNL     1       6.934   1.123  -2.805  0.00  0.00    +0.000 OA
ATOM     15  N   UNL     1       6.892   0.278  -4.906  0.00  0.00    +0.000 N 
ATOM     16  H   UNL     1       7.255  -0.973  -7.814  0.00  0.00    +0.000 HD
ATOM     17  H   UNL     1       5.988  -1.226  -6.715  0.00  0.00    +0.000 HD
ATOM     18  H   UNL     1       5.930   0.028  -4.749  0.00  0.00    +0.000 HD
ENDBRANCH   1  11
BRANCH   3  19
ATOM     19  C   UNL     1       8.388   2.945   0.051  0.00  0.00    +0.000 C 
BRANCH  19  20
ATOM     20  C   UNL     1       7.857   4.359   0.023  0.00  0.00    +0.000 A 
ATOM     21  C   UNL     1       8.739   5.437  -0.003  0.00  0.00    +0.000 A 
ATOM     22  C   UNL     1       8.224   6.730  -0.018  0.00  0.00    +0.000 A 
ATOM     23  C   UNL     1       6.841   6.926  -0.010  0.00  0.00    +0.000 A 
ATOM     24  C   UNL     1       6.038   5.791  -0.006  0.00  0.00    +0.000 A 
ATOM     25  N   UNL     1       6.509   4.522   0.008  0.00  0.00    +0.000 NA
BRANCH  23  26
ATOM     26  C   UNL     1       6.240   8.306  -0.032  0.00  0.00    +0.000 C 
BRANCH  26  27
ATOM     27  N   UNL     1       5.369   8.610   1.126  0.00  0.00    +0.000 NA
ATOM     28  C   UNL     1       6.151   8.625   2.376  0.00  0.00    +0.000 C 
ATOM     29  C   UNL     1       5.346   9.104   3.586  0.00  0.00    +0.000 C 
ATOM     30  C   UNL     1       4.724  10.466   3.322  0.00  0.00    +0.000 C 
ATOM     31  C   UNL     1       3.866  10.390   2.069  0.00  0.00    +0.000 C 
ATOM     32  C   UNL     1       4.681   9.890   0.877  0.00  0.00    +0.000 C 
ENDBRANCH  26  27
ENDBRANCH  23  26
ENDBRANCH  19  20
ENDBRANCH   3  19
TORSDOF 5
