REMARK  Name = 
REMARK  4 active torsions:
REMARK  status: ('A' for Active; 'I' for Inactive)
REMARK    1  A    between atoms: N_1  and  C_2
REMARK    2  A    between atoms: C_2  and  C_3
REMARK    3  A    between atoms: C_6  and  C_7
REMARK    4  A    between atoms: C_8  and  C_9
REMARK                            x       y       z     vdW  Elec       q    Type
REMARK                         _______ _______ _______ _____ _____    ______ ____
ROOT
ATOM      1  C   UNL     1       3.035   0.101  -1.362  0.00  0.00    +0.000 A 
ATOM      2  C   UNL     1       3.081   1.403  -1.875  0.00  0.00    +0.000 A 
ATOM      3  C   UNL     1       3.588   1.653  -3.154  0.00  0.00    +0.000 A 
ATOM      4  C   UNL     1       4.073   0.606  -3.945  0.00  0.00    +0.000 A 
ATOM      5  C   UNL     1       4.022  -0.698  -3.434  0.00  0.00    +0.000 A 
ATOM      6  C   UNL     1       3.514  -0.949  -2.153  0.00  0.00    +0.000 A 
ENDROOT
BRANCH   4   7
ATOM      7  C   UNL     1       4.552   0.811  -5.322  0.00  0.00    +0.000 C 
ATOM      8  C   UNL     1       5.144   1.932  -5.767  0.00  0.00    +0.000 C 
BRANCH   8   9
ATOM      9  C   UNL     1       5.583   2.134  -7.151  0.00  0.00    +0.000 A 
ATOM     10  C   UNL     1       4.984   1.554  -8.257  0.00  0.00    +0.000 A 
ATOM     11  N   UNL     1       5.356   1.781  -9.535  0.00  0.00    +0.000 NA
ATOM     12  C   UNL     1       6.368   2.645  -9.699  0.00  0.00    +0.000 A 
ATOM     13  N   UNL     1       7.025   3.283  -8.719  0.00  0.00    +0.000 NA
ATOM     14  C   UNL     1       6.607   3.011  -7.463  0.00  0.00    +0.000 A 
ENDBRANCH   8   9
ENDBRANCH   4   7
BRANCH   1  15
ATOM     15  C   UNL     1       2.475  -0.149   0.015  0.00  0.00    +0.000 C 
BRANCH  15  16
ATOM     16  N   UNL     1       1.079   0.265   0.102  0.00  0.00    +0.000 NA
ATOM     17  H   UNL     1       0.714   0.031   1.023  0.00  0.00    +0.000 HD
ATOM     18  H   UNL     1       0.536  -0.270  -0.573  0.00  0.00    +0.000 HD
ENDBRANCH  15  16
ENDBRANCH   1  15
TORSDOF 4
