REMARK  Name = 
REMARK  3 active torsions:
REMARK  status: ('A' for Active; 'I' for Inactive)
REMARK    1  A    between atoms: C_5  and  C_6
REMARK    2  A    between atoms: C_6  and  N_7
REMARK    3  A    between atoms: C_12  and  N_13
REMARK                            x       y       z     vdW  Elec       q    Type
REMARK                         _______ _______ _______ _____ _____    ______ ____
ROOT
ATOM      1  N   UNL     1       3.010  -2.267  -0.105  0.00  0.00    +0.000 N 
ATOM      2  C   UNL     1       3.931  -3.329  -0.043  0.00  0.00    +0.000 A 
ATOM      3  C   UNL     1       3.750  -4.385  -0.925  0.00  0.00    +0.000 A 
ATOM      4  C   UNL     1       4.659  -5.427  -0.914  0.00  0.00    +0.000 A 
ATOM      5  C   UNL     1       5.754  -5.352  -0.061  0.00  0.00    +0.000 A 
ATOM      6  C   UNL     1       5.920  -4.249   0.777  0.00  0.00    +0.000 A 
ATOM      7  N   UNL     1       4.998  -3.257   0.777  0.00  0.00    +0.000 NA
ATOM      8  H   UNL     1       3.308  -1.667  -0.869  0.00  0.00    +0.000 HD
ENDROOT
BRANCH   6   9
ATOM      9  N   UNL     1       7.046  -4.106   1.564  0.00  0.00    +0.000 N 
ATOM     10  C   UNL     1       7.783  -5.247   2.116  0.00  0.00    +0.000 C 
ATOM     11  C   UNL     1       7.751  -5.233   3.662  0.00  0.00    +0.000 C 
ATOM     12  N   UNL     1       8.182  -3.952   4.256  0.00  0.00    +0.000 NA
ATOM     13  C   UNL     1       7.325  -2.876   3.709  0.00  0.00    +0.000 C 
ATOM     14  C   UNL     1       7.341  -2.799   2.168  0.00  0.00    +0.000 C 
ATOM     15  H   UNL     1       9.140  -3.771   3.955  0.00  0.00    +0.000 HD
ENDBRANCH   6   9
BRANCH   1  16
ATOM     16  C   UNL     1       2.892  -1.514   1.139  0.00  0.00    +0.000 C 
BRANCH  16  21
ATOM     17  C   UNL     1      -0.792  -0.572   0.691  0.00  0.00    +0.000 A 
ATOM     18  C   UNL     1      -0.800   0.593   1.435  0.00  0.00    +0.000 A 
ATOM     19  N   UNL     1       0.289   1.091   2.058  0.00  0.00    +0.000 NA
ATOM     20  C   UNL     1       1.441   0.391   1.923  0.00  0.00    +0.000 A 
ATOM     21  C   UNL     1       1.570  -0.778   1.178  0.00  0.00    +0.000 A 
ATOM     22  C   UNL     1       0.408  -1.269   0.570  0.00  0.00    +0.000 A 
ENDBRANCH  16  21
ENDBRANCH   1  16
TORSDOF 3
