REMARK  Name = 
REMARK  5 active torsions:
REMARK  status: ('A' for Active; 'I' for Inactive)
REMARK    1  A    between atoms: C_2  and  C_4
REMARK    2  A    between atoms: C_7  and  O_8
REMARK    3  A    between atoms: O_8  and  C_9
REMARK    4  A    between atoms: C_9  and  C_10
REMARK    5  A    between atoms: C_14  and  C_15
REMARK                            x       y       z     vdW  Elec       q    Type
REMARK                         _______ _______ _______ _____ _____    ______ ____
ROOT
ATOM      1  C   UNL     1       5.169   1.168   5.753  0.00  0.00    +0.000 C 
ENDROOT
BRANCH   1   2
ATOM      2  C   UNL     1       6.104   1.672   6.828  0.00  0.00    +0.000 A 
ATOM      3  C   UNL     1       6.249   3.050   7.033  0.00  0.00    +0.000 A 
ATOM      4  C   UNL     1       7.031   3.528   8.081  0.00  0.00    +0.000 A 
ATOM      5  C   UNL     1       7.660   2.632   8.949  0.00  0.00    +0.000 A 
ATOM      6  C   UNL     1       7.512   1.243   8.797  0.00  0.00    +0.000 A 
ATOM      7  C   UNL     1       6.736   0.786   7.715  0.00  0.00    +0.000 A 
BRANCH   6   8
ATOM      8  C   UNL     1       8.071   0.290   9.774  0.00  0.00    +0.000 A 
ATOM      9  C   UNL     1       8.585  -0.957   9.396  0.00  0.00    +0.000 A 
ATOM     10  N   UNL     1       9.022  -1.917  10.253  0.00  0.00    +0.000 NA
ATOM     11  C   UNL     1       8.954  -1.619  11.569  0.00  0.00    +0.000 A 
ATOM     12  C   UNL     1       8.490  -0.409  12.050  0.00  0.00    +0.000 A 
ATOM     13  F   UNL     1       8.448  -0.170  13.367  0.00  0.00    +0.000 F 
ATOM     14  C   UNL     1       8.049   0.551  11.152  0.00  0.00    +0.000 A 
ENDBRANCH   6   8
ENDBRANCH   1   2
BRANCH   1  15
ATOM     15  O   UNL     1       5.631  -0.066   5.194  0.00  0.00    +0.000 OA
BRANCH  15  19
ATOM     16  C   UNL     1       3.036  -1.567   2.368  0.00  0.00    +0.000 A 
ATOM     17  C   UNL     1       4.199  -2.274   2.681  0.00  0.00    +0.000 A 
ATOM     18  C   UNL     1       5.073  -1.758   3.640  0.00  0.00    +0.000 A 
ATOM     19  C   UNL     1       4.749  -0.556   4.251  0.00  0.00    +0.000 A 
ATOM     20  N   UNL     1       3.632   0.148   3.964  0.00  0.00    +0.000 NA
ATOM     21  C   UNL     1       2.806  -0.367   3.024  0.00  0.00    +0.000 A 
BRANCH  16  23
ATOM     22  N   UNL     1       1.958  -3.345   1.106  0.00  0.00    +0.000 N 
ATOM     23  C   UNL     1       2.051  -2.006   1.359  0.00  0.00    +0.000 C 
ATOM     24  O   UNL     1       1.317  -1.206   0.797  0.00  0.00    +0.000 OA
ATOM     25  H   UNL     1       1.200  -3.630   0.498  0.00  0.00    +0.000 HD
ATOM     26  H   UNL     1       2.348  -4.045   1.721  0.00  0.00    +0.000 HD
ENDBRANCH  16  23
ENDBRANCH  15  19
ENDBRANCH   1  15
TORSDOF 5
