REMARK  Name = 
REMARK  9 active torsions:
REMARK  status: ('A' for Active; 'I' for Inactive)
REMARK    1  A    between atoms: C_1  and  C_2
REMARK    2  A    between atoms: C_2  and  N_3
REMARK    3  A    between atoms: C_2  and  C_25
REMARK    4  A    between atoms: N_3  and  C_4
REMARK    5  A    between atoms: C_6  and  C_7
REMARK    6  A    between atoms: C_12  and  C_13
REMARK    7  A    between atoms: C_13  and  C_14
REMARK    8  A    between atoms: C_14  and  N_15
REMARK    9  A    between atoms: C_18  and  C_19
REMARK                            x       y       z     vdW  Elec       q    Type
REMARK                         _______ _______ _______ _____ _____    ______ ____
ROOT
ATOM      1  C   UNL     1       2.608   1.990  -1.500  0.00  0.00    +0.000 A 
ATOM      2  C   UNL     1       1.321   2.111  -2.054  0.00  0.00    +0.000 A 
ATOM      3  C   UNL     1       1.102   2.708  -3.300  0.00  0.00    +0.000 A 
ATOM      4  C   UNL     1       2.195   3.215  -4.002  0.00  0.00    +0.000 A 
ATOM      5  C   UNL     1       3.484   3.089  -3.471  0.00  0.00    +0.000 A 
ATOM      6  C   UNL     1       3.718   2.462  -2.227  0.00  0.00    +0.000 A 
ENDROOT
BRANCH   3   7
ATOM      7  C   UNL     1      -0.304   2.761  -3.795  0.00  0.00    +0.000 C 
ATOM      8  N   UNL     1      -0.550   3.311  -5.021  0.00  0.00    +0.000 N 
ATOM      9  O   UNL     1      -1.238   2.313  -3.137  0.00  0.00    +0.000 OA
ATOM     10  H   UNL     1       0.147   3.670  -5.651  0.00  0.00    +0.000 HD
ATOM     11  H   UNL     1      -1.513   3.294  -5.333  0.00  0.00    +0.000 HD
ENDBRANCH   3   7
BRANCH   1  12
ATOM     12  N   UNL     1       2.769   1.412  -0.229  0.00  0.00    +0.000 N 
ATOM     13  H   UNL     1       3.343   2.008   0.376  0.00  0.00    +0.000 HD
BRANCH  12  15
ATOM     14  C   UNL     1       1.985   0.402   1.883  0.00  0.00    +0.000 C 
ATOM     15  C   UNL     1       1.992   0.460   0.387  0.00  0.00    +0.000 C 
ATOM     16  C   UNL     1       1.592  -0.779  -0.357  0.00  0.00    +0.000 C 
ENDBRANCH  12  15
ENDBRANCH   1  12
BRANCH   6  17
ATOM     17  C   UNL     1       5.184   2.323  -1.820  0.00  0.00    +0.000 C 
BRANCH  17  18
ATOM     18  C   UNL     1       5.592   1.539  -0.559  0.00  0.00    +0.000 C 
BRANCH  18  19
ATOM     19  N   UNL     1       5.191   2.222   0.688  0.00  0.00    +0.000 N 
ATOM     20  C   UNL     1       6.069   3.220   1.142  0.00  0.00    +0.000 A 
ATOM     21  C   UNL     1       5.692   3.956   2.259  0.00  0.00    +0.000 A 
ATOM     22  C   UNL     1       6.577   4.909   2.764  0.00  0.00    +0.000 A 
ATOM     23  C   UNL     1       7.819   5.085   2.164  0.00  0.00    +0.000 A 
ATOM     24  C   UNL     1       8.101   4.328   1.048  0.00  0.00    +0.000 A 
ATOM     25  N   UNL     1       7.248   3.423   0.524  0.00  0.00    +0.000 NA
ATOM     26  H   UNL     1       5.104   1.539   1.441  0.00  0.00    +0.000 HD
BRANCH  22  27
ATOM     27  C   UNL     1       6.247   5.731   3.953  0.00  0.00    +0.000 C 
ATOM     28  N   UNL     1       4.927   5.991   4.191  0.00  0.00    +0.000 N 
ATOM     29  O   UNL     1       7.124   6.191   4.670  0.00  0.00    +0.000 OA
ATOM     30  H   UNL     1       4.209   5.852   3.495  0.00  0.00    +0.000 HD
ATOM     31  H   UNL     1       4.730   6.648   4.937  0.00  0.00    +0.000 HD
ENDBRANCH  22  27
ENDBRANCH  18  19
ENDBRANCH  17  18
ENDBRANCH   6  17
TORSDOF 7
