REMARK  Name = 
REMARK  4 active torsions:
REMARK  status: ('A' for Active; 'I' for Inactive)
REMARK    1  A    between atoms: C_2  and  C_4
REMARK    2  A    between atoms: N_8  and  C_9
REMARK    3  A    between atoms: C_9  and  C_10
REMARK    4  A    between atoms: C_14  and  C_15
REMARK                            x       y       z     vdW  Elec       q    Type
REMARK                         _______ _______ _______ _____ _____    ______ ____
ROOT
ATOM      1  C   UNL     1       6.396   3.402   1.538  0.00  0.00    +0.000 A 
ATOM      2  C   UNL     1       5.606   3.165   2.635  0.00  0.00    +0.000 A 
ATOM      3  N   UNL     1       5.932   2.292   3.609  0.00  0.00    +0.000 NA
ATOM      4  C   UNL     1       7.087   1.620   3.476  0.00  0.00    +0.000 A 
ATOM      5  N   UNL     1       7.509   0.774   4.481  0.00  0.00    +0.000 N 
ATOM      6  N   UNL     1       7.909   1.758   2.427  0.00  0.00    +0.000 NA
ATOM      7  C   UNL     1       7.541   2.644   1.470  0.00  0.00    +0.000 A 
ATOM      8  H   UNL     1       8.275   0.214   4.124  0.00  0.00    +0.000 HD
ENDROOT
BRANCH   1  10
ATOM      9  N   UNL     1       5.262   5.424   0.828  0.00  0.00    +0.000 N 
ATOM     10  C   UNL     1       6.057   4.365   0.485  0.00  0.00    +0.000 C 
ATOM     11  O   UNL     1       6.497   4.241  -0.651  0.00  0.00    +0.000 OA
ATOM     12  H   UNL     1       5.124   6.130   0.111  0.00  0.00    +0.000 HD
ATOM     13  H   UNL     1       5.091   5.706   1.782  0.00  0.00    +0.000 HD
ENDBRANCH   1  10
BRANCH   5  14
ATOM     14  C   UNL     1       6.462   0.023   5.141  0.00  0.00    +0.000 C 
BRANCH  14  15
ATOM     15  C   UNL     1       6.896  -0.331   6.544  0.00  0.00    +0.000 A 
ATOM     16  C   UNL     1       7.309   0.680   7.424  0.00  0.00    +0.000 A 
ATOM     17  C   UNL     1       7.638   0.380   8.740  0.00  0.00    +0.000 A 
ATOM     18  C   UNL     1       7.512  -0.930   9.204  0.00  0.00    +0.000 A 
ATOM     19  C   UNL     1       7.041  -1.962   8.370  0.00  0.00    +0.000 A 
ATOM     20  C   UNL     1       6.782  -1.645   7.023  0.00  0.00    +0.000 A 
BRANCH  19  21
ATOM     21  C   UNL     1       6.730  -3.305   8.902  0.00  0.00    +0.000 A 
ATOM     22  C   UNL     1       6.209  -3.480  10.186  0.00  0.00    +0.000 A 
ATOM     23  C   UNL     1       5.831  -4.751  10.608  0.00  0.00    +0.000 A 
ATOM     24  C   UNL     1       5.983  -5.825   9.744  0.00  0.00    +0.000 A 
ATOM     25  C   UNL     1       6.515  -5.577   8.490  0.00  0.00    +0.000 A 
ATOM     26  N   UNL     1       6.882  -4.350   8.051  0.00  0.00    +0.000 NA
ENDBRANCH  19  21
ENDBRANCH  14  15
ENDBRANCH   5  14
TORSDOF 4
