REMARK  Name = 
REMARK  4 active torsions:
REMARK  status: ('A' for Active; 'I' for Inactive)
REMARK    1  A    between atoms: C_2  and  C_4
REMARK    2  A    between atoms: C_7  and  N_8
REMARK    3  A    between atoms: N_8  and  C_9
REMARK    4  A    between atoms: C_9  and  C_10
REMARK                            x       y       z     vdW  Elec       q    Type
REMARK                         _______ _______ _______ _____ _____    ______ ____
ROOT
ATOM      1  N   UNL     1       5.113   4.358   1.670  0.00  0.00    +0.000 N 
ATOM      2  H   UNL     1       4.291   3.768   1.597  0.00  0.00    +0.000 HD
ENDROOT
BRANCH   1   6
ATOM      3  C   UNL     1       8.470   1.969   1.428  0.00  0.00    +0.000 A 
ATOM      4  C   UNL     1       8.493   3.134   2.177  0.00  0.00    +0.000 A 
ATOM      5  N   UNL     1       7.405   3.943   2.302  0.00  0.00    +0.000 NA
ATOM      6  C   UNL     1       6.286   3.565   1.641  0.00  0.00    +0.000 A 
ATOM      7  C   UNL     1       6.305   2.402   0.855  0.00  0.00    +0.000 A 
ATOM      8  N   UNL     1       7.370   1.569   0.736  0.00  0.00    +0.000 NA
BRANCH   3  10
ATOM      9  N   UNL     1      10.789   1.403   1.877  0.00  0.00    +0.000 NA
ATOM     10  C   UNL     1       9.659   1.070   1.337  0.00  0.00    +0.000 C 
ATOM     11  N   UNL     1       9.543  -0.115   0.661  0.00  0.00    +0.000 N 
ATOM     12  H   UNL     1      11.457   0.640   1.734  0.00  0.00    +0.000 HD
ATOM     13  H   UNL     1      10.367  -0.454   0.188  0.00  0.00    +0.000 HD
ATOM     14  H   UNL     1       8.703  -0.161   0.083  0.00  0.00    +0.000 HD
ENDBRANCH   3  10
ENDBRANCH   1   6
BRANCH   1  15
ATOM     15  C   UNL     1       4.989   5.424   2.697  0.00  0.00    +0.000 C 
ATOM     16  C   UNL     1       4.952   5.038   4.165  0.00  0.00    +0.000 C 
ATOM     17  C   UNL     1       3.692   5.476   3.494  0.00  0.00    +0.000 C 
BRANCH  15  18
ATOM     18  C   UNL     1       5.619   6.749   2.283  0.00  0.00    +0.000 A 
ATOM     19  C   UNL     1       6.898   7.121   2.732  0.00  0.00    +0.000 A 
ATOM     20  C   UNL     1       7.527   8.284   2.281  0.00  0.00    +0.000 A 
ATOM     21  C   UNL     1       6.884   9.112   1.363  0.00  0.00    +0.000 A 
ATOM     22 CL   UNL     1       7.737  10.505   0.801  0.00  0.00    +0.000 Cl
ATOM     23  C   UNL     1       5.600   8.785   0.920  0.00  0.00    +0.000 A 
ATOM     24 CL   UNL     1       4.736   9.763  -0.213  0.00  0.00    +0.000 Cl
ATOM     25  C   UNL     1       4.978   7.617   1.381  0.00  0.00    +0.000 A 
ENDBRANCH  15  18
ENDBRANCH   1  15
TORSDOF 4
