REMARK  Name = 
REMARK  8 active torsions:
REMARK  status: ('A' for Active; 'I' for Inactive)
REMARK    1  A    between atoms: C_1  and  C_2
REMARK    2  A    between atoms: C_2  and  N_3
REMARK    3  A    between atoms: C_2  and  C_17
REMARK    4  A    between atoms: C_4  and  C_6
REMARK    5  A    between atoms: N_12  and  C_13
REMARK    6  A    between atoms: C_20  and  C_21
REMARK    7  A    between atoms: C_21  and  O_22
REMARK    8  A    between atoms: C_21  and  C_23
REMARK                            x       y       z     vdW  Elec       q    Type
REMARK                         _______ _______ _______ _____ _____    ______ ____
ROOT
ATOM      1  C   UNL     1       0.941   0.042   0.039  0.00  0.00    +0.000 C 
ATOM      2  C   UNL     1       2.471   0.009   0.043  0.00  0.00    +0.000 C 
ENDROOT
BRANCH   2   3
ATOM      3  C   UNL     1       3.008  -1.152  -0.775  0.00  0.00    +0.000 A 
ATOM      4  C   UNL     1       3.884  -0.913  -1.842  0.00  0.00    +0.000 A 
ATOM      5  C   UNL     1       4.465  -1.977  -2.538  0.00  0.00    +0.000 A 
ATOM      6  C   UNL     1       4.193  -3.305  -2.176  0.00  0.00    +0.000 A 
ATOM      7  C   UNL     1       3.279  -3.540  -1.140  0.00  0.00    +0.000 A 
ATOM      8  C   UNL     1       2.697  -2.480  -0.446  0.00  0.00    +0.000 A 
BRANCH   6   9
ATOM      9  C   UNL     1       4.851  -4.457  -2.913  0.00  0.00    +0.000 C 
BRANCH   9  10
ATOM     10  C   UNL     1       4.057  -4.893  -4.135  0.00  0.00    +0.000 A 
ATOM     11  C   UNL     1       4.316  -4.331  -5.384  0.00  0.00    +0.000 A 
ATOM     12  C   UNL     1       3.515  -4.698  -6.461  0.00  0.00    +0.000 A 
ATOM     13  C   UNL     1       2.485  -5.610  -6.266  0.00  0.00    +0.000 A 
ATOM     14  C   UNL     1       2.312  -6.145  -5.000  0.00  0.00    +0.000 A 
ATOM     15  N   UNL     1       3.077  -5.821  -3.935  0.00  0.00    +0.000 NA
ENDBRANCH   9  10
BRANCH   9  16
ATOM     16  O   UNL     1       5.004  -5.569  -2.018  0.00  0.00    +0.000 OA
ATOM     17  H   UNL     1       4.312  -6.200  -2.301  0.00  0.00    +0.000 HD
ENDBRANCH   9  16
ENDBRANCH   6   9
ENDBRANCH   2   3
BRANCH   2  18
ATOM     18  N   UNL     1       2.988  -0.100   1.393  0.00  0.00    +0.000 N 
ATOM     19  C   UNL     1       3.248   0.964   2.208  0.00  0.00    +0.000 C 
ATOM     20  O   UNL     1       3.187   2.127   1.822  0.00  0.00    +0.000 OA
ATOM     21  H   UNL     1       2.948  -1.026   1.802  0.00  0.00    +0.000 HD
BRANCH  19  22
ATOM     22  C   UNL     1       3.652   0.627   3.581  0.00  0.00    +0.000 A 
ATOM     23  C   UNL     1       4.447   1.501   4.309  0.00  0.00    +0.000 A 
ATOM     24  S   UNL     1       4.795   0.951   5.886  0.00  0.00    +0.000 S 
ATOM     25  C   UNL     1       3.866  -0.457   5.663  0.00  0.00    +0.000 A 
ATOM     26  N   UNL     1       3.709  -1.357   6.665  0.00  0.00    +0.000 NA
ATOM     27  C   UNL     1       2.958  -2.370   6.367  0.00  0.00    +0.000 A 
ATOM     28  N   UNL     1       2.350  -2.581   5.146  0.00  0.00    +0.000 N 
ATOM     29  C   UNL     1       1.551  -3.763   4.906  0.00  0.00    +0.000 C 
ATOM     30  C   UNL     1       2.522  -1.696   4.086  0.00  0.00    +0.000 A 
ATOM     31  O   UNL     1       2.048  -1.906   2.974  0.00  0.00    +0.000 OA
ATOM     32  C   UNL     1       3.329  -0.527   4.391  0.00  0.00    +0.000 A 
ENDBRANCH  19  22
ENDBRANCH   2  18
TORSDOF 6
