REMARK  Name = 
REMARK  9 active torsions:
REMARK  status: ('A' for Active; 'I' for Inactive)
REMARK    1  A    between atoms: C_1  and  O_2
REMARK    2  A    between atoms: O_2  and  C_3
REMARK    3  A    between atoms: C_10  and  C_11
REMARK    4  A    between atoms: N_13  and  C_14
REMARK    5  A    between atoms: C_14  and  C_15
REMARK    6  A    between atoms: C_18  and  C_19
REMARK    7  A    between atoms: C_19  and  N_20
REMARK    8  A    between atoms: N_20  and  C_21
REMARK    9  A    between atoms: C_21  and  C_22
REMARK                            x       y       z     vdW  Elec       q    Type
REMARK                         _______ _______ _______ _____ _____    ______ ____
ROOT
ATOM      1  C   UNL     1       1.568   2.184  -2.304  0.00  0.00    +0.000 A 
ATOM      2  C   UNL     1       1.565   0.817  -2.610  0.00  0.00    +0.000 A 
ATOM      3  C   UNL     1       0.419   0.205  -3.131  0.00  0.00    +0.000 A 
ATOM      4  C   UNL     1      -0.750   0.944  -3.368  0.00  0.00    +0.000 A 
ATOM      5  C   UNL     1      -0.730   2.320  -3.105  0.00  0.00    +0.000 A 
ATOM      6  C   UNL     1       0.417   2.934  -2.584  0.00  0.00    +0.000 A 
ENDROOT
BRANCH   1   7
ATOM      7  C   UNL     1       2.792   2.845  -1.719  0.00  0.00    +0.000 C 
BRANCH   7  10
ATOM      8  C   UNL     1       4.837   3.986  -2.501  0.00  0.00    +0.000 C 
ATOM      9  O   UNL     1       5.241   4.145  -1.352  0.00  0.00    +0.000 OA
ATOM     10  N   UNL     1       3.646   3.370  -2.758  0.00  0.00    +0.000 N 
ATOM     11  H   UNL     1       3.308   3.297  -3.705  0.00  0.00    +0.000 HD
BRANCH   8  19
ATOM     12  C   UNL     1       4.365   3.779  -5.904  0.00  0.00    +0.000 A 
ATOM     13  N   UNL     1       4.425   3.841  -7.250  0.00  0.00    +0.000 NA
ATOM     14  C   UNL     1       5.485   4.433  -7.802  0.00  0.00    +0.000 A 
ATOM     15  N   UNL     1       6.516   4.987  -7.168  0.00  0.00    +0.000 NA
ATOM     16  C   UNL     1       6.409   4.914  -5.830  0.00  0.00    +0.000 A 
ATOM     17  S   UNL     1       7.635   5.572  -4.855  0.00  0.00    +0.000 S 
ATOM     18  C   UNL     1       6.824   5.108  -3.436  0.00  0.00    +0.000 A 
ATOM     19  C   UNL     1       5.620   4.451  -3.663  0.00  0.00    +0.000 A 
ATOM     20  C   UNL     1       5.375   4.337  -5.101  0.00  0.00    +0.000 A 
BRANCH  12  22
ATOM     21  C   UNL     1       2.626   2.238  -6.185  0.00  0.00    +0.000 C 
ATOM     22  O   UNL     1       3.257   3.191  -5.333  0.00  0.00    +0.000 OA
ENDBRANCH  12  22
ENDBRANCH   8  19
ENDBRANCH   7  10
ENDBRANCH   1   7
BRANCH   4  23
ATOM     23  C   UNL     1      -2.003   0.269  -3.891  0.00  0.00    +0.000 C 
BRANCH  23  24
ATOM     24  N   UNL     1      -2.442  -0.777  -2.971  0.00  0.00    +0.000 NA
ATOM     25  H   UNL     1      -2.623  -0.353  -2.061  0.00  0.00    +0.000 HD
BRANCH  24  26
ATOM     26  C   UNL     1      -3.667  -1.450  -3.423  0.00  0.00    +0.000 C 
BRANCH  26  27
ATOM     27  C   UNL     1      -4.115  -2.520  -2.442  0.00  0.00    +0.000 A 
ATOM     28  C   UNL     1      -3.159  -3.225  -1.683  0.00  0.00    +0.000 A 
ATOM     29  C   UNL     1      -3.539  -4.175  -0.734  0.00  0.00    +0.000 A 
ATOM     30  C   UNL     1      -4.885  -4.463  -0.540  0.00  0.00    +0.000 A 
ATOM     31  C   UNL     1      -5.846  -3.825  -1.322  0.00  0.00    +0.000 A 
ATOM     32  C   UNL     1      -5.466  -2.871  -2.276  0.00  0.00    +0.000 A 
ATOM     33 CL   UNL     1      -6.722  -2.166  -3.232  0.00  0.00    +0.000 Cl
ENDBRANCH  26  27
ENDBRANCH  24  26
ENDBRANCH  23  24
ENDBRANCH   4  23
TORSDOF 8
