REMARK  Name = 
REMARK  11 active torsions:
REMARK  status: ('A' for Active; 'I' for Inactive)
REMARK    1  A    between atoms: C_1  and  N_2
REMARK    2  A    between atoms: N_2  and  C_3
REMARK    3  A    between atoms: N_2  and  C_4
REMARK    4  A    between atoms: C_4  and  C_5
REMARK    5  A    between atoms: C_5  and  N_6
REMARK    6  A    between atoms: C_7  and  C_9
REMARK    7  A    between atoms: C_12  and  O_13
REMARK    8  A    between atoms: O_13  and  C_14
REMARK    9  A    between atoms: C_14  and  C_15
REMARK   10  A    between atoms: C_18  and  C_19
REMARK   11  A    between atoms: C_19  and  N_20
REMARK                            x       y       z     vdW  Elec       q    Type
REMARK                         _______ _______ _______ _____ _____    ______ ____
ROOT
ATOM      1  C   UNL     1       6.720   3.189  -3.006  0.00  0.00    +0.000 A 
ATOM      2  C   UNL     1       6.159   4.469  -3.004  0.00  0.00    +0.000 A 
ATOM      3  C   UNL     1       6.566   5.393  -3.969  0.00  0.00    +0.000 A 
ATOM      4  C   UNL     1       7.504   4.995  -4.909  0.00  0.00    +0.000 A 
ATOM      5  N   UNL     1       8.087   3.779  -4.915  0.00  0.00    +0.000 NA
ATOM      6  C   UNL     1       7.694   2.907  -3.956  0.00  0.00    +0.000 A 
ENDROOT
BRANCH   1   8
ATOM      7  N   UNL     1       5.090   2.195  -1.505  0.00  0.00    +0.000 N 
ATOM      8  C   UNL     1       6.357   2.130  -2.039  0.00  0.00    +0.000 C 
ATOM      9  O   UNL     1       7.162   1.242  -1.774  0.00  0.00    +0.000 OA
ATOM     10  H   UNL     1       4.380   2.781  -1.930  0.00  0.00    +0.000 HD
BRANCH   7  11
ATOM     11  C   UNL     1       4.598   1.148  -0.630  0.00  0.00    +0.000 C 
BRANCH  11  12
ATOM     12  C   UNL     1       3.430   1.639   0.242  0.00  0.00    +0.000 C 
BRANCH  12  14
ATOM     13  C   UNL     1       1.620   1.129  -1.309  0.00  0.00    +0.000 C 
ATOM     14  N   UNL     1       2.275   2.175  -0.517  0.00  0.00    +0.000 NA
ATOM     15  C   UNL     1       1.304   2.745   0.426  0.00  0.00    +0.000 C 
ENDBRANCH  12  14
ENDBRANCH  11  12
ENDBRANCH   7  11
ENDBRANCH   1   8
BRANCH   4  16
ATOM     16  O   UNL     1       7.877   5.920  -5.860  0.00  0.00    +0.000 OA
BRANCH  16  17
ATOM     17  C   UNL     1       8.373   5.280  -7.043  0.00  0.00    +0.000 C 
BRANCH  17  18
ATOM     18  C   UNL     1       8.816   6.327  -8.040  0.00  0.00    +0.000 A 
ATOM     19  C   UNL     1       9.918   7.130  -7.758  0.00  0.00    +0.000 A 
ATOM     20  C   UNL     1      10.325   8.072  -8.699  0.00  0.00    +0.000 A 
ATOM     21  C   UNL     1       9.618   8.217  -9.894  0.00  0.00    +0.000 A 
ATOM     22  C   UNL     1       8.549   7.350 -10.100  0.00  0.00    +0.000 A 
ATOM     23  N   UNL     1       8.131   6.420  -9.209  0.00  0.00    +0.000 NA
BRANCH  21  24
ATOM     24  C   UNL     1      10.007   9.202 -10.960  0.00  0.00    +0.000 C 
BRANCH  24  25
ATOM     25  N   UNL     1      10.574  10.435 -10.419  0.00  0.00    +0.000 NA
ATOM     26  H   UNL     1       9.879  10.880  -9.819  0.00  0.00    +0.000 HD
ATOM     27  H   UNL     1      10.748  11.085 -11.183  0.00  0.00    +0.000 HD
ENDBRANCH  24  25
ENDBRANCH  21  24
ENDBRANCH  17  18
ENDBRANCH  16  17
ENDBRANCH   4  16
TORSDOF 9
