REMARK  Name = 
REMARK  5 active torsions:
REMARK  status: ('A' for Active; 'I' for Inactive)
REMARK    1  A    between atoms: C_2  and  C_4
REMARK    2  A    between atoms: C_7  and  O_8
REMARK    3  A    between atoms: O_8  and  C_9
REMARK    4  A    between atoms: C_9  and  C_10
REMARK    5  A    between atoms: C_14  and  C_15
REMARK                            x       y       z     vdW  Elec       q    Type
REMARK                         _______ _______ _______ _____ _____    ______ ____
ROOT
ATOM      1  C   UNL     1       4.495   4.685  -4.096  0.00  0.00    +0.000 C 
ENDROOT
BRANCH   1   2
ATOM      2  C   UNL     1       5.227   5.369  -5.219  0.00  0.00    +0.000 A 
ATOM      3  C   UNL     1       5.997   4.630  -6.107  0.00  0.00    +0.000 A 
ATOM      4  N   UNL     1       6.648   5.159  -7.163  0.00  0.00    +0.000 NA
ATOM      5  C   UNL     1       6.519   6.495  -7.351  0.00  0.00    +0.000 A 
ATOM      6  C   UNL     1       5.755   7.351  -6.553  0.00  0.00    +0.000 A 
ATOM      7  C   UNL     1       5.101   6.742  -5.470  0.00  0.00    +0.000 A 
BRANCH   6   8
ATOM      8  C   UNL     1       5.629   8.793  -6.833  0.00  0.00    +0.000 A 
ATOM      9  C   UNL     1       5.480   9.745  -5.812  0.00  0.00    +0.000 A 
ATOM     10  C   UNL     1       5.348  11.101  -6.114  0.00  0.00    +0.000 A 
ATOM     11  C   UNL     1       5.376  11.483  -7.441  0.00  0.00    +0.000 A 
ATOM     12  N   UNL     1       5.519  10.616  -8.461  0.00  0.00    +0.000 NA
ATOM     13  C   UNL     1       5.636   9.305  -8.135  0.00  0.00    +0.000 A 
ENDBRANCH   6   8
ENDBRANCH   1   2
BRANCH   1  14
ATOM     14  O   UNL     1       4.376   5.559  -2.969  0.00  0.00    +0.000 OA
BRANCH  14  18
ATOM     15  C   UNL     1       2.503   4.327   0.473  0.00  0.00    +0.000 A 
ATOM     16  C   UNL     1       2.543   3.414  -0.573  0.00  0.00    +0.000 A 
ATOM     17  C   UNL     1       3.162   3.791  -1.764  0.00  0.00    +0.000 A 
ATOM     18  C   UNL     1       3.726   5.058  -1.876  0.00  0.00    +0.000 A 
ATOM     19  C   UNL     1       3.627   5.906  -0.772  0.00  0.00    +0.000 A 
ATOM     20  N   UNL     1       3.028   5.581   0.401  0.00  0.00    +0.000 NA
BRANCH  15  22
ATOM     21  N   UNL     1       1.810   4.900   2.727  0.00  0.00    +0.000 N 
ATOM     22  C   UNL     1       1.860   3.929   1.765  0.00  0.00    +0.000 C 
ATOM     23  O   UNL     1       1.404   2.809   1.956  0.00  0.00    +0.000 OA
ATOM     24  H   UNL     1       1.387   4.692   3.620  0.00  0.00    +0.000 HD
ATOM     25  H   UNL     1       2.184   5.822   2.533  0.00  0.00    +0.000 HD
ENDBRANCH  15  22
ENDBRANCH  14  18
ENDBRANCH   1  14
TORSDOF 5
