REMARK  Name = 
REMARK  5 active torsions:
REMARK  status: ('A' for Active; 'I' for Inactive)
REMARK    1  A    between atoms: N_1  and  C_2
REMARK    2  A    between atoms: C_2  and  C_3
REMARK    3  A    between atoms: C_7  and  C_8
REMARK    4  A    between atoms: C_8  and  N_9
REMARK    5  A    between atoms: C_13  and  C_14
REMARK                            x       y       z     vdW  Elec       q    Type
REMARK                         _______ _______ _______ _____ _____    ______ ____
ROOT
ATOM      1  N   UNL     1       5.703   2.495  -4.870  0.00  0.00    +0.000 N 
ATOM      2  C   UNL     1       6.689   2.230  -5.813  0.00  0.00    +0.000 A 
ATOM      3  N   UNL     1       6.780   1.007  -6.357  0.00  0.00    +0.000 NA
ATOM      4  C   UNL     1       7.771   0.791  -7.248  0.00  0.00    +0.000 A 
ATOM      5  C   UNL     1       8.668   1.756  -7.633  0.00  0.00    +0.000 A 
ATOM      6  C   UNL     1       8.498   2.976  -7.023  0.00  0.00    +0.000 A 
ATOM      7  N   UNL     1       7.525   3.236  -6.116  0.00  0.00    +0.000 NA
ATOM      8  H   UNL     1       6.001   3.308  -4.344  0.00  0.00    +0.000 HD
ENDROOT
BRANCH   5   9
ATOM      9  C   UNL     1       9.730   1.427  -8.594  0.00  0.00    +0.000 C 
ATOM     10  N   UNL     1      10.290   2.445  -9.312  0.00  0.00    +0.000 N 
ATOM     11  O   UNL     1      10.081   0.268  -8.768  0.00  0.00    +0.000 OA
ATOM     12  H   UNL     1       9.886   3.368  -9.392  0.00  0.00    +0.000 HD
ATOM     13  H   UNL     1      10.947   2.167 -10.033  0.00  0.00    +0.000 HD
ENDBRANCH   5   9
BRANCH   1  14
ATOM     14  C   UNL     1       5.380   1.333  -4.064  0.00  0.00    +0.000 C 
BRANCH  14  19
ATOM     15  C   UNL     1       1.993   2.268  -2.544  0.00  0.00    +0.000 A 
ATOM     16  C   UNL     1       2.249   2.043  -1.184  0.00  0.00    +0.000 A 
ATOM     17  C   UNL     1       3.515   1.647  -0.755  0.00  0.00    +0.000 A 
ATOM     18  C   UNL     1       4.538   1.455  -1.682  0.00  0.00    +0.000 A 
ATOM     19  C   UNL     1       4.305   1.653  -3.050  0.00  0.00    +0.000 A 
ATOM     20  C   UNL     1       3.028   2.067  -3.469  0.00  0.00    +0.000 A 
BRANCH  15  21
ATOM     21  C   UNL     1       0.618   2.686  -3.000  0.00  0.00    +0.000 C 
BRANCH  21  22
ATOM     22  N   UNL     1       0.200   3.932  -2.367  0.00  0.00    +0.000 NA
ATOM     23  H   UNL     1      -0.686   4.230  -2.769  0.00  0.00    +0.000 HD
ATOM     24  H   UNL     1       0.881   4.654  -2.598  0.00  0.00    +0.000 HD
ENDBRANCH  21  22
ENDBRANCH  15  21
ENDBRANCH  14  19
ENDBRANCH   1  14
TORSDOF 5
