REMARK  Name = 
REMARK  9 active torsions:
REMARK  status: ('A' for Active; 'I' for Inactive)
REMARK    1  A    between atoms: C_1  and  C_2
REMARK    2  A    between atoms: C_9  and  C_10
REMARK    3  A    between atoms: C_10  and  C_11
REMARK    4  A    between atoms: C_10  and  C_12
REMARK    5  A    between atoms: C_10  and  C_13
REMARK    6  A    between atoms: C_13  and  N_14
REMARK    7  A    between atoms: N_14  and  C_15
REMARK    8  A    between atoms: C_18  and  C_19
REMARK    9  A    between atoms: C_26  and  C_27
REMARK                            x       y       z     vdW  Elec       q    Type
REMARK                         _______ _______ _______ _____ _____    ______ ____
ROOT
ATOM      1  C   UNL     1       2.327   4.684  -4.877  0.00  0.00    +0.000 C 
ATOM      2  C   UNL     1       2.518   5.586  -3.641  0.00  0.00    +0.000 C 
ATOM      3  C   UNL     1       3.698   4.325  -5.490  0.00  0.00    +0.000 C 
ENDROOT
BRANCH   1  12
ATOM      4  C   UNL     1      -3.367   1.801  -2.159  0.00  0.00    +0.000 C 
ATOM      5  C   UNL     1      -3.686   1.496  -3.618  0.00  0.00    +0.000 C 
ATOM      6  C   UNL     1      -2.494   0.911  -4.407  0.00  0.00    +0.000 C 
ATOM      7  N   UNL     1      -1.626   1.962  -4.927  0.00  0.00    +0.000 N 
ATOM      8  C   UNL     1      -0.353   2.134  -4.450  0.00  0.00    +0.000 A 
ATOM      9  N   UNL     1       0.166   1.228  -3.612  0.00  0.00    +0.000 NA
ATOM     10  C   UNL     1       1.424   1.428  -3.183  0.00  0.00    +0.000 A 
ATOM     11  C   UNL     1       2.194   2.503  -3.554  0.00  0.00    +0.000 A 
ATOM     12  C   UNL     1       1.607   3.402  -4.421  0.00  0.00    +0.000 A 
ATOM     13  N   UNL     1       0.344   3.209  -4.860  0.00  0.00    +0.000 NA
ATOM     14  C   UNL     1      -2.305   3.037  -5.642  0.00  0.00    +0.000 C 
ATOM     15  C   UNL     1      -3.447   3.624  -4.790  0.00  0.00    +0.000 C 
ATOM     16  C   UNL     1      -2.968   4.588  -3.708  0.00  0.00    +0.000 C 
ATOM     17  O   UNL     1      -4.324   2.611  -4.267  0.00  0.00    +0.000 OA
ENDBRANCH   1  12
BRANCH   1  18
ATOM     18  C   UNL     1       1.453   5.438  -5.933  0.00  0.00    +0.000 C 
BRANCH  18  19
ATOM     19  N   UNL     1       2.055   6.705  -6.390  0.00  0.00    +0.000 N 
ATOM     20  H   UNL     1       3.019   6.591  -6.692  0.00  0.00    +0.000 HD
BRANCH  19  21
ATOM     21  C   UNL     1       1.345   7.469  -7.332  0.00  0.00    +0.000 A 
ATOM     22  C   UNL     1      -0.050   7.485  -7.420  0.00  0.00    +0.000 A 
ATOM     23  C   UNL     1      -0.710   8.311  -8.339  0.00  0.00    +0.000 A 
ATOM     24  C   UNL     1       0.016   9.170  -9.165  0.00  0.00    +0.000 A 
ATOM     25  C   UNL     1       1.410   9.197  -9.065  0.00  0.00    +0.000 A 
ATOM     26  C   UNL     1       2.059   8.366  -8.142  0.00  0.00    +0.000 A 
BRANCH  24  27
ATOM     27  C   UNL     1      -0.733  10.015 -10.131  0.00  0.00    +0.000 C 
ATOM     28  N   UNL     1      -0.138  11.173 -10.555  0.00  0.00    +0.000 N 
ATOM     29  O   UNL     1      -1.857   9.713 -10.512  0.00  0.00    +0.000 OA
ATOM     30  H   UNL     1       0.655  11.578 -10.082  0.00  0.00    +0.000 HD
ATOM     31  H   UNL     1      -0.717  11.785 -11.114  0.00  0.00    +0.000 HD
ENDBRANCH  24  27
ENDBRANCH  19  21
ENDBRANCH  18  19
ENDBRANCH   1  18
TORSDOF 5
