REMARK  Name = 
REMARK  9 active torsions:
REMARK  status: ('A' for Active; 'I' for Inactive)
REMARK    1  A    between atoms: C_1  and  O_2
REMARK    2  A    between atoms: O_2  and  C_3
REMARK    3  A    between atoms: C_6  and  C_7
REMARK    4  A    between atoms: C_7  and  C_8
REMARK    5  A    between atoms: C_7  and  N_9
REMARK    6  A    between atoms: N_9  and  C_10
REMARK    7  A    between atoms: C_13  and  C_14
REMARK    8  A    between atoms: C_14  and  O_16
REMARK    9  A    between atoms: C_18  and  C_19
REMARK                            x       y       z     vdW  Elec       q    Type
REMARK                         _______ _______ _______ _____ _____    ______ ____
ROOT
ATOM      1  N   UNL     1       4.122   3.798  -4.768  0.00  0.00    +0.000 N 
ATOM      2  H   UNL     1       4.117   4.467  -4.003  0.00  0.00    +0.000 HD
ENDROOT
BRANCH   1   3
ATOM      3  C   UNL     1       4.633   4.446  -5.909  0.00  0.00    +0.000 A 
ATOM      4  N   UNL     1       5.624   3.861  -6.614  0.00  0.00    +0.000 NA
ATOM      5  C   UNL     1       6.066   4.450  -7.756  0.00  0.00    +0.000 A 
ATOM      6  C   UNL     1       5.583   5.650  -8.235  0.00  0.00    +0.000 A 
ATOM      7  C   UNL     1       4.550   6.253  -7.528  0.00  0.00    +0.000 A 
ATOM      8  C   UNL     1       4.072   5.664  -6.341  0.00  0.00    +0.000 A 
ATOM      9  C   UNL     1       2.932   6.341  -5.633  0.00  0.00    +0.000 C 
BRANCH   6  10
ATOM     10  C   UNL     1       6.156   6.201  -9.482  0.00  0.00    +0.000 C 
ATOM     11  O   UNL     1       6.650   5.500 -10.348  0.00  0.00    +0.000 OA
BRANCH  10  12
ATOM     12  O   UNL     1       6.123   7.549  -9.554  0.00  0.00    +0.000 OA
ATOM     13  H   UNL     1       5.874   8.015  -8.735  0.00  0.00    +0.000 HD
ENDBRANCH  10  12
ENDBRANCH   6  10
ENDBRANCH   1   3
BRANCH   1  14
ATOM     14  C   UNL     1       4.794   2.553  -4.344  0.00  0.00    +0.000 C 
ATOM     15  C   UNL     1       4.570   1.394  -5.327  0.00  0.00    +0.000 C 
BRANCH  14  19
ATOM     16  C   UNL     1       3.414   0.789  -0.711  0.00  0.00    +0.000 A 
ATOM     17  C   UNL     1       2.504   1.553  -1.425  0.00  0.00    +0.000 A 
ATOM     18  C   UNL     1       2.936   2.201  -2.583  0.00  0.00    +0.000 A 
ATOM     19  C   UNL     1       4.270   2.077  -2.992  0.00  0.00    +0.000 A 
ATOM     20  C   UNL     1       5.107   1.317  -2.172  0.00  0.00    +0.000 A 
ATOM     21  N   UNL     1       4.717   0.677  -1.048  0.00  0.00    +0.000 NA
BRANCH  16  23
ATOM     22  C   UNL     1       3.881  -0.803   0.935  0.00  0.00    +0.000 C 
ATOM     23  O   UNL     1       2.927   0.101   0.381  0.00  0.00    +0.000 OA
ENDBRANCH  16  23
ENDBRANCH  14  19
ENDBRANCH   1  14
TORSDOF 6
