REMARK  Name = 
REMARK  5 active torsions:
REMARK  status: ('A' for Active; 'I' for Inactive)
REMARK    1  A    between atoms: C_2  and  C_4
REMARK    2  A    between atoms: N_8  and  C_9
REMARK    3  A    between atoms: C_9  and  C_10
REMARK    4  A    between atoms: C_13  and  O_14
REMARK    5  A    between atoms: O_14  and  C_15
REMARK                            x       y       z     vdW  Elec       q    Type
REMARK                         _______ _______ _______ _____ _____    ______ ____
ROOT
ATOM      1  C   UNL     1       3.574  -3.442  -0.727  0.00  0.00    +0.000 A 
ATOM      2  C   UNL     1       2.772  -3.278  -1.842  0.00  0.00    +0.000 A 
ATOM      3  C   UNL     1       3.357  -2.810  -3.018  0.00  0.00    +0.000 A 
ATOM      4  C   UNL     1       4.712  -2.522  -3.050  0.00  0.00    +0.000 A 
ATOM      5  N   UNL     1       5.360  -1.952  -4.150  0.00  0.00    +0.000 N 
ATOM      6  N   UNL     1       5.457  -2.703  -1.931  0.00  0.00    +0.000 NA
ATOM      7  N   UNL     1       4.897  -3.170  -0.759  0.00  0.00    +0.000 NA
ATOM      8  H   UNL     1       6.352  -1.903  -3.923  0.00  0.00    +0.000 HD
ENDROOT
BRANCH   1  10
ATOM      9  N   UNL     1       3.849  -3.956   1.638  0.00  0.00    +0.000 N 
ATOM     10  C   UNL     1       2.999  -3.902   0.567  0.00  0.00    +0.000 C 
ATOM     11  O   UNL     1       1.814  -4.206   0.675  0.00  0.00    +0.000 OA
ATOM     12  H   UNL     1       3.482  -4.233   2.538  0.00  0.00    +0.000 HD
ATOM     13  H   UNL     1       4.813  -3.657   1.561  0.00  0.00    +0.000 HD
ENDBRANCH   1  10
BRANCH   5  14
ATOM     14  C   UNL     1       5.037  -2.193  -5.565  0.00  0.00    +0.000 C 
ATOM     15  C   UNL     1       4.954  -0.922  -6.407  0.00  0.00    +0.000 C 
ATOM     16  C   UNL     1       3.742  -1.774  -6.241  0.00  0.00    +0.000 C 
BRANCH  14  17
ATOM     17  C   UNL     1       5.730  -3.410  -6.172  0.00  0.00    +0.000 A 
ATOM     18  C   UNL     1       5.124  -4.677  -6.134  0.00  0.00    +0.000 A 
ATOM     19  C   UNL     1       5.670  -5.774  -6.811  0.00  0.00    +0.000 A 
ATOM     20  C   UNL     1       6.848  -5.625  -7.538  0.00  0.00    +0.000 A 
ATOM     21  C   UNL     1       7.508  -4.397  -7.523  0.00  0.00    +0.000 A 
ATOM     22  C   UNL     1       6.956  -3.305  -6.850  0.00  0.00    +0.000 A 
BRANCH  20  23
ATOM     23  O   UNL     1       7.458  -6.605  -8.269  0.00  0.00    +0.000 OA
BRANCH  23  24
ATOM     24  C   UNL     1       6.587  -7.561  -8.853  0.00  0.00    +0.000 C 
ATOM     25  F   UNL     1       5.697  -6.931  -9.660  0.00  0.00    +0.000 F 
ATOM     26  F   UNL     1       7.341  -8.355  -9.655  0.00  0.00    +0.000 F 
ENDBRANCH  23  24
ENDBRANCH  20  23
ENDBRANCH  14  17
ENDBRANCH   5  14
TORSDOF 5
