REMARK  Name = 
REMARK  6 active torsions:
REMARK  status: ('A' for Active; 'I' for Inactive)
REMARK    1  A    between atoms: C_2  and  C_25
REMARK    2  A    between atoms: N_3  and  C_4
REMARK    3  A    between atoms: C_4  and  C_5
REMARK    4  A    between atoms: C_8  and  C_9
REMARK    5  A    between atoms: C_9  and  N_10
REMARK    6  A    between atoms: C_11  and  C_13
REMARK                            x       y       z     vdW  Elec       q    Type
REMARK                         _______ _______ _______ _____ _____    ______ ____
ROOT
ATOM      1  C   UNL     1       3.116   2.022  -3.320  0.00  0.00    +0.000 C 
ATOM      2  C   UNL     1       4.482   1.322  -3.204  0.00  0.00    +0.000 C 
ATOM      3  C   UNL     1       5.618   2.078  -3.895  0.00  0.00    +0.000 C 
ATOM      4  C   UNL     1       5.710   3.563  -3.498  0.00  0.00    +0.000 C 
ATOM      5  C   UNL     1       4.340   4.240  -3.659  0.00  0.00    +0.000 C 
ATOM      6  C   UNL     1       3.226   3.501  -2.914  0.00  0.00    +0.000 C 
ENDROOT
BRANCH   1   7
ATOM      7  C   UNL     1       2.495   1.891  -4.724  0.00  0.00    +0.000 C 
BRANCH   7  10
ATOM      8  O   UNL     1       0.120   0.527  -4.093  0.00  0.00    +0.000 OA
ATOM      9  C   UNL     1       0.992  -0.084  -4.704  0.00  0.00    +0.000 C 
ATOM     10  N   UNL     1       2.181   0.519  -5.064  0.00  0.00    +0.000 N 
ATOM     11  H   UNL     1       2.882  -0.041  -5.532  0.00  0.00    +0.000 HD
BRANCH   9  12
ATOM     12  C   UNL     1       0.844  -1.470  -5.099  0.00  0.00    +0.000 A 
ATOM     13  C   UNL     1      -0.274  -2.265  -4.936  0.00  0.00    +0.000 A 
ATOM     14  N   UNL     1      -0.167  -3.564  -5.398  0.00  0.00    +0.000 NA
ATOM     15  C   UNL     1       1.032  -3.741  -5.904  0.00  0.00    +0.000 A 
ATOM     16  S   UNL     1       2.082  -2.386  -5.857  0.00  0.00    +0.000 S 
ENDBRANCH   9  12
ENDBRANCH   7  10
ENDBRANCH   1   7
BRANCH   4  17
ATOM     17  C   UNL     1       6.244   3.788  -2.074  0.00  0.00    +0.000 C 
BRANCH  17  18
ATOM     18  N   UNL     1       7.555   3.225  -1.870  0.00  0.00    +0.000 N 
ATOM     19  C   UNL     1       8.726   3.897  -2.106  0.00  0.00    +0.000 C 
ATOM     20  O   UNL     1       8.766   5.001  -2.641  0.00  0.00    +0.000 OA
ATOM     21  H   UNL     1       7.582   2.373  -1.323  0.00  0.00    +0.000 HD
BRANCH  19  22
ATOM     22  C   UNL     1       9.946   3.180  -1.713  0.00  0.00    +0.000 A 
ATOM     23  C   UNL     1      11.157   3.461  -2.327  0.00  0.00    +0.000 A 
ATOM     24  S   UNL     1      12.447   2.497  -1.760  0.00  0.00    +0.000 S 
ATOM     25  C   UNL     1      11.440   1.708  -0.637  0.00  0.00    +0.000 A 
ATOM     26  N   UNL     1      11.931   0.752   0.198  0.00  0.00    +0.000 NA
ATOM     27  C   UNL     1      11.065   0.270   1.026  0.00  0.00    +0.000 A 
ATOM     28  N   UNL     1       9.752   0.654   1.095  0.00  0.00    +0.000 N 
ATOM     29  C   UNL     1       9.197   1.562   0.229  0.00  0.00    +0.000 A 
ATOM     30  O   UNL     1       7.991   1.788   0.243  0.00  0.00    +0.000 OA
ATOM     31  C   UNL     1      10.135   2.161  -0.705  0.00  0.00    +0.000 A 
ATOM     32  H   UNL     1       9.117   0.220   1.749  0.00  0.00    +0.000 HD
ENDBRANCH  19  22
ENDBRANCH  17  18
ENDBRANCH   4  17
TORSDOF 6
