REMARK  Name = 
REMARK  5 active torsions:
REMARK  status: ('A' for Active; 'I' for Inactive)
REMARK    1  A    between atoms: C_1  and  C_2
REMARK    2  A    between atoms: C_2  and  N_3
REMARK    3  A    between atoms: C_2  and  C_17
REMARK    4  A    between atoms: C_7  and  C_8
REMARK    5  A    between atoms: C_8  and  N_9
REMARK                            x       y       z     vdW  Elec       q    Type
REMARK                         _______ _______ _______ _____ _____    ______ ____
ROOT
ATOM      1  N   UNL     1       1.136  -0.338   0.197  0.00  0.00    +0.000 N 
ATOM      2  C   UNL     1       0.418   0.035   1.310  0.00  0.00    +0.000 A 
ATOM      3  N   UNL     1       1.057   0.291   2.460  0.00  0.00    +0.000 NA
ATOM      4  C   UNL     1       0.313   0.475   3.563  0.00  0.00    +0.000 A 
ATOM      5  C   UNL     1      -1.053   0.337   3.590  0.00  0.00    +0.000 A 
ATOM      6  C   UNL     1      -1.625   0.144   2.352  0.00  0.00    +0.000 A 
ATOM      7  N   UNL     1      -0.917   0.024   1.206  0.00  0.00    +0.000 NA
ATOM      8  H   UNL     1       0.879   0.175  -0.637  0.00  0.00    +0.000 HD
ENDROOT
BRANCH   1  10
ATOM      9  C   UNL     1       2.881  -1.654  -0.846  0.00  0.00    +0.000 C 
ATOM     10  C   UNL     1       2.509  -0.786   0.358  0.00  0.00    +0.000 C 
BRANCH  10  11
ATOM     11  C   UNL     1       3.577   0.226   0.719  0.00  0.00    +0.000 A 
ATOM     12  C   UNL     1       4.633  -0.078   1.567  0.00  0.00    +0.000 A 
ATOM     13  S   UNL     1       5.416   1.314   2.171  0.00  0.00    +0.000 S 
ATOM     14  C   UNL     1       4.446   2.336   1.216  0.00  0.00    +0.000 A 
ATOM     15  N   UNL     1       4.527   3.690   1.317  0.00  0.00    +0.000 NA
ATOM     16  C   UNL     1       3.796   4.324   0.461  0.00  0.00    +0.000 A 
ATOM     17  N   UNL     1       3.029   3.730  -0.512  0.00  0.00    +0.000 N 
ATOM     18  C   UNL     1       2.904   2.363  -0.641  0.00  0.00    +0.000 A 
ATOM     19  O   UNL     1       2.282   1.850  -1.567  0.00  0.00    +0.000 OA
ATOM     20  C   UNL     1       3.629   1.616   0.364  0.00  0.00    +0.000 A 
ATOM     21  H   UNL     1       2.560   4.289  -1.208  0.00  0.00    +0.000 HD
ENDBRANCH  10  11
ENDBRANCH   1  10
BRANCH   5  22
ATOM     22  C   UNL     1      -1.823   0.332   4.869  0.00  0.00    +0.000 C 
BRANCH  22  23
ATOM     23  N   UNL     1      -2.422   1.611   5.151  0.00  0.00    +0.000 N 
ATOM     24  C   UNL     1      -3.677   1.973   4.824  0.00  0.00    +0.000 C 
ATOM     25  N   UNL     1      -4.030   3.206   4.619  0.00  0.00    +0.000 NA
ATOM     26  C   UNL     1      -5.491   3.129   4.348  0.00  0.00    +0.000 C 
ATOM     27  C   UNL     1      -5.880   1.652   4.404  0.00  0.00    +0.000 C 
ATOM     28  N   UNL     1      -4.618   1.000   4.719  0.00  0.00    +0.000 N 
ATOM     29  H   UNL     1      -1.786   2.400   5.109  0.00  0.00    +0.000 HD
ATOM     30  H   UNL     1      -4.645   0.380   5.530  0.00  0.00    +0.000 HD
ENDBRANCH  22  23
ENDBRANCH   5  22
TORSDOF 4
