REMARK  Name = 
REMARK  9 active torsions:
REMARK  status: ('A' for Active; 'I' for Inactive)
REMARK    1  A    between atoms: C_1  and  O_2
REMARK    2  A    between atoms: O_2  and  C_3
REMARK    3  A    between atoms: C_10  and  C_11
REMARK    4  A    between atoms: N_13  and  C_14
REMARK    5  A    between atoms: C_14  and  C_15
REMARK    6  A    between atoms: C_18  and  N_19
REMARK    7  A    between atoms: N_19  and  C_20
REMARK    8  A    between atoms: C_20  and  C_21
REMARK    9  A    between atoms: N_25  and  C_26
REMARK                            x       y       z     vdW  Elec       q    Type
REMARK                         _______ _______ _______ _____ _____    ______ ____
ROOT
ATOM      1  C   UNL     1      -0.083  -3.603  10.890  0.00  0.00    +0.000 C 
ENDROOT
BRANCH   1   2
ATOM      2  C   UNL     1      -0.558  -3.840   9.482  0.00  0.00    +0.000 A 
ATOM      3  C   UNL     1      -0.853  -5.129   9.025  0.00  0.00    +0.000 A 
ATOM      4  C   UNL     1      -1.342  -5.336   7.725  0.00  0.00    +0.000 A 
ATOM      5  C   UNL     1      -1.565  -4.264   6.857  0.00  0.00    +0.000 A 
ATOM      6  C   UNL     1      -1.186  -2.988   7.299  0.00  0.00    +0.000 A 
ATOM      7  C   UNL     1      -0.701  -2.772   8.593  0.00  0.00    +0.000 A 
BRANCH   5   8
ATOM      8  N   UNL     1      -2.005  -4.398   5.537  0.00  0.00    +0.000 N 
ATOM      9  H   UNL     1      -2.415  -3.532   5.197  0.00  0.00    +0.000 HD
BRANCH   8  10
ATOM     10  C   UNL     1      -2.775  -5.575   5.122  0.00  0.00    +0.000 C 
BRANCH  10  11
ATOM     11  C   UNL     1      -3.081  -5.486   3.609  0.00  0.00    +0.000 C 
ATOM     12  C   UNL     1      -1.809  -5.509   2.746  0.00  0.00    +0.000 C 
ATOM     13  C   UNL     1      -1.143  -6.883   2.772  0.00  0.00    +0.000 C 
ATOM     14  C   UNL     1      -2.136  -7.998   2.435  0.00  0.00    +0.000 C 
ATOM     15  N   UNL     1      -3.344  -7.939   3.274  0.00  0.00    +0.000 NA
ATOM     16  C   UNL     1      -4.266  -9.016   2.910  0.00  0.00    +0.000 C 
ATOM     17  C   UNL     1      -4.007  -6.632   3.161  0.00  0.00    +0.000 C 
ENDBRANCH  10  11
ENDBRANCH   8  10
ENDBRANCH   5   8
ENDBRANCH   1   2
BRANCH   1  20
ATOM     18  C   UNL     1       1.975  -3.357  12.186  0.00  0.00    +0.000 C 
ATOM     19  O   UNL     1       1.317  -3.105  13.195  0.00  0.00    +0.000 OA
ATOM     20  N   UNL     1       1.356  -3.610  10.991  0.00  0.00    +0.000 N 
ATOM     21  H   UNL     1       1.893  -3.857  10.169  0.00  0.00    +0.000 HD
BRANCH  18  29
ATOM     22  C   UNL     1       4.421  -3.977   9.832  0.00  0.00    +0.000 A 
ATOM     23  N   UNL     1       5.562  -4.193   9.145  0.00  0.00    +0.000 NA
ATOM     24  C   UNL     1       6.722  -4.083   9.797  0.00  0.00    +0.000 A 
ATOM     25  N   UNL     1       6.891  -3.775  11.079  0.00  0.00    +0.000 NA
ATOM     26  C   UNL     1       5.732  -3.580  11.730  0.00  0.00    +0.000 A 
ATOM     27  S   UNL     1       5.762  -3.177  13.378  0.00  0.00    +0.000 S 
ATOM     28  C   UNL     1       4.068  -3.114  13.441  0.00  0.00    +0.000 A 
ATOM     29  C   UNL     1       3.443  -3.391  12.227  0.00  0.00    +0.000 A 
ATOM     30  C   UNL     1       4.446  -3.666  11.202  0.00  0.00    +0.000 A 
BRANCH  22  32
ATOM     31  C   UNL     1       3.363  -3.914   7.748  0.00  0.00    +0.000 C 
ATOM     32  O   UNL     1       3.223  -4.096   9.157  0.00  0.00    +0.000 OA
ENDBRANCH  22  32
ENDBRANCH  18  29
ENDBRANCH   1  20
TORSDOF 7
