REMARK  Name = 
REMARK  5 active torsions:
REMARK  status: ('A' for Active; 'I' for Inactive)
REMARK    1  A    between atoms: C_2  and  C_4
REMARK    2  A    between atoms: C_8  and  N_9
REMARK    3  A    between atoms: N_9  and  C_10
REMARK    4  A    between atoms: C_10  and  C_11
REMARK    5  A    between atoms: C_15  and  C_16
REMARK                            x       y       z     vdW  Elec       q    Type
REMARK                         _______ _______ _______ _____ _____    ______ ____
ROOT
ATOM      1  C   UNL     1       6.555   0.070  -4.567  0.00  0.00    +0.000 C 
ENDROOT
BRANCH   1   2
ATOM      2  C   UNL     1       7.650  -0.896  -4.987  0.00  0.00    +0.000 A 
ATOM      3  N   UNL     1       8.892  -0.666  -4.522  0.00  0.00    +0.000 NA
ATOM      4  C   UNL     1       9.847  -1.515  -4.931  0.00  0.00    +0.000 A 
ATOM      5  C   UNL     1       9.613  -2.572  -5.778  0.00  0.00    +0.000 A 
ATOM      6  C   UNL     1       8.313  -2.740  -6.218  0.00  0.00    +0.000 A 
ATOM      7  N   UNL     1       7.322  -1.906  -5.825  0.00  0.00    +0.000 NA
BRANCH   6   8
ATOM      8  C   UNL     1       7.917  -3.818  -7.149  0.00  0.00    +0.000 A 
ATOM      9  C   UNL     1       8.812  -4.343  -8.104  0.00  0.00    +0.000 A 
ATOM     10  C   UNL     1       8.431  -5.359  -8.988  0.00  0.00    +0.000 A 
ATOM     11  C   UNL     1       7.139  -5.869  -8.939  0.00  0.00    +0.000 A 
ATOM     12  C   UNL     1       6.243  -5.361  -8.008  0.00  0.00    +0.000 A 
ATOM     13  F   UNL     1       4.996  -5.850  -7.963  0.00  0.00    +0.000 F 
ATOM     14  C   UNL     1       6.617  -4.354  -7.123  0.00  0.00    +0.000 A 
ENDBRANCH   6   8
ENDBRANCH   1   2
BRANCH   1  15
ATOM     15  N   UNL     1       5.849  -0.331  -3.359  0.00  0.00    +0.000 N 
ATOM     16  H   UNL     1       6.305  -0.181  -2.468  0.00  0.00    +0.000 HD
BRANCH  15  21
ATOM     17  C   UNL     1       3.110  -2.131  -2.004  0.00  0.00    +0.000 A 
ATOM     18  C   UNL     1       2.450  -2.669  -3.098  0.00  0.00    +0.000 A 
ATOM     19  C   UNL     1       2.984  -2.432  -4.351  0.00  0.00    +0.000 A 
ATOM     20  C   UNL     1       4.139  -1.661  -4.458  0.00  0.00    +0.000 A 
ATOM     21  C   UNL     1       4.754  -1.147  -3.314  0.00  0.00    +0.000 A 
ATOM     22  N   UNL     1       4.250  -1.382  -2.084  0.00  0.00    +0.000 NA
BRANCH  17  24
ATOM     23  N   UNL     1       3.177  -1.741   0.398  0.00  0.00    +0.000 N 
ATOM     24  C   UNL     1       2.536  -2.362  -0.639  0.00  0.00    +0.000 C 
ATOM     25  O   UNL     1       1.541  -3.052  -0.449  0.00  0.00    +0.000 OA
ATOM     26  H   UNL     1       2.799  -1.831   1.330  0.00  0.00    +0.000 HD
ATOM     27  H   UNL     1       3.950  -1.117   0.208  0.00  0.00    +0.000 HD
ENDBRANCH  17  24
ENDBRANCH  15  21
ENDBRANCH   1  15
TORSDOF 5
