REMARK  Name = 
REMARK  8 active torsions:
REMARK  status: ('A' for Active; 'I' for Inactive)
REMARK    1  A    between atoms: N_1  and  C_2
REMARK    2  A    between atoms: C_2  and  C_3
REMARK    3  A    between atoms: C_7  and  S_8
REMARK    4  A    between atoms: S_8  and  C_9
REMARK    5  A    between atoms: C_9  and  C_10
REMARK    6  A    between atoms: C_10  and  C_11
REMARK    7  A    between atoms: C_14  and  C_15
REMARK    8  A    between atoms: C_15  and  O_17
REMARK                            x       y       z     vdW  Elec       q    Type
REMARK                         _______ _______ _______ _____ _____    ______ ____
ROOT
ATOM      1  C   UNL     1       3.417   1.497   6.450  0.00  0.00    +0.000 C 
ENDROOT
BRANCH   1   2
ATOM      2  S   UNL     1       3.644   0.176   5.210  0.00  0.00    +0.000 S 
BRANCH   2   7
ATOM      3  C   UNL     1       3.622   0.918   1.221  0.00  0.00    +0.000 A 
ATOM      4  C   UNL     1       3.527   2.312   1.143  0.00  0.00    +0.000 A 
ATOM      5  C   UNL     1       3.501   3.082   2.300  0.00  0.00    +0.000 A 
ATOM      6  C   UNL     1       3.554   2.465   3.551  0.00  0.00    +0.000 A 
ATOM      7  C   UNL     1       3.658   1.075   3.661  0.00  0.00    +0.000 A 
ATOM      8  C   UNL     1       3.724   0.313   2.484  0.00  0.00    +0.000 A 
BRANCH   3   9
ATOM      9  C   UNL     1       3.522   0.082  -0.028  0.00  0.00    +0.000 C 
BRANCH   9  10
ATOM     10  N   UNL     1       4.535   0.460  -1.005  0.00  0.00    +0.000 NA
ATOM     11  H   UNL     1       4.506  -0.190  -1.786  0.00  0.00    +0.000 HD
ATOM     12  H   UNL     1       5.454   0.360  -0.575  0.00  0.00    +0.000 HD
ENDBRANCH   9  10
ENDBRANCH   3   9
ENDBRANCH   2   7
ENDBRANCH   1   2
BRANCH   1  13
ATOM     13  C   UNL     1       3.353   0.903   7.855  0.00  0.00    +0.000 C 
BRANCH  13  14
ATOM     14  C   UNL     1       3.161   1.980   8.899  0.00  0.00    +0.000 A 
ATOM     15  C   UNL     1       1.871   2.396   9.260  0.00  0.00    +0.000 A 
ATOM     16  C   UNL     1       1.680   3.381  10.239  0.00  0.00    +0.000 A 
ATOM     17  C   UNL     1       2.786   3.966  10.866  0.00  0.00    +0.000 A 
ATOM     18  C   UNL     1       4.077   3.549  10.506  0.00  0.00    +0.000 A 
ATOM     19  C   UNL     1       4.264   2.578   9.519  0.00  0.00    +0.000 A 
BRANCH  17  20
ATOM     20  C   UNL     1       2.673   4.984  11.945  0.00  0.00    +0.000 C 
ATOM     21  O   UNL     1       3.526   5.106  12.818  0.00  0.00    +0.000 OA
BRANCH  20  22
ATOM     22  O   UNL     1       1.603   5.796  11.870  0.00  0.00    +0.000 OA
ATOM     23  H   UNL     1       1.045   5.695  11.080  0.00  0.00    +0.000 HD
ENDBRANCH  20  22
ENDBRANCH  17  20
ENDBRANCH  13  14
ENDBRANCH   1  13
TORSDOF 8
