REMARK  Name = 
REMARK  2 active torsions:
REMARK  status: ('A' for Active; 'I' for Inactive)
REMARK    1  A    between atoms: C_7  and  C_8
REMARK    2  A    between atoms: C_8  and  N_9
REMARK                            x       y       z     vdW  Elec       q    Type
REMARK                         _______ _______ _______ _____ _____    ______ ____
ROOT
ATOM      1  N   UNL     1       1.015   0.235  -0.364  0.00  0.00    +0.000 NA
ATOM      2  C   UNL     1       2.247  -0.018  -0.092  0.00  0.00    +0.000 C 
ATOM      3  N   UNL     1       2.765   0.293   1.117  0.00  0.00    +0.000 N 
ATOM      4  N   UNL     1       3.132  -0.556  -0.983  0.00  0.00    +0.000 N 
ATOM      5  C   UNL     1       4.252  -1.408  -0.570  0.00  0.00    +0.000 C 
ATOM      6  C   UNL     1       5.459  -1.063  -1.434  0.00  0.00    +0.000 C 
ATOM      7  C   UNL     1       5.172  -1.293  -2.928  0.00  0.00    +0.000 C 
ATOM      8  C   UNL     1       3.893  -0.529  -3.323  0.00  0.00    +0.000 C 
ATOM      9  C   UNL     1       2.713  -0.778  -2.375  0.00  0.00    +0.000 C 
ATOM     10  H   UNL     1       0.557   0.626   0.459  0.00  0.00    +0.000 HD
ATOM     11  H   UNL     1       2.205   0.928   1.670  0.00  0.00    +0.000 HD
ATOM     12  H   UNL     1       3.719   0.627   1.050  0.00  0.00    +0.000 HD
ENDROOT
BRANCH   7  13
ATOM     13  C   UNL     1       5.081  -2.788  -3.312  0.00  0.00    +0.000 C 
BRANCH  13  14
ATOM     14  N   UNL     1       6.284  -3.548  -2.992  0.00  0.00    +0.000 N 
ATOM     15  C   UNL     1       7.518  -3.284  -3.536  0.00  0.00    +0.000 A 
ATOM     16  C   UNL     1       8.437  -4.106  -2.927  0.00  0.00    +0.000 A 
ATOM     17  C   UNL     1       7.736  -4.932  -2.009  0.00  0.00    +0.000 A 
ATOM     18  C   UNL     1       8.140  -5.944  -1.115  0.00  0.00    +0.000 A 
ATOM     19  C   UNL     1       7.180  -6.612  -0.349  0.00  0.00    +0.000 A 
ATOM     20  C   UNL     1       5.832  -6.292  -0.475  0.00  0.00    +0.000 A 
ATOM     21  C   UNL     1       5.407  -5.282  -1.345  0.00  0.00    +0.000 A 
ATOM     22  C   UNL     1       6.379  -4.598  -2.096  0.00  0.00    +0.000 A 
ENDBRANCH  13  14
ENDBRANCH   7  13
TORSDOF 2
