REMARK  Name = 
REMARK  8 active torsions:
REMARK  status: ('A' for Active; 'I' for Inactive)
REMARK    1  A    between atoms: C_1  and  C_2
REMARK    2  A    between atoms: C_2  and  C_3
REMARK    3  A    between atoms: C_2  and  C_4
REMARK    4  A    between atoms: N_6  and  C_7
REMARK    5  A    between atoms: C_11  and  C_12
REMARK    6  A    between atoms: C_13  and  O_14
REMARK    7  A    between atoms: O_14  and  C_15
REMARK    8  A    between atoms: C_18  and  C_19
REMARK                            x       y       z     vdW  Elec       q    Type
REMARK                         _______ _______ _______ _____ _____    ______ ____
ROOT
ATOM      1  C   UNL     1       3.625  -4.649  -0.729  0.00  0.00    +0.000 A 
ATOM      2  C   UNL     1       4.848  -4.302  -1.317  0.00  0.00    +0.000 A 
ATOM      3  C   UNL     1       5.595  -5.219  -2.062  0.00  0.00    +0.000 A 
ATOM      4  C   UNL     1       5.139  -6.523  -2.224  0.00  0.00    +0.000 A 
ATOM      5  C   UNL     1       3.929  -6.920  -1.650  0.00  0.00    +0.000 A 
ATOM      6  C   UNL     1       3.190  -5.975  -0.917  0.00  0.00    +0.000 A 
ENDROOT
BRANCH   1   9
ATOM      7  C   UNL     1       0.640  -3.474   0.984  0.00  0.00    +0.000 C 
ATOM      8  C   UNL     1       2.042  -4.114   1.135  0.00  0.00    +0.000 C 
ATOM      9  N   UNL     1       2.869  -3.738  -0.024  0.00  0.00    +0.000 N 
ATOM     10  C   UNL     1       2.965  -2.284  -0.215  0.00  0.00    +0.000 C 
ATOM     11  C   UNL     1       1.542  -1.713  -0.326  0.00  0.00    +0.000 C 
ATOM     12  O   UNL     1       0.748  -2.041   0.828  0.00  0.00    +0.000 OA
BRANCH   7  14
ATOM     13  C   UNL     1       0.259  -3.250   3.512  0.00  0.00    +0.000 C 
ATOM     14  C   UNL     1      -0.284  -3.785   2.183  0.00  0.00    +0.000 C 
ATOM     15  C   UNL     1      -1.685  -3.211   1.945  0.00  0.00    +0.000 C 
ENDBRANCH   7  14
ENDBRANCH   1   9
BRANCH   5  16
ATOM     16  C   UNL     1       3.448  -8.309  -1.717  0.00  0.00    +0.000 C 
ATOM     17  C   UNL     1       3.664  -9.124  -2.756  0.00  0.00    +0.000 C 
BRANCH  17  18
ATOM     18  O   UNL     1       3.244 -10.437  -2.776  0.00  0.00    +0.000 OA
BRANCH  18  19
ATOM     19  C   UNL     1       2.997 -10.976  -4.026  0.00  0.00    +0.000 A 
ATOM     20  C   UNL     1       3.204 -12.336  -4.226  0.00  0.00    +0.000 A 
ATOM     21  N   UNL     1       2.956 -12.954  -5.413  0.00  0.00    +0.000 NA
ATOM     22  C   UNL     1       2.467 -12.129  -6.386  0.00  0.00    +0.000 A 
ATOM     23  C   UNL     1       2.250 -10.774  -6.183  0.00  0.00    +0.000 A 
ATOM     24  N   UNL     1       2.513 -10.167  -5.000  0.00  0.00    +0.000 NA
BRANCH  22  25
ATOM     25  C   UNL     1       2.162 -12.713  -7.720  0.00  0.00    +0.000 C 
ATOM     26  N   UNL     1       2.409 -14.047  -7.867  0.00  0.00    +0.000 N 
ATOM     27  O   UNL     1       1.703 -12.042  -8.638  0.00  0.00    +0.000 OA
ATOM     28  H   UNL     1       2.789 -14.586  -7.098  0.00  0.00    +0.000 HD
ATOM     29  H   UNL     1       2.219 -14.491  -8.756  0.00  0.00    +0.000 HD
ENDBRANCH  22  25
ENDBRANCH  18  19
ENDBRANCH  17  18
ENDBRANCH   5  16
TORSDOF 6
