REMARK  Name = 
REMARK  4 active torsions:
REMARK  status: ('A' for Active; 'I' for Inactive)
REMARK    1  A    between atoms: C_2  and  C_4
REMARK    2  A    between atoms: C_7  and  N_8
REMARK    3  A    between atoms: N_8  and  C_9
REMARK    4  A    between atoms: C_9  and  C_10
REMARK                            x       y       z     vdW  Elec       q    Type
REMARK                         _______ _______ _______ _____ _____    ______ ____
ROOT
ATOM      1  C   UNL     1       2.897   1.441  -0.708  0.00  0.00    +0.000 A 
ATOM      2  C   UNL     1       4.261   1.212  -0.682  0.00  0.00    +0.000 A 
ATOM      3  N   UNL     1       5.167   2.198  -0.919  0.00  0.00    +0.000 NA
ATOM      4  C   UNL     1       4.680   3.437  -1.136  0.00  0.00    +0.000 A 
ATOM      5  C   UNL     1       3.294   3.637  -1.186  0.00  0.00    +0.000 A 
ATOM      6  N   UNL     1       2.369   2.666  -0.976  0.00  0.00    +0.000 NA
ENDROOT
BRANCH   1   8
ATOM      7  N   UNL     1       0.617   0.665  -0.553  0.00  0.00    +0.000 N 
ATOM      8  C   UNL     1       1.940   0.331  -0.455  0.00  0.00    +0.000 C 
ATOM      9  O   UNL     1       2.306  -0.804  -0.182  0.00  0.00    +0.000 OA
ATOM     10  H   UNL     1      -0.090  -0.041  -0.408  0.00  0.00    +0.000 HD
ATOM     11  H   UNL     1       0.353   1.616  -0.787  0.00  0.00    +0.000 HD
ENDBRANCH   1   8
BRANCH   4  12
ATOM     12  N   UNL     1       5.625   4.430  -1.364  0.00  0.00    +0.000 N 
ATOM     13  H   UNL     1       5.989   4.328  -2.308  0.00  0.00    +0.000 HD
BRANCH  12  14
ATOM     14  C   UNL     1       5.247   5.805  -1.068  0.00  0.00    +0.000 C 
BRANCH  14  15
ATOM     15  C   UNL     1       6.455   6.695  -0.880  0.00  0.00    +0.000 A 
ATOM     16  C   UNL     1       6.341   8.069  -1.143  0.00  0.00    +0.000 A 
ATOM     17  C   UNL     1       7.406   8.934  -0.888  0.00  0.00    +0.000 A 
ATOM     18  C   UNL     1       8.597   8.438  -0.364  0.00  0.00    +0.000 A 
ATOM     19  C   UNL     1       8.723   7.079  -0.091  0.00  0.00    +0.000 A 
ATOM     20  C   UNL     1       7.655   6.212  -0.341  0.00  0.00    +0.000 A 
ENDBRANCH  14  15
ENDBRANCH  12  14
ENDBRANCH   4  12
TORSDOF 4
