REMARK  Name = 
REMARK  8 active torsions:
REMARK  status: ('A' for Active; 'I' for Inactive)
REMARK    1  A    between atoms: C_1  and  C_2
REMARK    2  A    between atoms: C_2  and  C_3
REMARK    3  A    between atoms: C_2  and  C_4
REMARK    4  A    between atoms: C_2  and  C_5
REMARK    5  A    between atoms: N_7  and  C_8
REMARK    6  A    between atoms: C_8  and  C_9
REMARK    7  A    between atoms: C_12  and  C_13
REMARK    8  A    between atoms: C_22  and  C_23
REMARK                            x       y       z     vdW  Elec       q    Type
REMARK                         _______ _______ _______ _____ _____    ______ ____
ROOT
ATOM      1  C   UNL     1       2.869  -1.347  -0.433  0.00  0.00    +0.000 A 
ATOM      2  C   UNL     1       2.432  -2.608  -0.052  0.00  0.00    +0.000 A 
ATOM      3  N   UNL     1       3.075  -3.559  -0.804  0.00  0.00    +0.000 N 
ATOM      4  C   UNL     1       3.919  -2.945  -1.689  0.00  0.00    +0.000 A 
ATOM      5  N   UNL     1       4.686  -3.582  -2.596  0.00  0.00    +0.000 NA
ATOM      6  C   UNL     1       5.463  -2.745  -3.328  0.00  0.00    +0.000 A 
ATOM      7  C   UNL     1       5.510  -1.360  -3.206  0.00  0.00    +0.000 A 
ATOM      8  C   UNL     1       4.671  -0.752  -2.267  0.00  0.00    +0.000 A 
ATOM      9  C   UNL     1       3.841  -1.571  -1.472  0.00  0.00    +0.000 A 
ENDROOT
BRANCH   7  10
ATOM     10  C   UNL     1       6.449  -0.611  -4.076  0.00  0.00    +0.000 C 
ATOM     11  N   UNL     1       6.552   0.743  -3.919  0.00  0.00    +0.000 N 
ATOM     12  O   UNL     1       7.135  -1.185  -4.914  0.00  0.00    +0.000 OA
ATOM     13  H   UNL     1       6.073   1.291  -3.223  0.00  0.00    +0.000 HD
ATOM     14  H   UNL     1       7.226   1.219  -4.507  0.00  0.00    +0.000 HD
ENDBRANCH   7  10
BRANCH   1  16
ATOM     15  C   UNL     1       1.334  -0.213   1.246  0.00  0.00    +0.000 C 
ATOM     16  C   UNL     1       2.397  -0.010   0.140  0.00  0.00    +0.000 C 
ATOM     17  C   UNL     1       1.752   0.856  -0.962  0.00  0.00    +0.000 C 
ATOM     18  C   UNL     1       3.575   0.760   0.770  0.00  0.00    +0.000 C 
ENDBRANCH   1  16
BRANCH   3  19
ATOM     19  C   UNL     1       2.842  -4.993  -0.706  0.00  0.00    +0.000 C 
BRANCH  19  20
ATOM     20  C   UNL     1       3.743  -5.630   0.316  0.00  0.00    +0.000 A 
ATOM     21  N   UNL     1       3.345  -5.541   1.625  0.00  0.00    +0.000 NA
ATOM     22  C   UNL     1       4.170  -6.102   2.547  0.00  0.00    +0.000 A 
ATOM     23  C   UNL     1       5.349  -6.731   2.188  0.00  0.00    +0.000 A 
ATOM     24  N   UNL     1       5.754  -6.850   0.896  0.00  0.00    +0.000 NA
ATOM     25  C   UNL     1       4.928  -6.290  -0.020  0.00  0.00    +0.000 A 
ATOM     26 CL   UNL     1       5.460  -6.574  -1.626  0.00  0.00    +0.000 Cl
BRANCH  23  27
ATOM     27  C   UNL     1       6.234  -7.314   3.232  0.00  0.00    +0.000 C 
ATOM     28  N   UNL     1       7.393  -7.881   2.772  0.00  0.00    +0.000 N 
ATOM     29  O   UNL     1       5.950  -7.285   4.421  0.00  0.00    +0.000 OA
ATOM     30  H   UNL     1       7.603  -7.877   1.779  0.00  0.00    +0.000 HD
ATOM     31  H   UNL     1       8.050  -8.281   3.426  0.00  0.00    +0.000 HD
ENDBRANCH  23  27
ENDBRANCH  19  20
ENDBRANCH   3  19
TORSDOF 5
