REMARK  Name = 
REMARK  6 active torsions:
REMARK  status: ('A' for Active; 'I' for Inactive)
REMARK    1  A    between atoms: C_2  and  C_25
REMARK    2  A    between atoms: N_3  and  C_4
REMARK    3  A    between atoms: C_4  and  C_5
REMARK    4  A    between atoms: C_8  and  C_9
REMARK    5  A    between atoms: C_9  and  N_10
REMARK    6  A    between atoms: C_11  and  C_13
REMARK                            x       y       z     vdW  Elec       q    Type
REMARK                         _______ _______ _______ _____ _____    ______ ____
ROOT
ATOM      1  C   UNL     1       3.255   3.419   1.493  0.00  0.00    +0.000 A 
ATOM      2  C   UNL     1       2.881   4.750   1.307  0.00  0.00    +0.000 A 
ATOM      3  C   UNL     1       3.722   5.778   1.728  0.00  0.00    +0.000 A 
ATOM      4  C   UNL     1       4.925   5.453   2.349  0.00  0.00    +0.000 A 
ATOM      5  N   UNL     1       5.315   4.166   2.536  0.00  0.00    +0.000 NA
ATOM      6  C   UNL     1       4.477   3.187   2.112  0.00  0.00    +0.000 A 
ENDROOT
BRANCH   1   7
ATOM      7  C   UNL     1       2.367   2.301   1.041  0.00  0.00    +0.000 C 
BRANCH   7  10
ATOM      8  O   UNL     1       0.469   0.286   0.703  0.00  0.00    +0.000 OA
ATOM      9  C   UNL     1       0.554   0.841   1.794  0.00  0.00    +0.000 C 
ATOM     10  N   UNL     1       1.449   1.858   2.058  0.00  0.00    +0.000 N 
ATOM     11  H   UNL     1       1.431   2.271   2.987  0.00  0.00    +0.000 HD
BRANCH   9  12
ATOM     12  C   UNL     1      -0.323   0.444   2.939  0.00  0.00    +0.000 A 
ATOM     13  C   UNL     1      -1.231  -0.596   2.769  0.00  0.00    +0.000 A 
ATOM     14  C   UNL     1      -2.050  -0.936   3.840  0.00  0.00    +0.000 A 
ATOM     15  C   UNL     1      -1.942  -0.222   5.030  0.00  0.00    +0.000 A 
ATOM     16  C   UNL     1      -1.003   0.797   5.110  0.00  0.00    +0.000 A 
ATOM     17  N   UNL     1      -0.181   1.149   4.096  0.00  0.00    +0.000 NA
ENDBRANCH   9  12
ENDBRANCH   7  10
ENDBRANCH   1   7
BRANCH   4  18
ATOM     18  C   UNL     1       5.841   6.542   2.861  0.00  0.00    +0.000 C 
BRANCH  18  19
ATOM     19  N   UNL     1       6.814   6.966   1.883  0.00  0.00    +0.000 N 
ATOM     20  C   UNL     1       6.627   8.050   1.071  0.00  0.00    +0.000 C 
ATOM     21  O   UNL     1       5.600   8.725   1.102  0.00  0.00    +0.000 OA
ATOM     22  H   UNL     1       7.516   6.274   1.636  0.00  0.00    +0.000 HD
BRANCH  20  23
ATOM     23  C   UNL     1       7.759   8.410   0.209  0.00  0.00    +0.000 A 
ATOM     24  C   UNL     1       7.929   9.724  -0.203  0.00  0.00    +0.000 A 
ATOM     25  S   UNL     1       9.316   9.960  -1.169  0.00  0.00    +0.000 S 
ATOM     26  C   UNL     1       9.714   8.306  -1.105  0.00  0.00    +0.000 A 
ATOM     27  N   UNL     1      10.796   7.814  -1.764  0.00  0.00    +0.000 NA
ATOM     28  C   UNL     1      10.957   6.539  -1.650  0.00  0.00    +0.000 A 
ATOM     29  N   UNL     1      10.140   5.707  -0.925  0.00  0.00    +0.000 N 
ATOM     30  C   UNL     1       9.078   6.168  -0.193  0.00  0.00    +0.000 A 
ATOM     31  O   UNL     1       8.434   5.418   0.531  0.00  0.00    +0.000 OA
ATOM     32  C   UNL     1       8.819   7.591  -0.325  0.00  0.00    +0.000 A 
ATOM     33  H   UNL     1      10.336   4.723  -0.852  0.00  0.00    +0.000 HD
ENDBRANCH  20  23
ENDBRANCH  18  19
ENDBRANCH   4  18
TORSDOF 6
