REMARK  Name = 
REMARK  8 active torsions:
REMARK  status: ('A' for Active; 'I' for Inactive)
REMARK    1  A    between atoms: C_1  and  C_2
REMARK    2  A    between atoms: C_2  and  N_3
REMARK    3  A    between atoms: C_2  and  C_19
REMARK    4  A    between atoms: N_3  and  C_4
REMARK    5  A    between atoms: C_7  and  C_8
REMARK    6  A    between atoms: C_8  and  N_9
REMARK    7  A    between atoms: N_9  and  C_10
REMARK    8  A    between atoms: C_13  and  N_14
REMARK                            x       y       z     vdW  Elec       q    Type
REMARK                         _______ _______ _______ _____ _____    ______ ____
ROOT
ATOM      1  C   UNL     1       2.694   1.731   1.631  0.00  0.00    +0.000 A 
ATOM      2  C   UNL     1       1.367   2.029   1.899  0.00  0.00    +0.000 A 
ATOM      3  N   UNL     1       0.944   3.015   2.716  0.00  0.00    +0.000 NA
ATOM      4  C   UNL     1       1.913   3.734   3.314  0.00  0.00    +0.000 A 
ATOM      5  N   UNL     1       3.226   3.432   3.265  0.00  0.00    +0.000 NA
ATOM      6  C   UNL     1       3.578   2.423   2.435  0.00  0.00    +0.000 A 
ENDROOT
BRANCH   1   7
ATOM      7  N   UNL     1       3.131   0.912   0.604  0.00  0.00    +0.000 N 
ATOM      8  H   UNL     1       3.618   0.045   0.820  0.00  0.00    +0.000 HD
BRANCH   7  10
ATOM      9  C   UNL     1       1.482  -0.127  -0.909  0.00  0.00    +0.000 C 
ATOM     10  C   UNL     1       2.486   1.021  -0.698  0.00  0.00    +0.000 C 
BRANCH  10  11
ATOM     11  C   UNL     1       3.406   1.153  -1.889  0.00  0.00    +0.000 A 
ATOM     12  C   UNL     1       3.562   2.318  -2.625  0.00  0.00    +0.000 A 
ATOM     13  S   UNL     1       4.302   2.036  -4.143  0.00  0.00    +0.000 S 
ATOM     14  C   UNL     1       4.532   0.387  -3.783  0.00  0.00    +0.000 A 
ATOM     15  N   UNL     1       4.994  -0.498  -4.708  0.00  0.00    +0.000 NA
ATOM     16  C   UNL     1       5.159  -1.697  -4.253  0.00  0.00    +0.000 A 
ATOM     17  N   UNL     1       4.956  -2.081  -2.947  0.00  0.00    +0.000 N 
ATOM     18  C   UNL     1       4.515  -1.214  -1.978  0.00  0.00    +0.000 A 
ATOM     19  O   UNL     1       4.435  -1.541  -0.796  0.00  0.00    +0.000 OA
ATOM     20  C   UNL     1       4.184   0.102  -2.480  0.00  0.00    +0.000 A 
ATOM     21  H   UNL     1       5.197  -3.011  -2.642  0.00  0.00    +0.000 HD
ENDBRANCH  10  11
ENDBRANCH   7  10
ENDBRANCH   1   7
BRANCH   4  22
ATOM     22  C   UNL     1       1.518   5.088   3.882  0.00  0.00    +0.000 C 
BRANCH  22  23
ATOM     23  N   UNL     1       0.439   5.094   4.885  0.00  0.00    +0.000 NA
ATOM     24  H   UNL     1      -0.347   4.583   4.477  0.00  0.00    +0.000 HD
BRANCH  23  25
ATOM     25  C   UNL     1       0.799   4.473   6.166  0.00  0.00    +0.000 C 
ATOM     26  C   UNL     1       2.037   5.120   6.810  0.00  0.00    +0.000 C 
ATOM     27  C   UNL     1       2.288   4.603   8.228  0.00  0.00    +0.000 C 
ATOM     28  C   UNL     1       1.068   4.759   9.139  0.00  0.00    +0.000 C 
ATOM     29  C   UNL     1      -0.155   4.089   8.499  0.00  0.00    +0.000 C 
ATOM     30  C   UNL     1      -0.434   4.584   7.080  0.00  0.00    +0.000 C 
BRANCH  28  31
ATOM     31  N   UNL     1       0.796   6.167   9.425  0.00  0.00    +0.000 NA
ATOM     32  H   UNL     1       0.522   6.662   8.574  0.00  0.00    +0.000 HD
ATOM     33  H   UNL     1       1.644   6.620   9.747  0.00  0.00    +0.000 HD
ENDBRANCH  28  31
ENDBRANCH  23  25
ENDBRANCH  22  23
ENDBRANCH   4  22
TORSDOF 7
