REMARK  Name = 
REMARK  7 active torsions:
REMARK  status: ('A' for Active; 'I' for Inactive)
REMARK    1  A    between atoms: C_1  and  C_2
REMARK    2  A    between atoms: C_2  and  N_3
REMARK    3  A    between atoms: C_2  and  C_16
REMARK    4  A    between atoms: C_4  and  C_6
REMARK    5  A    between atoms: C_19  and  C_20
REMARK    6  A    between atoms: C_20  and  O_21
REMARK    7  A    between atoms: C_20  and  C_22
REMARK                            x       y       z     vdW  Elec       q    Type
REMARK                         _______ _______ _______ _____ _____    ______ ____
ROOT
ATOM      1  C   UNL     1       3.265   0.070  -1.246  0.00  0.00    +0.000 C 
ATOM      2  C   UNL     1       2.375   0.078   0.004  0.00  0.00    +0.000 C 
ENDROOT
BRANCH   2   3
ATOM      3  C   UNL     1       2.804  -1.035   0.950  0.00  0.00    +0.000 A 
ATOM      4  C   UNL     1       3.275  -0.756   2.239  0.00  0.00    +0.000 A 
ATOM      5  C   UNL     1       3.579  -1.797   3.128  0.00  0.00    +0.000 A 
ATOM      6  C   UNL     1       3.409  -3.139   2.749  0.00  0.00    +0.000 A 
ATOM      7  C   UNL     1       2.997  -3.411   1.437  0.00  0.00    +0.000 A 
ATOM      8  C   UNL     1       2.690  -2.377   0.555  0.00  0.00    +0.000 A 
BRANCH   6   9
ATOM      9  C   UNL     1       3.659  -4.268   3.734  0.00  0.00    +0.000 C 
BRANCH   9  10
ATOM     10  C   UNL     1       5.106  -4.738   3.767  0.00  0.00    +0.000 A 
ATOM     11  C   UNL     1       6.010  -4.178   4.668  0.00  0.00    +0.000 A 
ATOM     12  C   UNL     1       7.331  -4.612   4.650  0.00  0.00    +0.000 A 
ATOM     13  C   UNL     1       7.715  -5.590   3.740  0.00  0.00    +0.000 A 
ATOM     14  C   UNL     1       6.753  -6.113   2.893  0.00  0.00    +0.000 A 
ATOM     15  N   UNL     1       5.459  -5.721   2.890  0.00  0.00    +0.000 NA
ENDBRANCH   9  10
BRANCH   9  16
ATOM     16  O   UNL     1       2.806  -5.378   3.405  0.00  0.00    +0.000 OA
ATOM     17  H   UNL     1       3.409  -6.021   2.980  0.00  0.00    +0.000 HD
ENDBRANCH   9  16
ENDBRANCH   6   9
ENDBRANCH   2   3
BRANCH   2  18
ATOM     18  N   UNL     1       0.960  -0.092  -0.302  0.00  0.00    +0.000 N 
ATOM     19  C   UNL     1       0.247   0.759  -1.108  0.00  0.00    +0.000 C 
ATOM     20  O   UNL     1       0.759   1.718  -1.677  0.00  0.00    +0.000 OA
ATOM     21  H   UNL     1       0.436  -0.661   0.357  0.00  0.00    +0.000 HD
BRANCH  19  22
ATOM     22  C   UNL     1      -1.168   0.426  -1.318  0.00  0.00    +0.000 A 
ATOM     23  C   UNL     1      -1.793   0.804  -2.499  0.00  0.00    +0.000 A 
ATOM     24  S   UNL     1      -3.433   0.346  -2.583  0.00  0.00    +0.000 S 
ATOM     25  C   UNL     1      -3.382  -0.339  -1.028  0.00  0.00    +0.000 A 
ATOM     26  N   UNL     1      -4.489  -0.883  -0.461  0.00  0.00    +0.000 NA
ATOM     27  C   UNL     1      -4.309  -1.345   0.733  0.00  0.00    +0.000 A 
ATOM     28  N   UNL     1      -3.113  -1.327   1.400  0.00  0.00    +0.000 N 
ATOM     29  C   UNL     1      -1.959  -0.813   0.860  0.00  0.00    +0.000 A 
ATOM     30  O   UNL     1      -0.890  -0.851   1.465  0.00  0.00    +0.000 OA
ATOM     31  C   UNL     1      -2.115  -0.256  -0.469  0.00  0.00    +0.000 A 
ATOM     32  H   UNL     1      -3.031  -1.723   2.328  0.00  0.00    +0.000 HD
ENDBRANCH  19  22
ENDBRANCH   2  18
TORSDOF 6
