REMARK  Name = 
REMARK  9 active torsions:
REMARK  status: ('A' for Active; 'I' for Inactive)
REMARK    1  A    between atoms: C_1  and  O_2
REMARK    2  A    between atoms: O_2  and  C_3
REMARK    3  A    between atoms: C_10  and  C_11
REMARK    4  A    between atoms: N_13  and  C_14
REMARK    5  A    between atoms: C_14  and  C_15
REMARK    6  A    between atoms: C_18  and  C_19
REMARK    7  A    between atoms: C_19  and  O_20
REMARK    8  A    between atoms: O_20  and  C_21
REMARK    9  A    between atoms: C_21  and  C_22
REMARK                            x       y       z     vdW  Elec       q    Type
REMARK                         _______ _______ _______ _____ _____    ______ ____
ROOT
ATOM      1  C   UNL     1       3.355  -3.286  -0.147  0.00  0.00    +0.000 C 
ENDROOT
BRANCH   1   2
ATOM      2  C   UNL     1       2.334  -3.256   0.964  0.00  0.00    +0.000 A 
ATOM      3  C   UNL     1       1.629  -4.415   1.316  0.00  0.00    +0.000 A 
ATOM      4  C   UNL     1       0.631  -4.373   2.296  0.00  0.00    +0.000 A 
ATOM      5  C   UNL     1       0.305  -3.170   2.937  0.00  0.00    +0.000 A 
ATOM      6  C   UNL     1       1.022  -2.015   2.596  0.00  0.00    +0.000 A 
ATOM      7  C   UNL     1       2.023  -2.058   1.620  0.00  0.00    +0.000 A 
BRANCH   5   8
ATOM      8  C   UNL     1      -0.817  -3.115   3.945  0.00  0.00    +0.000 C 
BRANCH   8   9
ATOM      9  O   UNL     1      -0.520  -3.994   5.024  0.00  0.00    +0.000 OA
BRANCH   9  10
ATOM     10  C   UNL     1      -1.508  -3.933   6.052  0.00  0.00    +0.000 C 
BRANCH  10  11
ATOM     11  C   UNL     1      -1.114  -4.842   7.190  0.00  0.00    +0.000 A 
ATOM     12  C   UNL     1       0.238  -5.048   7.516  0.00  0.00    +0.000 A 
ATOM     13  C   UNL     1       0.603  -5.865   8.588  0.00  0.00    +0.000 A 
ATOM     14  C   UNL     1      -0.381  -6.477   9.360  0.00  0.00    +0.000 A 
ATOM     15  C   UNL     1      -1.720  -6.264   9.052  0.00  0.00    +0.000 A 
ATOM     16  F   UNL     1      -2.667  -6.847   9.799  0.00  0.00    +0.000 F 
ATOM     17  C   UNL     1      -2.094  -5.453   7.984  0.00  0.00    +0.000 A 
ENDBRANCH  10  11
ENDBRANCH   9  10
ENDBRANCH   8   9
ENDBRANCH   5   8
ENDBRANCH   1   2
BRANCH   1  20
ATOM     18  C   UNL     1       3.434  -2.945  -2.593  0.00  0.00    +0.000 C 
ATOM     19  O   UNL     1       4.646  -3.146  -2.620  0.00  0.00    +0.000 OA
ATOM     20  N   UNL     1       2.732  -3.006  -1.420  0.00  0.00    +0.000 N 
ATOM     21  H   UNL     1       1.727  -2.905  -1.429  0.00  0.00    +0.000 HD
BRANCH  18  29
ATOM     22  C   UNL     1       0.110  -2.291  -3.236  0.00  0.00    +0.000 A 
ATOM     23  N   UNL     1      -1.081  -1.907  -3.739  0.00  0.00    +0.000 NA
ATOM     24  C   UNL     1      -1.137  -1.561  -5.027  0.00  0.00    +0.000 A 
ATOM     25  N   UNL     1      -0.136  -1.564  -5.901  0.00  0.00    +0.000 NA
ATOM     26  C   UNL     1       1.035  -1.944  -5.360  0.00  0.00    +0.000 A 
ATOM     27  S   UNL     1       2.421  -2.026  -6.334  0.00  0.00    +0.000 S 
ATOM     28  C   UNL     1       3.380  -2.505  -5.016  0.00  0.00    +0.000 A 
ATOM     29  C   UNL     1       2.683  -2.603  -3.817  0.00  0.00    +0.000 A 
ATOM     30  C   UNL     1       1.267  -2.306  -4.035  0.00  0.00    +0.000 A 
BRANCH  22  32
ATOM     31  C   UNL     1      -1.072  -2.600  -1.225  0.00  0.00    +0.000 C 
ATOM     32  O   UNL     1       0.168  -2.698  -1.919  0.00  0.00    +0.000 OA
ENDBRANCH  22  32
ENDBRANCH  18  29
ENDBRANCH   1  20
TORSDOF 8
