REMARK  Name = 
REMARK  3 active torsions:
REMARK  status: ('A' for Active; 'I' for Inactive)
REMARK    1  A    between atoms: C_5  and  N_6
REMARK    2  A    between atoms: N_6  and  C_7
REMARK    3  A    between atoms: C_7  and  C_8
REMARK                            x       y       z     vdW  Elec       q    Type
REMARK                         _______ _______ _______ _____ _____    ______ ____
ROOT
ATOM      1  C   UNL     1       3.121  -4.358   0.205  0.00  0.00    +0.000 C 
ATOM      2  C   UNL     1       3.494  -5.665   0.933  0.00  0.00    +0.000 C 
ATOM      3  C   UNL     1       3.341  -5.516   2.440  0.00  0.00    +0.000 C 
ATOM      4  C   UNL     1       4.207  -4.374   2.946  0.00  0.00    +0.000 C 
ATOM      5  N   UNL     1       3.896  -3.124   2.248  0.00  0.00    +0.000 N 
ATOM      6  C   UNL     1       2.988  -2.285   2.895  0.00  0.00    +0.000 A 
ATOM      7  C   UNL     1       3.079  -0.914   2.725  0.00  0.00    +0.000 A 
ATOM      8  C   UNL     1       2.263  -0.124   3.506  0.00  0.00    +0.000 A 
ATOM      9  N   UNL     1       1.376  -0.612   4.387  0.00  0.00    +0.000 NA
ATOM     10  C   UNL     1       1.348  -1.947   4.473  0.00  0.00    +0.000 A 
ATOM     11  N   UNL     1       2.114  -2.803   3.779  0.00  0.00    +0.000 NA
ATOM     12  C   UNL     1       3.931  -3.168   0.774  0.00  0.00    +0.000 C 
ENDROOT
BRANCH   1  13
ATOM     13  C   UNL     1       3.323  -4.522  -1.326  0.00  0.00    +0.000 C 
BRANCH  13  14
ATOM     14  N   UNL     1       2.446  -5.586  -1.816  0.00  0.00    +0.000 N 
ATOM     15  H   UNL     1       1.543  -5.635  -1.356  0.00  0.00    +0.000 HD
BRANCH  14  20
ATOM     16  C   UNL     1       3.275  -6.360  -5.370  0.00  0.00    +0.000 A 
ATOM     17  C   UNL     1       2.339  -7.359  -5.578  0.00  0.00    +0.000 A 
ATOM     18  N   UNL     1       1.464  -7.758  -4.638  0.00  0.00    +0.000 NA
ATOM     19  C   UNL     1       1.543  -7.121  -3.440  0.00  0.00    +0.000 A 
ATOM     20  C   UNL     1       2.429  -6.084  -3.113  0.00  0.00    +0.000 A 
ATOM     21  C   UNL     1       3.323  -5.730  -4.120  0.00  0.00    +0.000 A 
ENDBRANCH  14  20
ENDBRANCH  13  14
ENDBRANCH   1  13
TORSDOF 3
