REMARK  Name = 
REMARK  7 active torsions:
REMARK  status: ('A' for Active; 'I' for Inactive)
REMARK    1  A    between atoms: C_1  and  C_2
REMARK    2  A    between atoms: C_2  and  C_3
REMARK    3  A    between atoms: C_2  and  C_14
REMARK    4  A    between atoms: C_3  and  N_4
REMARK    5  A    between atoms: N_4  and  C_5
REMARK    6  A    between atoms: C_8  and  C_9
REMARK    7  A    between atoms: C_18  and  C_19
REMARK                            x       y       z     vdW  Elec       q    Type
REMARK                         _______ _______ _______ _____ _____    ______ ____
ROOT
ATOM      1  N   UNL     1       2.722  -0.102  -2.496  0.00  0.00    +0.000 N 
ATOM      2  H   UNL     1       1.891  -0.680  -2.397  0.00  0.00    +0.000 HD
ENDROOT
BRANCH   1   3
ATOM      3  C   UNL     1       3.135   0.211  -3.780  0.00  0.00    +0.000 A 
ATOM      4  C   UNL     1       4.052   1.207  -4.086  0.00  0.00    +0.000 A 
ATOM      5  N   UNL     1       4.508   1.504  -5.325  0.00  0.00    +0.000 NA
ATOM      6  C   UNL     1       4.019   0.726  -6.314  0.00  0.00    +0.000 A 
ATOM      7  N   UNL     1       3.118  -0.265  -6.161  0.00  0.00    +0.000 NA
ATOM      8  C   UNL     1       2.709  -0.494  -4.895  0.00  0.00    +0.000 A 
BRANCH   6   9
ATOM      9  C   UNL     1       4.550   0.979  -7.711  0.00  0.00    +0.000 C 
ATOM     10  N   UNL     1       5.480   1.982  -7.835  0.00  0.00    +0.000 N 
ATOM     11  O   UNL     1       4.199   0.343  -8.698  0.00  0.00    +0.000 OA
ATOM     12  H   UNL     1       5.799   2.504  -7.026  0.00  0.00    +0.000 HD
ATOM     13  H   UNL     1       5.873   2.170  -8.750  0.00  0.00    +0.000 HD
ENDBRANCH   6   9
ENDBRANCH   1   3
BRANCH   1  14
ATOM     14  C   UNL     1       3.147   0.698  -1.354  0.00  0.00    +0.000 C 
BRANCH  14  16
ATOM     15  C   UNL     1       2.810  -1.215   0.357  0.00  0.00    +0.000 C 
ATOM     16  C   UNL     1       2.498   0.177  -0.098  0.00  0.00    +0.000 C 
BRANCH  16  17
ATOM     17  C   UNL     1       1.097   0.586   0.103  0.00  0.00    +0.000 A 
ATOM     18  C   UNL     1       0.804   1.924   0.377  0.00  0.00    +0.000 A 
ATOM     19  C   UNL     1      -0.516   2.354   0.472  0.00  0.00    +0.000 A 
ATOM     20  C   UNL     1      -1.556   1.448   0.281  0.00  0.00    +0.000 A 
ATOM     21  C   UNL     1      -1.279   0.106   0.003  0.00  0.00    +0.000 A 
ATOM     22  C   UNL     1       0.049  -0.331  -0.071  0.00  0.00    +0.000 A 
BRANCH  21  23
ATOM     23  C   UNL     1      -2.371  -0.802  -0.241  0.00  0.00    +0.000 C 
ATOM     24  N   UNL     1      -3.260  -1.500  -0.445  0.00  0.00    +0.000 NA
ENDBRANCH  21  23
ENDBRANCH  16  17
ENDBRANCH  14  16
ENDBRANCH   1  14
TORSDOF 6
