REMARK  Name = 
REMARK  5 active torsions:
REMARK  status: ('A' for Active; 'I' for Inactive)
REMARK    1  A    between atoms: N_1  and  C_2
REMARK    2  A    between atoms: C_2  and  C_3
REMARK    3  A    between atoms: C_3  and  C_4
REMARK    4  A    between atoms: C_7  and  C_8
REMARK    5  A    between atoms: C_8  and  C_9
REMARK                            x       y       z     vdW  Elec       q    Type
REMARK                         _______ _______ _______ _____ _____    ______ ____
ROOT
ATOM      1  C   UNL     1       4.426  -0.965  -0.904  0.00  0.00    +0.000 A 
ATOM      2  C   UNL     1       5.112   0.249  -1.021  0.00  0.00    +0.000 A 
ATOM      3  C   UNL     1       6.508   0.288  -0.958  0.00  0.00    +0.000 A 
ATOM      4  C   UNL     1       7.247  -0.889  -0.778  0.00  0.00    +0.000 A 
ATOM      5  C   UNL     1       6.558  -2.106  -0.683  0.00  0.00    +0.000 A 
ATOM      6  C   UNL     1       5.163  -2.145  -0.755  0.00  0.00    +0.000 A 
ENDROOT
BRANCH   1   7
ATOM      7  C   UNL     1       2.916  -1.001  -0.935  0.00  0.00    +0.000 C 
BRANCH   7   8
ATOM      8  C   UNL     1       2.365  -1.173  -2.353  0.00  0.00    +0.000 C 
BRANCH   8   9
ATOM      9  N   UNL     1       0.902  -1.180  -2.353  0.00  0.00    +0.000 NA
ATOM     10  H   UNL     1       0.566  -1.281  -3.310  0.00  0.00    +0.000 HD
ATOM     11  H   UNL     1       0.553  -0.281  -2.022  0.00  0.00    +0.000 HD
ENDBRANCH   8   9
ENDBRANCH   7   8
ENDBRANCH   1   7
BRANCH   4  12
ATOM     12  C   UNL     1       8.755  -0.858  -0.687  0.00  0.00    +0.000 C 
BRANCH  12  13
ATOM     13  C   UNL     1       9.283  -0.710   0.699  0.00  0.00    +0.000 A 
ATOM     14  N   UNL     1       9.533  -1.692   1.544  0.00  0.00    +0.000 NA
ATOM     15  N   UNL     1      10.140  -1.160   2.658  0.00  0.00    +0.000 NA
ATOM     16  C   UNL     1      10.261   0.140   2.489  0.00  0.00    +0.000 A 
ATOM     17  N   UNL     1      10.839   1.089   3.288  0.00  0.00    +0.000 NA
ATOM     18  C   UNL     1      10.808   2.305   2.840  0.00  0.00    +0.000 A 
ATOM     19  C   UNL     1      10.198   2.762   1.560  0.00  0.00    +0.000 A 
ATOM     20  C   UNL     1       9.658   1.791   0.808  0.00  0.00    +0.000 A 
ATOM     21  N   UNL     1       9.696   0.478   1.263  0.00  0.00    +0.000 N 
ENDBRANCH  12  13
ENDBRANCH   4  12
TORSDOF 5
