REMARK  Name = 
REMARK  8 active torsions:
REMARK  status: ('A' for Active; 'I' for Inactive)
REMARK    1  A    between atoms: C_1  and  C_2
REMARK    2  A    between atoms: C_2  and  C_3
REMARK    3  A    between atoms: C_7  and  C_8
REMARK    4  A    between atoms: C_8  and  C_9
REMARK    5  A    between atoms: C_9  and  N_10
REMARK    6  A    between atoms: N_10  and  C_11
REMARK    7  A    between atoms: C_14  and  C_15
REMARK    8  A    between atoms: C_24  and  O_25
REMARK                            x       y       z     vdW  Elec       q    Type
REMARK                         _______ _______ _______ _____ _____    ______ ____
ROOT
ATOM      1  C   UNL     1       4.424  -1.430   4.560  0.00  0.00    +0.000 C 
ENDROOT
BRANCH   1   6
ATOM      2  C   UNL     1       2.968   0.331   1.440  0.00  0.00    +0.000 A 
ATOM      3  C   UNL     1       2.740   1.609   1.974  0.00  0.00    +0.000 A 
ATOM      4  C   UNL     1       3.070   1.906   3.302  0.00  0.00    +0.000 A 
ATOM      5  C   UNL     1       3.625   0.931   4.132  0.00  0.00    +0.000 A 
ATOM      6  C   UNL     1       3.875  -0.351   3.638  0.00  0.00    +0.000 A 
ATOM      7  C   UNL     1       3.561  -0.612   2.291  0.00  0.00    +0.000 A 
BRANCH   2   9
ATOM      8  C   UNL     1       0.958   0.042   0.015  0.00  0.00    +0.000 C 
ATOM      9  C   UNL     1       2.503  -0.050   0.013  0.00  0.00    +0.000 C 
ATOM     10  C   UNL     1       3.113   0.931  -1.024  0.00  0.00    +0.000 C 
ATOM     11  C   UNL     1       2.815   0.559  -2.483  0.00  0.00    +0.000 C 
ATOM     12  C   UNL     1       3.187  -0.879  -2.831  0.00  0.00    +0.000 C 
ATOM     13  C   UNL     1       2.598  -1.876  -1.842  0.00  0.00    +0.000 C 
ATOM     14  C   UNL     1       2.910  -1.504  -0.393  0.00  0.00    +0.000 C 
BRANCH  12  15
ATOM     15  O   UNL     1       4.605  -1.023  -2.882  0.00  0.00    +0.000 OA
ATOM     16  H   UNL     1       4.982  -0.762  -2.026  0.00  0.00    +0.000 HD
ENDBRANCH  12  15
ENDBRANCH   2   9
ENDBRANCH   1   6
BRANCH   1  17
ATOM     17  C   UNL     1       4.681  -2.765   3.847  0.00  0.00    +0.000 C 
BRANCH  17  18
ATOM     18  N   UNL     1       5.169  -3.820   4.729  0.00  0.00    +0.000 N 
ATOM     19  H   UNL     1       4.585  -3.954   5.557  0.00  0.00    +0.000 HD
BRANCH  18  20
ATOM     20  C   UNL     1       5.396  -5.070   4.102  0.00  0.00    +0.000 A 
ATOM     21  C   UNL     1       5.839  -5.193   2.778  0.00  0.00    +0.000 A 
ATOM     22  C   UNL     1       6.135  -6.444   2.224  0.00  0.00    +0.000 A 
ATOM     23  C   UNL     1       6.028  -7.610   2.992  0.00  0.00    +0.000 A 
ATOM     24  C   UNL     1       5.608  -7.508   4.319  0.00  0.00    +0.000 A 
ATOM     25  C   UNL     1       5.311  -6.252   4.856  0.00  0.00    +0.000 A 
ATOM     26  F   UNL     1       4.905  -6.186   6.134  0.00  0.00    +0.000 F 
BRANCH  23  27
ATOM     27  C   UNL     1       6.387  -8.897   2.335  0.00  0.00    +0.000 C 
ATOM     28  N   UNL     1       6.330 -10.047   3.069  0.00  0.00    +0.000 N 
ATOM     29  O   UNL     1       6.736  -8.939   1.160  0.00  0.00    +0.000 OA
ATOM     30  H   UNL     1       6.094 -10.109   4.045  0.00  0.00    +0.000 HD
ATOM     31  H   UNL     1       6.611 -10.896   2.596  0.00  0.00    +0.000 HD
ENDBRANCH  23  27
ENDBRANCH  18  20
ENDBRANCH  17  18
ENDBRANCH   1  17
TORSDOF 7
