REMARK  Name = 
REMARK  6 active torsions:
REMARK  status: ('A' for Active; 'I' for Inactive)
REMARK    1  A    between atoms: C_1  and  N_2
REMARK    2  A    between atoms: C_3  and  C_5
REMARK    3  A    between atoms: C_8  and  O_9
REMARK    4  A    between atoms: O_9  and  C_10
REMARK    5  A    between atoms: C_10  and  C_11
REMARK    6  A    between atoms: C_10  and  C_12
REMARK                            x       y       z     vdW  Elec       q    Type
REMARK                         _______ _______ _______ _____ _____    ______ ____
ROOT
ATOM      1  C   UNL     1       9.182  -4.383  -3.030  0.00  0.00    +0.000 A 
ATOM      2  C   UNL     1       8.348  -3.561  -3.792  0.00  0.00    +0.000 A 
ATOM      3  C   UNL     1       8.377  -2.180  -3.582  0.00  0.00    +0.000 A 
ATOM      4  C   UNL     1       9.218  -1.675  -2.601  0.00  0.00    +0.000 A 
ATOM      5  N   UNL     1      10.035  -2.446  -1.855  0.00  0.00    +0.000 NA
ATOM      6  C   UNL     1       9.995  -3.781  -2.079  0.00  0.00    +0.000 A 
ENDROOT
BRANCH   1   9
ATOM      7  C   UNL     1       8.906  -7.810  -4.597  0.00  0.00    +0.000 C 
ATOM      8  N   UNL     1       8.885  -6.385  -4.381  0.00  0.00    +0.000 N 
ATOM      9  C   UNL     1       9.212  -5.859  -3.149  0.00  0.00    +0.000 C 
ATOM     10  O   UNL     1       9.535  -6.542  -2.187  0.00  0.00    +0.000 OA
ATOM     11  H   UNL     1       8.797  -5.779  -5.186  0.00  0.00    +0.000 HD
ENDBRANCH   1   9
BRANCH   4  12
ATOM     12  O   UNL     1       9.225  -0.309  -2.420  0.00  0.00    +0.000 OA
BRANCH  12  13
ATOM     13  C   UNL     1       9.595   0.100  -1.092  0.00  0.00    +0.000 C 
ATOM     14  C   UNL     1       8.336   0.147  -0.223  0.00  0.00    +0.000 C 
BRANCH  13  15
ATOM     15  C   UNL     1      10.278   1.457  -1.180  0.00  0.00    +0.000 A 
ATOM     16  C   UNL     1      11.600   1.603  -0.724  0.00  0.00    +0.000 A 
ATOM     17  C   UNL     1      12.260   2.830  -0.820  0.00  0.00    +0.000 A 
ATOM     18  C   UNL     1      11.608   3.930  -1.373  0.00  0.00    +0.000 A 
ATOM     19  C   UNL     1      10.295   3.804  -1.820  0.00  0.00    +0.000 A 
ATOM     20  C   UNL     1       9.633   2.577  -1.726  0.00  0.00    +0.000 A 
ENDBRANCH  13  15
ENDBRANCH  12  13
ENDBRANCH   4  12
TORSDOF 4
