REMARK  Name = 
REMARK  5 active torsions:
REMARK  status: ('A' for Active; 'I' for Inactive)
REMARK    1  A    between atoms: C_2  and  C_5
REMARK    2  A    between atoms: C_9  and  C_10
REMARK    3  A    between atoms: C_10  and  C_11
REMARK    4  A    between atoms: C_11  and  C_12
REMARK    5  A    between atoms: C_16  and  C_17
REMARK                            x       y       z     vdW  Elec       q    Type
REMARK                         _______ _______ _______ _____ _____    ______ ____
ROOT
ATOM      1  C   UNL     1       3.489   5.115  -3.822  0.00  0.00    +0.000 A 
ATOM      2  C   UNL     1       4.351   6.088  -3.330  0.00  0.00    +0.000 A 
ATOM      3  N   UNL     1       4.574   7.258  -3.966  0.00  0.00    +0.000 NA
ATOM      4  C   UNL     1       3.883   7.429  -5.122  0.00  0.00    +0.000 A 
ATOM      5  C   UNL     1       2.993   6.486  -5.633  0.00  0.00    +0.000 A 
ATOM      6  N   UNL     1       2.792   5.307  -4.974  0.00  0.00    +0.000 NA
ENDROOT
BRANCH   5   7
ATOM      7  C   UNL     1       2.225   6.716  -6.873  0.00  0.00    +0.000 A 
ATOM      8  C   UNL     1       1.313   5.781  -7.373  0.00  0.00    +0.000 A 
ATOM      9  C   UNL     1       0.585   6.071  -8.529  0.00  0.00    +0.000 A 
ATOM     10  C   UNL     1       0.785   7.287  -9.166  0.00  0.00    +0.000 A 
ATOM     11 CL   UNL     1      -0.100   7.696 -10.577  0.00  0.00    +0.000 Cl
ATOM     12  C   UNL     1       1.713   8.161  -8.628  0.00  0.00    +0.000 A 
ATOM     13  N   UNL     1       2.431   7.905  -7.506  0.00  0.00    +0.000 NA
ENDBRANCH   5   7
BRANCH   1  14
ATOM     14  C   UNL     1       3.279   3.819  -3.084  0.00  0.00    +0.000 C 
BRANCH  14  15
ATOM     15  C   UNL     1       3.610   2.617  -3.971  0.00  0.00    +0.000 C 
BRANCH  15  20
ATOM     16  C   UNL     1       2.475  -0.892  -3.045  0.00  0.00    +0.000 A 
ATOM     17  C   UNL     1       3.259  -1.089  -1.906  0.00  0.00    +0.000 A 
ATOM     18  C   UNL     1       4.098  -0.068  -1.500  0.00  0.00    +0.000 A 
ATOM     19  N   UNL     1       4.203   1.116  -2.140  0.00  0.00    +0.000 NA
ATOM     20  C   UNL     1       3.441   1.308  -3.242  0.00  0.00    +0.000 A 
ATOM     21  C   UNL     1       2.574   0.331  -3.723  0.00  0.00    +0.000 A 
BRANCH  16  23
ATOM     22  F   UNL     1       1.557  -3.095  -2.793  0.00  0.00    +0.000 F 
ATOM     23  C   UNL     1       1.544  -1.962  -3.549  0.00  0.00    +0.000 C 
ATOM     24  F   UNL     1       1.842  -2.357  -4.818  0.00  0.00    +0.000 F 
ATOM     25  F   UNL     1       0.247  -1.550  -3.581  0.00  0.00    +0.000 F 
ENDBRANCH  16  23
ENDBRANCH  15  20
ENDBRANCH  14  15
ENDBRANCH   1  14
TORSDOF 5
