REMARK  Name = 
REMARK  5 active torsions:
REMARK  status: ('A' for Active; 'I' for Inactive)
REMARK    1  A    between atoms: C_1  and  O_2
REMARK    2  A    between atoms: O_2  and  C_3
REMARK    3  A    between atoms: C_6  and  C_7
REMARK    4  A    between atoms: C_7  and  N_8
REMARK    5  A    between atoms: C_13  and  C_14
REMARK                            x       y       z     vdW  Elec       q    Type
REMARK                         _______ _______ _______ _____ _____    ______ ____
ROOT
ATOM      1  N   UNL     1       4.917  -5.321   2.457  0.00  0.00    +0.000 N 
ATOM      2  C   UNL     1       5.646  -6.335   3.061  0.00  0.00    +0.000 A 
ATOM      3  N   UNL     1       5.493  -7.556   2.539  0.00  0.00    +0.000 NA
ATOM      4  C   UNL     1       6.167  -8.556   3.133  0.00  0.00    +0.000 A 
ATOM      5  C   UNL     1       7.000  -8.378   4.209  0.00  0.00    +0.000 A 
ATOM      6  C   UNL     1       7.125  -7.085   4.673  0.00  0.00    +0.000 A 
ATOM      7  N   UNL     1       6.442  -6.066   4.102  0.00  0.00    +0.000 NA
ATOM      8  H   UNL     1       4.665  -5.649   1.532  0.00  0.00    +0.000 HD
ENDROOT
BRANCH   6   9
ATOM      9  C   UNL     1       7.998  -6.705   5.805  0.00  0.00    +0.000 A 
ATOM     10  C   UNL     1       9.175  -7.414   6.119  0.00  0.00    +0.000 A 
ATOM     11  C   UNL     1      10.002  -7.028   7.183  0.00  0.00    +0.000 A 
ATOM     12  C   UNL     1       9.668  -5.920   7.955  0.00  0.00    +0.000 A 
ATOM     13  C   UNL     1       8.514  -5.210   7.659  0.00  0.00    +0.000 A 
ATOM     14  F   UNL     1       8.191  -4.141   8.398  0.00  0.00    +0.000 F 
ATOM     15  C   UNL     1       7.688  -5.589   6.604  0.00  0.00    +0.000 A 
ENDBRANCH   6   9
BRANCH   1  16
ATOM     16  C   UNL     1       5.561  -4.024   2.497  0.00  0.00    +0.000 C 
BRANCH  16  20
ATOM     17  C   UNL     1       3.132  -1.033   0.511  0.00  0.00    +0.000 A 
ATOM     18  C   UNL     1       2.634  -1.724   1.615  0.00  0.00    +0.000 A 
ATOM     19  C   UNL     1       3.416  -2.700   2.245  0.00  0.00    +0.000 A 
ATOM     20  C   UNL     1       4.706  -3.000   1.783  0.00  0.00    +0.000 A 
ATOM     21  C   UNL     1       5.199  -2.301   0.674  0.00  0.00    +0.000 A 
ATOM     22  C   UNL     1       4.416  -1.327   0.047  0.00  0.00    +0.000 A 
BRANCH  17  24
ATOM     23  C   UNL     1       1.159   0.262   0.226  0.00  0.00    +0.000 C 
ATOM     24  O   UNL     1       2.479  -0.061  -0.195  0.00  0.00    +0.000 OA
ENDBRANCH  17  24
ENDBRANCH  16  20
ENDBRANCH   1  16
TORSDOF 4
