REMARK  Name = 
REMARK  6 active torsions:
REMARK  status: ('A' for Active; 'I' for Inactive)
REMARK    1  A    between atoms: N_1  and  C_2
REMARK    2  A    between atoms: C_2  and  C_3
REMARK    3  A    between atoms: C_3  and  C_4
REMARK    4  A    between atoms: C_7  and  C_8
REMARK    5  A    between atoms: C_8  and  C_9
REMARK    6  A    between atoms: C_14  and  N_15
REMARK                            x       y       z     vdW  Elec       q    Type
REMARK                         _______ _______ _______ _____ _____    ______ ____
ROOT
ATOM      1  C   UNL     1       8.734  -1.009  -0.850  0.00  0.00    +0.000 C 
ENDROOT
BRANCH   1   2
ATOM      2  C   UNL     1       9.284  -2.234  -0.203  0.00  0.00    +0.000 A 
ATOM      3  N   UNL     1       9.526  -3.387  -0.799  0.00  0.00    +0.000 NA
ATOM      4  N   UNL     1      10.197  -4.203   0.081  0.00  0.00    +0.000 NA
ATOM      5  C   UNL     1      10.360  -3.535   1.200  0.00  0.00    +0.000 A 
ATOM      6  C   UNL     1      11.041  -3.840   2.412  0.00  0.00    +0.000 A 
ATOM      7  C   UNL     1      11.061  -2.951   3.431  0.00  0.00    +0.000 A 
ATOM      8  C   UNL     1      10.344  -1.681   3.295  0.00  0.00    +0.000 A 
ATOM      9  C   UNL     1       9.722  -1.378   2.142  0.00  0.00    +0.000 A 
ATOM     10  N   UNL     1       9.750  -2.295   1.094  0.00  0.00    +0.000 N 
BRANCH   7  11
ATOM     11  N   UNL     1      11.743  -3.159   4.607  0.00  0.00    +0.000 N 
ATOM     12  H   UNL     1      11.987  -4.130   4.784  0.00  0.00    +0.000 HD
ATOM     13  H   UNL     1      11.336  -2.704   5.419  0.00  0.00    +0.000 HD
ENDBRANCH   7  11
ENDBRANCH   1   2
BRANCH   1  17
ATOM     14  C   UNL     1       4.404  -0.825  -1.044  0.00  0.00    +0.000 A 
ATOM     15  C   UNL     1       5.091  -0.309   0.062  0.00  0.00    +0.000 A 
ATOM     16  C   UNL     1       6.486  -0.366   0.128  0.00  0.00    +0.000 A 
ATOM     17  C   UNL     1       7.226  -0.955  -0.905  0.00  0.00    +0.000 A 
ATOM     18  C   UNL     1       6.538  -1.488  -2.003  0.00  0.00    +0.000 A 
ATOM     19  C   UNL     1       5.143  -1.418  -2.075  0.00  0.00    +0.000 A 
BRANCH  14  20
ATOM     20  C   UNL     1       2.893  -0.788  -1.106  0.00  0.00    +0.000 C 
BRANCH  20  21
ATOM     21  C   UNL     1       2.318   0.634  -1.058  0.00  0.00    +0.000 C 
BRANCH  21  22
ATOM     22  N   UNL     1       0.856   0.616  -1.117  0.00  0.00    +0.000 NA
ATOM     23  H   UNL     1       0.507   1.573  -1.069  0.00  0.00    +0.000 HD
ATOM     24  H   UNL     1       0.485   0.137  -0.297  0.00  0.00    +0.000 HD
ENDBRANCH  21  22
ENDBRANCH  20  21
ENDBRANCH  14  20
ENDBRANCH   1  17
TORSDOF 6
