REMARK  Name = 
REMARK  4 active torsions:
REMARK  status: ('A' for Active; 'I' for Inactive)
REMARK    1  A    between atoms: C_2  and  C_4
REMARK    2  A    between atoms: N_8  and  C_9
REMARK    3  A    between atoms: C_9  and  C_10
REMARK    4  A    between atoms: C_14  and  C_15
REMARK                            x       y       z     vdW  Elec       q    Type
REMARK                         _______ _______ _______ _____ _____    ______ ____
ROOT
ATOM      1  C   UNL     1       5.666  -4.873   2.918  0.00  0.00    +0.000 C 
ATOM      2  C   UNL     1       5.208  -6.226   2.387  0.00  0.00    +0.000 C 
ATOM      3  C   UNL     1       4.309  -5.454   3.295  0.00  0.00    +0.000 C 
ENDROOT
BRANCH   1   8
ATOM      4  C   UNL     1       7.877  -3.104  -1.429  0.00  0.00    +0.000 A 
ATOM      5  C   UNL     1       8.231  -4.164  -0.605  0.00  0.00    +0.000 A 
ATOM      6  C   UNL     1       7.497  -4.393   0.563  0.00  0.00    +0.000 A 
ATOM      7  C   UNL     1       6.423  -3.566   0.876  0.00  0.00    +0.000 A 
ATOM      8  N   UNL     1       5.665  -3.702   2.036  0.00  0.00    +0.000 N 
ATOM      9  N   UNL     1       6.064  -2.541   0.072  0.00  0.00    +0.000 NA
ATOM     10  C   UNL     1       6.798  -2.323  -1.049  0.00  0.00    +0.000 A 
ATOM     11  H   UNL     1       4.888  -3.053   2.018  0.00  0.00    +0.000 HD
BRANCH   4  13
ATOM     12  N   UNL     1       9.322  -3.737  -3.285  0.00  0.00    +0.000 N 
ATOM     13  C   UNL     1       8.620  -2.745  -2.660  0.00  0.00    +0.000 C 
ATOM     14  O   UNL     1       8.594  -1.608  -3.113  0.00  0.00    +0.000 OA
ATOM     15  H   UNL     1       9.766  -3.491  -4.161  0.00  0.00    +0.000 HD
ATOM     16  H   UNL     1       9.189  -4.718  -3.086  0.00  0.00    +0.000 HD
ENDBRANCH   4  13
ENDBRANCH   1   8
BRANCH   1  17
ATOM     17  C   UNL     1       6.759  -4.905   3.997  0.00  0.00    +0.000 A 
ATOM     18  C   UNL     1       6.682  -4.119   5.144  0.00  0.00    +0.000 A 
ATOM     19  C   UNL     1       7.599  -4.319   6.171  0.00  0.00    +0.000 A 
ATOM     20  C   UNL     1       8.585  -5.293   6.030  0.00  0.00    +0.000 A 
ATOM     21  C   UNL     1       8.653  -6.021   4.847  0.00  0.00    +0.000 A 
ATOM     22  N   UNL     1       7.758  -5.817   3.849  0.00  0.00    +0.000 NA
BRANCH  21  23
ATOM     23  C   UNL     1       9.632  -7.103   4.594  0.00  0.00    +0.000 A 
ATOM     24  C   UNL     1       9.346  -8.114   3.653  0.00  0.00    +0.000 A 
ATOM     25  C   UNL     1      10.234  -9.163   3.403  0.00  0.00    +0.000 A 
ATOM     26  C   UNL     1      11.442  -9.223   4.088  0.00  0.00    +0.000 A 
ATOM     27  C   UNL     1      11.760  -8.232   5.014  0.00  0.00    +0.000 A 
ATOM     28  C   UNL     1      10.867  -7.182   5.260  0.00  0.00    +0.000 A 
ENDBRANCH  21  23
ENDBRANCH   1  17
TORSDOF 4
