REMARK  Name = 
REMARK  6 active torsions:
REMARK  status: ('A' for Active; 'I' for Inactive)
REMARK    1  A    between atoms: C_2  and  C_19
REMARK    2  A    between atoms: N_3  and  C_4
REMARK    3  A    between atoms: C_4  and  C_5
REMARK    4  A    between atoms: C_8  and  C_9
REMARK    5  A    between atoms: C_9  and  N_10
REMARK    6  A    between atoms: N_10  and  C_11
REMARK                            x       y       z     vdW  Elec       q    Type
REMARK                         _______ _______ _______ _____ _____    ______ ____
ROOT
ATOM      1  C   UNL     1       2.321   1.949   1.545  0.00  0.00    +0.000 C 
ENDROOT
BRANCH   1   2
ATOM      2  C   UNL     1       3.247   2.908   2.250  0.00  0.00    +0.000 A 
ATOM      3  C   UNL     1       3.005   4.277   2.181  0.00  0.00    +0.000 A 
ATOM      4  C   UNL     1       3.844   5.146   2.873  0.00  0.00    +0.000 A 
ATOM      5  C   UNL     1       4.914   4.635   3.613  0.00  0.00    +0.000 A 
ATOM      6  C   UNL     1       5.098   3.257   3.590  0.00  0.00    +0.000 A 
ATOM      7  N   UNL     1       4.299   2.386   2.930  0.00  0.00    +0.000 NA
BRANCH   5   8
ATOM      8  C   UNL     1       5.866   5.532   4.360  0.00  0.00    +0.000 C 
BRANCH   8   9
ATOM      9  N   UNL     1       5.187   6.333   5.379  0.00  0.00    +0.000 NA
ATOM     10  H   UNL     1       4.687   5.705   6.010  0.00  0.00    +0.000 HD
BRANCH   9  11
ATOM     11  C   UNL     1       6.095   7.189   6.164  0.00  0.00    +0.000 C 
ATOM     12  C   UNL     1       5.263   7.961   7.200  0.00  0.00    +0.000 C 
ATOM     13  C   UNL     1       6.128   8.949   7.972  0.00  0.00    +0.000 C 
ATOM     14  O   UNL     1       6.804   9.838   7.086  0.00  0.00    +0.000 OA
ATOM     15  C   UNL     1       7.674   9.148   6.194  0.00  0.00    +0.000 C 
ATOM     16  C   UNL     1       6.893   8.184   5.310  0.00  0.00    +0.000 C 
ENDBRANCH   9  11
ENDBRANCH   8   9
ENDBRANCH   5   8
ENDBRANCH   1   2
BRANCH   1  19
ATOM     17  O   UNL     1       1.447   3.453  -0.674  0.00  0.00    +0.000 OA
ATOM     18  C   UNL     1       2.185   2.487  -0.856  0.00  0.00    +0.000 C 
ATOM     19  N   UNL     1       2.697   1.745   0.171  0.00  0.00    +0.000 N 
ATOM     20  H   UNL     1       3.251   0.917  -0.016  0.00  0.00    +0.000 HD
BRANCH  18  21
ATOM     21  C   UNL     1       2.612   2.086  -2.195  0.00  0.00    +0.000 A 
ATOM     22  C   UNL     1       2.685   3.007  -3.229  0.00  0.00    +0.000 A 
ATOM     23  S   UNL     1       3.262   2.333  -4.690  0.00  0.00    +0.000 S 
ATOM     24  C   UNL     1       3.391   0.785  -3.991  0.00  0.00    +0.000 A 
ATOM     25  N   UNL     1       3.847  -0.279  -4.704  0.00  0.00    +0.000 NA
ATOM     26  C   UNL     1       3.889  -1.387  -4.040  0.00  0.00    +0.000 A 
ATOM     27  N   UNL     1       3.502  -1.534  -2.735  0.00  0.00    +0.000 N 
ATOM     28  C   UNL     1       3.009  -0.498  -1.981  0.00  0.00    +0.000 A 
ATOM     29  O   UNL     1       2.651  -0.675  -0.824  0.00  0.00    +0.000 OA
ATOM     30  C   UNL     1       2.987   0.781  -2.669  0.00  0.00    +0.000 A 
ATOM     31  H   UNL     1       3.553  -2.427  -2.269  0.00  0.00    +0.000 HD
ENDBRANCH  18  21
ENDBRANCH   1  19
TORSDOF 6
