REMARK  Name = 
REMARK  12 active torsions:
REMARK  status: ('A' for Active; 'I' for Inactive)
REMARK    1  A    between atoms: C_1  and  C_2
REMARK    2  A    between atoms: C_2  and  C_3
REMARK    3  A    between atoms: C_2  and  O_4
REMARK    4  A    between atoms: C_2  and  C_5
REMARK    5  A    between atoms: C_5  and  C_6
REMARK    6  A    between atoms: N_8  and  C_9
REMARK    7  A    between atoms: C_9  and  C_10
REMARK    8  A    between atoms: C_15  and  C_16
REMARK    9  A    between atoms: C_24  and  C_25
REMARK   10  A    between atoms: C_25  and  C_26
REMARK   11  A    between atoms: C_25  and  C_27
REMARK   12  A    between atoms: C_25  and  C_28
REMARK                            x       y       z     vdW  Elec       q    Type
REMARK                         _______ _______ _______ _____ _____    ______ ____
ROOT
ATOM      1  C   UNL     1       7.639   0.070   1.994  0.00  0.00    +0.000 C 
ENDROOT
BRANCH   1   2
ATOM      2  C   UNL     1       8.042  -0.546   3.304  0.00  0.00    +0.000 A 
ATOM      3  C   UNL     1       8.981  -1.563   3.368  0.00  0.00    +0.000 A 
ATOM      4  N   UNL     1       9.354  -2.193   4.510  0.00  0.00    +0.000 NA
ATOM      5  C   UNL     1       8.790  -1.843   5.666  0.00  0.00    +0.000 A 
ATOM      6  N   UNL     1       9.152  -2.506   6.757  0.00  0.00    +0.000 NA
ATOM      7  C   UNL     1       8.567  -2.137   7.915  0.00  0.00    +0.000 A 
ATOM      8  N   UNL     1       7.669  -1.150   8.070  0.00  0.00    +0.000 NA
ATOM      9  C   UNL     1       7.328  -0.504   6.947  0.00  0.00    +0.000 A 
ATOM     10  C   UNL     1       7.851  -0.809   5.702  0.00  0.00    +0.000 A 
ATOM     11  C   UNL     1       7.475  -0.153   4.514  0.00  0.00    +0.000 A 
BRANCH   7  12
ATOM     12  C   UNL     1       8.958  -2.922   9.148  0.00  0.00    +0.000 C 
ATOM     13  N   UNL     1       9.868  -3.936   8.957  0.00  0.00    +0.000 N 
ATOM     14  O   UNL     1       8.509  -2.699  10.267  0.00  0.00    +0.000 OA
ATOM     15  H   UNL     1      10.228  -4.131   8.026  0.00  0.00    +0.000 HD
ATOM     16  H   UNL     1      10.148  -4.497   9.742  0.00  0.00    +0.000 HD
ENDBRANCH   7  12
ENDBRANCH   1   2
BRANCH   1  19
ATOM     17  C   UNL     1       4.478  -0.982   0.868  0.00  0.00    +0.000 A 
ATOM     18  N   UNL     1       5.255  -0.211   1.644  0.00  0.00    +0.000 NA
ATOM     19  N   UNL     1       6.505  -0.620   1.390  0.00  0.00    +0.000 N 
ATOM     20  C   UNL     1       6.557  -1.644   0.494  0.00  0.00    +0.000 A 
ATOM     21  C   UNL     1       5.254  -1.938   0.118  0.00  0.00    +0.000 A 
BRANCH  21  22
ATOM     22  C   UNL     1       4.818  -3.032  -0.862  0.00  0.00    +0.000 C 
ATOM     23  C   UNL     1       6.044  -3.827  -1.383  0.00  0.00    +0.000 C 
ATOM     24  C   UNL     1       3.874  -4.054  -0.198  0.00  0.00    +0.000 C 
ATOM     25  C   UNL     1       4.107  -2.435  -2.092  0.00  0.00    +0.000 C 
ENDBRANCH  21  22
BRANCH  17  26
ATOM     26  C   UNL     1       2.989  -0.780   0.928  0.00  0.00    +0.000 C 
BRANCH  26  28
ATOM     27  C   UNL     1       2.824   0.957  -0.922  0.00  0.00    +0.000 C 
ATOM     28  C   UNL     1       2.457   0.615   0.524  0.00  0.00    +0.000 C 
ATOM     29  C   UNL     1       2.896   1.751   1.456  0.00  0.00    +0.000 C 
BRANCH  28  30
ATOM     30  O   UNL     1       1.017   0.535   0.594  0.00  0.00    +0.000 OA
ATOM     31  H   UNL     1       0.659   1.440   0.592  0.00  0.00    +0.000 HD
ENDBRANCH  28  30
ENDBRANCH  26  28
ENDBRANCH  17  26
ENDBRANCH   1  19
TORSDOF 7
