REMARK  Name = 
REMARK  6 active torsions:
REMARK  status: ('A' for Active; 'I' for Inactive)
REMARK    1  A    between atoms: C_2  and  C_4
REMARK    2  A    between atoms: C_8  and  O_9
REMARK    3  A    between atoms: O_9  and  C_10
REMARK    4  A    between atoms: C_10  and  C_11
REMARK    5  A    between atoms: C_15  and  N_16
REMARK    6  A    between atoms: C_19  and  O_20
REMARK                            x       y       z     vdW  Elec       q    Type
REMARK                         _______ _______ _______ _____ _____    ______ ____
ROOT
ATOM      1  C   UNL     1       1.936   0.388   6.731  0.00  0.00    +0.000 A 
ATOM      2  C   UNL     1       1.818   1.614   7.372  0.00  0.00    +0.000 A 
ATOM      3  N   UNL     1       1.574   1.726   8.692  0.00  0.00    +0.000 NA
ATOM      4  C   UNL     1       1.466   0.544   9.345  0.00  0.00    +0.000 A 
ATOM      5  C   UNL     1       1.578  -0.714   8.740  0.00  0.00    +0.000 A 
ATOM      6  N   UNL     1       1.825  -0.784   7.412  0.00  0.00    +0.000 NA
ENDROOT
BRANCH   5   7
ATOM      7  N   UNL     1       1.388  -1.881   9.446  0.00  0.00    +0.000 N 
ATOM      8  C   UNL     1       0.908  -3.066   8.752  0.00  0.00    +0.000 C 
ATOM      9  C   UNL     1       1.975  -4.155   8.790  0.00  0.00    +0.000 C 
ATOM     10  C   UNL     1       2.514  -4.391  10.203  0.00  0.00    +0.000 C 
ATOM     11  C   UNL     1       2.943  -3.092  10.888  0.00  0.00    +0.000 C 
ATOM     12  C   UNL     1       1.855  -2.026  10.816  0.00  0.00    +0.000 C 
BRANCH  10  13
ATOM     13  O   UNL     1       1.555  -5.082  11.004  0.00  0.00    +0.000 OA
ATOM     14  H   UNL     1       0.744  -4.552  11.058  0.00  0.00    +0.000 HD
ENDBRANCH  10  13
ENDBRANCH   5   7
BRANCH   1  15
ATOM     15  C   UNL     1       2.101   0.332   5.236  0.00  0.00    +0.000 C 
BRANCH  15  16
ATOM     16  O   UNL     1       3.485   0.386   4.893  0.00  0.00    +0.000 OA
BRANCH  16  21
ATOM     17  C   UNL     1       3.362   0.196   1.194  0.00  0.00    +0.000 A 
ATOM     18  C   UNL     1       4.733   0.231   0.982  0.00  0.00    +0.000 A 
ATOM     19  N   UNL     1       5.640   0.341   1.982  0.00  0.00    +0.000 NA
ATOM     20  C   UNL     1       5.146   0.389   3.243  0.00  0.00    +0.000 A 
ATOM     21  C   UNL     1       3.791   0.342   3.562  0.00  0.00    +0.000 A 
ATOM     22  C   UNL     1       2.884   0.247   2.508  0.00  0.00    +0.000 A 
BRANCH  17  24
ATOM     23  N   UNL     1       1.217   0.624   0.138  0.00  0.00    +0.000 N 
ATOM     24  C   UNL     1       2.461   0.054   0.032  0.00  0.00    +0.000 C 
ATOM     25  O   UNL     1       2.811  -0.522  -0.980  0.00  0.00    +0.000 OA
ATOM     26  H   UNL     1       0.644   0.593  -0.695  0.00  0.00    +0.000 HD
ATOM     27  H   UNL     1       0.992   1.320   0.833  0.00  0.00    +0.000 HD
ENDBRANCH  17  24
ENDBRANCH  16  21
ENDBRANCH  15  16
ENDBRANCH   1  15
TORSDOF 6
