REMARK  Name = 
REMARK  5 active torsions:
REMARK  status: ('A' for Active; 'I' for Inactive)
REMARK    1  A    between atoms: C_1  and  C_2
REMARK    2  A    between atoms: C_2  and  C_3
REMARK    3  A    between atoms: C_2  and  C_15
REMARK    4  A    between atoms: C_3  and  N_4
REMARK    5  A    between atoms: C_8  and  C_9
REMARK                            x       y       z     vdW  Elec       q    Type
REMARK                         _______ _______ _______ _____ _____    ______ ____
ROOT
ATOM      1  N   UNL     1       2.691   0.771   2.324  0.00  0.00    +0.000 N 
ATOM      2  C   UNL     1       3.243   0.555   3.591  0.00  0.00    +0.000 A 
ATOM      3  C   UNL     1       3.024   1.501   4.588  0.00  0.00    +0.000 A 
ATOM      4  C   UNL     1       3.573   1.300   5.856  0.00  0.00    +0.000 A 
ATOM      5  C   UNL     1       4.324   0.152   6.112  0.00  0.00    +0.000 A 
ATOM      6  C   UNL     1       4.519  -0.715   5.051  0.00  0.00    +0.000 A 
ATOM      7 CL   UNL     1       5.467  -2.154   5.109  0.00  0.00    +0.000 Cl
ATOM      8  N   UNL     1       3.998  -0.534   3.816  0.00  0.00    +0.000 NA
ATOM      9  H   UNL     1       1.688   0.914   2.415  0.00  0.00    +0.000 HD
ENDROOT
BRANCH   5  10
ATOM     10  C   UNL     1       4.859  -0.038   7.476  0.00  0.00    +0.000 C 
ATOM     11  N   UNL     1       5.030  -1.310   7.940  0.00  0.00    +0.000 N 
ATOM     12  O   UNL     1       5.098   0.925   8.196  0.00  0.00    +0.000 OA
ATOM     13  H   UNL     1       4.895  -2.139   7.374  0.00  0.00    +0.000 HD
ATOM     14  H   UNL     1       5.431  -1.426   8.861  0.00  0.00    +0.000 HD
ENDBRANCH   5  10
BRANCH   1  15
ATOM     15  C   UNL     1       2.986  -0.291   1.368  0.00  0.00    +0.000 C 
BRANCH  15  17
ATOM     16  C   UNL     1       2.782   1.152  -0.746  0.00  0.00    +0.000 C 
ATOM     17  C   UNL     1       2.251   0.041   0.104  0.00  0.00    +0.000 C 
BRANCH  17  18
ATOM     18  C   UNL     1       0.846  -0.370  -0.018  0.00  0.00    +0.000 A 
ATOM     19  C   UNL     1       0.471  -1.714   0.106  0.00  0.00    +0.000 A 
ATOM     20  C   UNL     1      -0.875  -2.081   0.033  0.00  0.00    +0.000 A 
ATOM     21  C   UNL     1      -1.856  -1.108  -0.156  0.00  0.00    +0.000 A 
ATOM     22  C   UNL     1      -1.492   0.229  -0.283  0.00  0.00    +0.000 A 
ATOM     23  C   UNL     1      -0.148   0.594  -0.222  0.00  0.00    +0.000 A 
ENDBRANCH  17  18
ENDBRANCH  15  17
ENDBRANCH   1  15
TORSDOF 4
