REMARK  Name = 
REMARK  9 active torsions:
REMARK  status: ('A' for Active; 'I' for Inactive)
REMARK    1  A    between atoms: C_1  and  C_2
REMARK    2  A    between atoms: C_2  and  C_3
REMARK    3  A    between atoms: C_2  and  C_14
REMARK    4  A    between atoms: C_3  and  N_4
REMARK    5  A    between atoms: C_8  and  C_9
REMARK    6  A    between atoms: C_18  and  O_19
REMARK    7  A    between atoms: O_19  and  C_20
REMARK    8  A    between atoms: C_22  and  C_23
REMARK    9  A    between atoms: C_22  and  O_24
REMARK                            x       y       z     vdW  Elec       q    Type
REMARK                         _______ _______ _______ _____ _____    ______ ____
ROOT
ATOM      1  C   UNL     1       0.086  -9.347   0.697  0.00  0.00    +0.000 C 
ATOM      2  C   UNL     1      -0.705  -8.969   1.959  0.00  0.00    +0.000 C 
ENDROOT
BRANCH   2   3
ATOM      3  C   UNL     1      -0.421  -7.524   2.385  0.00  0.00    +0.000 A 
ATOM      4  C   UNL     1      -1.429  -6.549   2.463  0.00  0.00    +0.000 A 
ATOM      5  C   UNL     1      -1.168  -5.259   2.921  0.00  0.00    +0.000 A 
ATOM      6  C   UNL     1       0.117  -4.911   3.311  0.00  0.00    +0.000 A 
ATOM      7  C   UNL     1       1.133  -5.864   3.270  0.00  0.00    +0.000 A 
ATOM      8  C   UNL     1       0.875  -7.152   2.788  0.00  0.00    +0.000 A 
BRANCH   7   9
ATOM      9  O   UNL     1       2.407  -5.620   3.727  0.00  0.00    +0.000 OA
BRANCH   9  10
ATOM     10  C   UNL     1       2.537  -4.670   4.815  0.00  0.00    +0.000 C 
ATOM     11  C   UNL     1       1.815  -5.012   6.142  0.00  0.00    +0.000 C 
ATOM     12  C   UNL     1       3.163  -5.497   6.724  0.00  0.00    +0.000 C 
ATOM     13  C   UNL     1       3.359  -7.007   6.673  0.00  0.00    +0.000 C 
ATOM     14  C   UNL     1       3.873  -4.722   5.586  0.00  0.00    +0.000 C 
BRANCH  12  15
ATOM     15  O   UNL     1       3.453  -5.037   8.062  0.00  0.00    +0.000 OA
ATOM     16  H   UNL     1       3.215  -4.095   8.079  0.00  0.00    +0.000 HD
ENDBRANCH  12  15
ENDBRANCH   9  10
ENDBRANCH   7   9
ENDBRANCH   2   3
BRANCH   2  17
ATOM     17  C   UNL     1      -2.202  -9.300   1.714  0.00  0.00    +0.000 C 
BRANCH  17  18
ATOM     18  N   UNL     1      -2.995  -9.152   2.944  0.00  0.00    +0.000 N 
ATOM     19  C   UNL     1      -3.091 -10.287   3.754  0.00  0.00    +0.000 A 
ATOM     20  C   UNL     1      -3.756 -10.212   4.986  0.00  0.00    +0.000 A 
ATOM     21  N   UNL     1      -3.968 -11.276   5.805  0.00  0.00    +0.000 NA
ATOM     22  C   UNL     1      -3.452 -12.445   5.336  0.00  0.00    +0.000 A 
ATOM     23  C   UNL     1      -2.756 -12.530   4.144  0.00  0.00    +0.000 A 
ATOM     24  N   UNL     1      -2.560 -11.456   3.342  0.00  0.00    +0.000 NA
ATOM     25  H   UNL     1      -3.924  -8.785   2.761  0.00  0.00    +0.000 HD
BRANCH  22  26
ATOM     26  C   UNL     1      -3.688 -13.679   6.126  0.00  0.00    +0.000 C 
ATOM     27  N   UNL     1      -4.395 -13.526   7.286  0.00  0.00    +0.000 N 
ATOM     28  O   UNL     1      -3.283 -14.777   5.761  0.00  0.00    +0.000 OA
ATOM     29  H   UNL     1      -4.734 -12.610   7.558  0.00  0.00    +0.000 HD
ATOM     30  H   UNL     1      -4.607 -14.338   7.847  0.00  0.00    +0.000 HD
ENDBRANCH  22  26
ENDBRANCH  17  18
ENDBRANCH   2  17
TORSDOF 7
