REMARK  Name = 
REMARK  4 active torsions:
REMARK  status: ('A' for Active; 'I' for Inactive)
REMARK    1  A    between atoms: N_1  and  C_2
REMARK    2  A    between atoms: C_2  and  C_3
REMARK    3  A    between atoms: N_6  and  C_7
REMARK    4  A    between atoms: C_7  and  C_8
REMARK                            x       y       z     vdW  Elec       q    Type
REMARK                         _______ _______ _______ _____ _____    ______ ____
ROOT
ATOM      1  C   UNL     1       4.613   3.435  -2.064  0.00  0.00    +0.000 C 
ENDROOT
BRANCH   1   2
ATOM      2  C   UNL     1       4.198   4.837  -2.412  0.00  0.00    +0.000 A 
ATOM      3  C   UNL     1       4.554   5.992  -1.739  0.00  0.00    +0.000 A 
ATOM      4  N   UNL     1       4.051   7.064  -2.422  0.00  0.00    +0.000 N 
ATOM      5  C   UNL     1       3.396   6.640  -3.555  0.00  0.00    +0.000 A 
ATOM      6  C   UNL     1       2.792   7.384  -4.578  0.00  0.00    +0.000 A 
ATOM      7  C   UNL     1       2.207   6.679  -5.632  0.00  0.00    +0.000 A 
ATOM      8  C   UNL     1       2.197   5.286  -5.637  0.00  0.00    +0.000 A 
ATOM      9 CL   UNL     1       1.464   4.447  -6.951  0.00  0.00    +0.000 Cl
ATOM     10  C   UNL     1       2.789   4.555  -4.603  0.00  0.00    +0.000 A 
ATOM     11  C   UNL     1       3.429   5.244  -3.552  0.00  0.00    +0.000 A 
ATOM     12  H   UNL     1       4.169   8.031  -2.155  0.00  0.00    +0.000 HD
ENDBRANCH   1   2
BRANCH   1  16
ATOM     13  C   UNL     1       2.751   1.039   0.980  0.00  0.00    +0.000 C 
ATOM     14  C   UNL     1       2.233   2.462   0.740  0.00  0.00    +0.000 C 
ATOM     15  C   UNL     1       2.717   3.027  -0.595  0.00  0.00    +0.000 C 
ATOM     16  N   UNL     1       4.183   3.029  -0.708  0.00  0.00    +0.000 NA
ATOM     17  C   UNL     1       4.777   1.712  -0.406  0.00  0.00    +0.000 C 
ATOM     18  C   UNL     1       4.283   1.095   0.907  0.00  0.00    +0.000 C 
BRANCH  13  19
ATOM     19  C   UNL     1       2.191  -0.011  -0.004  0.00  0.00    +0.000 C 
BRANCH  19  20
ATOM     20  N   UNL     1       0.735  -0.106   0.038  0.00  0.00    +0.000 NA
ATOM     21  H   UNL     1       0.428  -0.819  -0.623  0.00  0.00    +0.000 HD
ATOM     22  H   UNL     1       0.320   0.766  -0.287  0.00  0.00    +0.000 HD
ENDBRANCH  19  20
ENDBRANCH  13  19
ENDBRANCH   1  16
TORSDOF 4
