REMARK  Name = 
REMARK  5 active torsions:
REMARK  status: ('A' for Active; 'I' for Inactive)
REMARK    1  A    between atoms: C_2  and  C_4
REMARK    2  A    between atoms: C_7  and  N_8
REMARK    3  A    between atoms: N_8  and  C_9
REMARK    4  A    between atoms: C_9  and  C_10
REMARK    5  A    between atoms: C_14  and  C_15
REMARK                            x       y       z     vdW  Elec       q    Type
REMARK                         _______ _______ _______ _____ _____    ______ ____
ROOT
ATOM      1  C   UNL     1       4.993   2.688  -5.389  0.00  0.00    +0.000 C 
ENDROOT
BRANCH   1   2
ATOM      2  C   UNL     1       6.014   2.963  -6.478  0.00  0.00    +0.000 A 
ATOM      3  C   UNL     1       6.251   4.267  -6.923  0.00  0.00    +0.000 A 
ATOM      4  C   UNL     1       7.223   4.510  -7.895  0.00  0.00    +0.000 A 
ATOM      5  C   UNL     1       7.977   3.456  -8.413  0.00  0.00    +0.000 A 
ATOM      6  C   UNL     1       7.780   2.132  -7.984  0.00  0.00    +0.000 A 
ATOM      7  C   UNL     1       6.764   1.908  -7.035  0.00  0.00    +0.000 A 
BRANCH   6   8
ATOM      8  C   UNL     1       8.634   1.030  -8.470  0.00  0.00    +0.000 A 
ATOM      9  C   UNL     1      10.007   1.204  -8.696  0.00  0.00    +0.000 A 
ATOM     10  N   UNL     1      10.865   0.240  -9.120  0.00  0.00    +0.000 NA
ATOM     11  C   UNL     1      10.330  -0.983  -9.326  0.00  0.00    +0.000 A 
ATOM     12  C   UNL     1       8.994  -1.269  -9.130  0.00  0.00    +0.000 A 
ATOM     13  F   UNL     1       8.523  -2.505  -9.344  0.00  0.00    +0.000 F 
ATOM     14  C   UNL     1       8.138  -0.261  -8.703  0.00  0.00    +0.000 A 
ENDBRANCH   6   8
ENDBRANCH   1   2
BRANCH   1  15
ATOM     15  N   UNL     1       5.668   2.017  -4.281  0.00  0.00    +0.000 N 
ATOM     16  H   UNL     1       6.497   2.530  -3.992  0.00  0.00    +0.000 HD
BRANCH  15  20
ATOM     17  C   UNL     1       3.458   1.019  -0.960  0.00  0.00    +0.000 A 
ATOM     18  C   UNL     1       2.866   1.667  -2.034  0.00  0.00    +0.000 A 
ATOM     19  N   UNL     1       3.558   2.025  -3.152  0.00  0.00    +0.000 NA
ATOM     20  C   UNL     1       4.872   1.722  -3.168  0.00  0.00    +0.000 A 
ATOM     21  C   UNL     1       5.449   1.057  -2.074  0.00  0.00    +0.000 A 
ATOM     22  N   UNL     1       4.779   0.698  -0.946  0.00  0.00    +0.000 NA
BRANCH  17  24
ATOM     23  N   UNL     1       3.318   0.055   1.261  0.00  0.00    +0.000 N 
ATOM     24  C   UNL     1       2.642   0.651   0.229  0.00  0.00    +0.000 C 
ATOM     25  O   UNL     1       1.440   0.874   0.292  0.00  0.00    +0.000 OA
ATOM     26  H   UNL     1       2.818  -0.187   2.105  0.00  0.00    +0.000 HD
ATOM     27  H   UNL     1       4.323  -0.070   1.209  0.00  0.00    +0.000 HD
ENDBRANCH  17  24
ENDBRANCH  15  20
ENDBRANCH   1  15
TORSDOF 5
