REMARK  Name = 
REMARK  6 active torsions:
REMARK  status: ('A' for Active; 'I' for Inactive)
REMARK    1  A    between atoms: C_1  and  O_2
REMARK    2  A    between atoms: O_2  and  C_3
REMARK    3  A    between atoms: C_5  and  C_6
REMARK    4  A    between atoms: C_6  and  N_7
REMARK    5  A    between atoms: C_11  and  C_12
REMARK    6  A    between atoms: C_20  and  C_21
REMARK                            x       y       z     vdW  Elec       q    Type
REMARK                         _______ _______ _______ _____ _____    ______ ____
ROOT
ATOM      1  C   UNL     1       3.020  -0.078  -4.692  0.00  0.00    +0.000 C 
ATOM      2  C   UNL     1       1.691  -0.585  -5.215  0.00  0.00    +0.000 C 
ATOM      3  C   UNL     1       2.945  -1.252  -5.671  0.00  0.00    +0.000 C 
ENDROOT
BRANCH   1   4
ATOM      4  N   UNL     1       3.676   1.108  -5.242  0.00  0.00    +0.000 N 
ATOM      5  C   UNL     1       3.277   2.431  -5.130  0.00  0.00    +0.000 A 
ATOM      6  C   UNL     1       2.032   2.859  -4.665  0.00  0.00    +0.000 A 
ATOM      7  N   UNL     1       1.643   4.164  -4.610  0.00  0.00    +0.000 NA
ATOM      8  C   UNL     1       2.572   5.048  -5.069  0.00  0.00    +0.000 A 
ATOM      9  C   UNL     1       3.809   4.642  -5.536  0.00  0.00    +0.000 A 
ATOM     10  N   UNL     1       4.182   3.336  -5.566  0.00  0.00    +0.000 NA
ATOM     11  H   UNL     1       4.658   1.059  -5.502  0.00  0.00    +0.000 HD
BRANCH   8  12
ATOM     12  C   UNL     1       2.225   6.495  -5.077  0.00  0.00    +0.000 C 
ATOM     13  N   UNL     1       0.989   6.817  -4.586  0.00  0.00    +0.000 N 
ATOM     14  O   UNL     1       2.993   7.349  -5.499  0.00  0.00    +0.000 OA
ATOM     15  H   UNL     1       0.367   6.091  -4.250  0.00  0.00    +0.000 HD
ATOM     16  H   UNL     1       0.699   7.785  -4.576  0.00  0.00    +0.000 HD
ENDBRANCH   8  12
ENDBRANCH   1   4
BRANCH   1  19
ATOM     17  C   UNL     1       3.171  -0.387  -0.926  0.00  0.00    +0.000 A 
ATOM     18  C   UNL     1       2.754   0.061  -2.157  0.00  0.00    +0.000 A 
ATOM     19  C   UNL     1       3.428  -0.434  -3.256  0.00  0.00    +0.000 A 
ATOM     20  N   UNL     1       4.464  -1.288  -3.101  0.00  0.00    +0.000 NA
ATOM     21  C   UNL     1       4.796  -1.672  -1.858  0.00  0.00    +0.000 A 
ATOM     22  N   UNL     1       4.177  -1.254  -0.748  0.00  0.00    +0.000 NA
BRANCH  21  23
ATOM     23  C   UNL     1       5.892  -2.647  -1.716  0.00  0.00    +0.000 A 
ATOM     24  C   UNL     1       6.618  -3.097  -2.837  0.00  0.00    +0.000 A 
ATOM     25  C   UNL     1       7.650  -4.029  -2.711  0.00  0.00    +0.000 A 
ATOM     26  C   UNL     1       7.978  -4.534  -1.458  0.00  0.00    +0.000 A 
ATOM     27 CL   UNL     1       9.247  -5.683  -1.300  0.00  0.00    +0.000 Cl
ATOM     28  C   UNL     1       7.281  -4.111  -0.330  0.00  0.00    +0.000 A 
ATOM     29  C   UNL     1       6.249  -3.175  -0.460  0.00  0.00    +0.000 A 
ENDBRANCH  21  23
BRANCH  17  31
ATOM     30  C   UNL     1       2.919  -0.504   1.396  0.00  0.00    +0.000 C 
ATOM     31  O   UNL     1       2.486   0.092   0.174  0.00  0.00    +0.000 OA
ENDBRANCH  17  31
ENDBRANCH   1  19
TORSDOF 5
