REMARK  Name = 
REMARK  4 active torsions:
REMARK  status: ('A' for Active; 'I' for Inactive)
REMARK    1  A    between atoms: C_2  and  C_3
REMARK    2  A    between atoms: N_7  and  C_8
REMARK    3  A    between atoms: C_8  and  C_9
REMARK    4  A    between atoms: C_13  and  C_14
REMARK                            x       y       z     vdW  Elec       q    Type
REMARK                         _______ _______ _______ _____ _____    ______ ____
ROOT
ATOM      1  C   UNL     1       5.402   0.079   0.070  0.00  0.00    +0.000 A 
ATOM      2  C   UNL     1       5.937  -0.438   1.257  0.00  0.00    +0.000 A 
ATOM      3  C   UNL     1       6.636  -1.641   1.254  0.00  0.00    +0.000 A 
ATOM      4  C   UNL     1       6.826  -2.336   0.056  0.00  0.00    +0.000 A 
ATOM      5  C   UNL     1       6.375  -1.817  -1.168  0.00  0.00    +0.000 A 
ATOM      6  C   UNL     1       5.714  -0.579  -1.137  0.00  0.00    +0.000 A 
ENDROOT
BRANCH   5   7
ATOM      7  C   UNL     1       6.450  -2.593  -2.424  0.00  0.00    +0.000 A 
ATOM      8  C   UNL     1       6.180  -3.974  -2.429  0.00  0.00    +0.000 A 
ATOM      9  C   UNL     1       6.170  -4.699  -3.619  0.00  0.00    +0.000 A 
ATOM     10  F   UNL     1       5.896  -6.009  -3.584  0.00  0.00    +0.000 F 
ATOM     11  C   UNL     1       6.417  -4.085  -4.835  0.00  0.00    +0.000 A 
ATOM     12  C   UNL     1       6.685  -2.726  -4.845  0.00  0.00    +0.000 A 
ATOM     13  F   UNL     1       6.910  -2.110  -6.013  0.00  0.00    +0.000 F 
ATOM     14  C   UNL     1       6.709  -1.982  -3.664  0.00  0.00    +0.000 A 
ENDBRANCH   5   7
BRANCH   1  15
ATOM     15  C   UNL     1       4.339   1.175   0.077  0.00  0.00    +0.000 C 
ATOM     16  C   UNL     1       2.982   0.673  -0.413  0.00  0.00    +0.000 C 
ATOM     17  C   UNL     1       3.166   1.023   1.031  0.00  0.00    +0.000 C 
BRANCH  15  22
ATOM     18  C   UNL     1       2.726   5.830  -1.418  0.00  0.00    +0.000 A 
ATOM     19  C   UNL     1       2.129   4.794  -0.755  0.00  0.00    +0.000 A 
ATOM     20  N   UNL     1       2.798   3.692  -0.368  0.00  0.00    +0.000 NA
ATOM     21  C   UNL     1       4.114   3.616  -0.627  0.00  0.00    +0.000 A 
ATOM     22  N   UNL     1       4.857   2.502  -0.255  0.00  0.00    +0.000 N 
ATOM     23  N   UNL     1       4.787   4.607  -1.238  0.00  0.00    +0.000 NA
ATOM     24  C   UNL     1       4.071   5.683  -1.644  0.00  0.00    +0.000 A 
ATOM     25  H   UNL     1       5.849   2.684  -0.323  0.00  0.00    +0.000 HD
BRANCH  18  27
ATOM     26  N   UNL     1       1.394   7.891  -2.197  0.00  0.00    +0.000 NA
ATOM     27  C   UNL     1       2.005   6.971  -1.850  0.00  0.00    +0.000 C 
ENDBRANCH  18  27
ENDBRANCH  15  22
ENDBRANCH   1  15
TORSDOF 4
