REMARK  Name = 
REMARK  4 active torsions:
REMARK  status: ('A' for Active; 'I' for Inactive)
REMARK    1  A    between atoms: C_2  and  C_4
REMARK    2  A    between atoms: C_7  and  N_8
REMARK    3  A    between atoms: N_8  and  C_9
REMARK    4  A    between atoms: C_9  and  C_10
REMARK                            x       y       z     vdW  Elec       q    Type
REMARK                         _______ _______ _______ _____ _____    ______ ____
ROOT
ATOM      1  C   UNL     1       2.619  -1.472   6.482  0.00  0.00    +0.000 A 
ATOM      2  C   UNL     1       3.049  -0.886   5.303  0.00  0.00    +0.000 A 
ATOM      3  N   UNL     1       3.515  -1.621   4.255  0.00  0.00    +0.000 NA
ATOM      4  C   UNL     1       3.607  -2.956   4.442  0.00  0.00    +0.000 A 
ATOM      5  C   UNL     1       3.228  -3.514   5.669  0.00  0.00    +0.000 A 
ATOM      6  N   UNL     1       2.710  -2.807   6.707  0.00  0.00    +0.000 NA
ENDROOT
BRANCH   1   8
ATOM      7  N   UNL     1       1.456  -1.345   8.601  0.00  0.00    +0.000 N 
ATOM      8  C   UNL     1       1.940  -0.661   7.518  0.00  0.00    +0.000 C 
ATOM      9  O   UNL     1       1.744   0.545   7.381  0.00  0.00    +0.000 OA
ATOM     10  H   UNL     1       0.875  -0.864   9.274  0.00  0.00    +0.000 HD
ATOM     11  H   UNL     1       1.570  -2.351   8.642  0.00  0.00    +0.000 HD
ENDBRANCH   1   8
BRANCH   4  12
ATOM     12  N   UNL     1       3.940  -3.733   3.317  0.00  0.00    +0.000 N 
ATOM     13  H   UNL     1       3.228  -3.544   2.616  0.00  0.00    +0.000 HD
BRANCH  12  14
ATOM     14  C   UNL     1       4.388  -5.130   3.447  0.00  0.00    +0.000 C 
ATOM     15  C   UNL     1       3.979  -6.177   2.411  0.00  0.00    +0.000 C 
ATOM     16  C   UNL     1       3.348  -6.190   3.760  0.00  0.00    +0.000 C 
BRANCH  14  17
ATOM     17  C   UNL     1       5.857  -5.285   3.825  0.00  0.00    +0.000 A 
ATOM     18  C   UNL     1       6.268  -5.915   5.007  0.00  0.00    +0.000 A 
ATOM     19  C   UNL     1       7.599  -6.291   5.198  0.00  0.00    +0.000 A 
ATOM     20  C   UNL     1       8.551  -6.009   4.222  0.00  0.00    +0.000 A 
ATOM     21  C   UNL     1       8.188  -5.288   3.090  0.00  0.00    +0.000 A 
ATOM     22  C   UNL     1       6.858  -4.918   2.904  0.00  0.00    +0.000 A 
ENDBRANCH  14  17
ENDBRANCH  12  14
ENDBRANCH   4  12
TORSDOF 4
