REMARK  Name = 
REMARK  6 active torsions:
REMARK  status: ('A' for Active; 'I' for Inactive)
REMARK    1  A    between atoms: C_2  and  C_20
REMARK    2  A    between atoms: N_3  and  C_4
REMARK    3  A    between atoms: C_4  and  C_5
REMARK    4  A    between atoms: C_8  and  C_9
REMARK    5  A    between atoms: C_9  and  N_10
REMARK    6  A    between atoms: C_11  and  C_13
REMARK                            x       y       z     vdW  Elec       q    Type
REMARK                         _______ _______ _______ _____ _____    ______ ____
ROOT
ATOM      1  C   UNL     1       3.181  -3.364  -1.480  0.00  0.00    +0.000 A 
ATOM      2  C   UNL     1       4.456  -3.005  -1.942  0.00  0.00    +0.000 A 
ATOM      3  C   UNL     1       5.383  -3.984  -2.327  0.00  0.00    +0.000 A 
ATOM      4  C   UNL     1       5.047  -5.344  -2.289  0.00  0.00    +0.000 A 
ATOM      5  C   UNL     1       3.767  -5.701  -1.842  0.00  0.00    +0.000 A 
ATOM      6  C   UNL     1       2.840  -4.722  -1.458  0.00  0.00    +0.000 A 
ENDROOT
BRANCH   1   7
ATOM      7  C   UNL     1       2.204  -2.308  -1.019  0.00  0.00    +0.000 C 
BRANCH   7  10
ATOM      8  O   UNL     1       0.151  -0.432  -0.755  0.00  0.00    +0.000 OA
ATOM      9  C   UNL     1       0.404  -0.881  -1.870  0.00  0.00    +0.000 C 
ATOM     10  N   UNL     1       1.334  -1.871  -2.079  0.00  0.00    +0.000 N 
ATOM     11  H   UNL     1       1.675  -2.025  -3.021  0.00  0.00    +0.000 HD
BRANCH   9  12
ATOM     12  C   UNL     1      -0.307  -0.411  -3.065  0.00  0.00    +0.000 A 
ATOM     13  C   UNL     1      -1.602   0.084  -2.984  0.00  0.00    +0.000 A 
ATOM     14  S   UNL     1      -2.250   0.539  -4.495  0.00  0.00    +0.000 S 
ATOM     15  C   UNL     1      -0.806   0.139  -5.302  0.00  0.00    +0.000 A 
ATOM     16  N   UNL     1      -0.669   0.305  -6.644  0.00  0.00    +0.000 NA
ATOM     17  C   UNL     1       0.493  -0.004  -7.109  0.00  0.00    +0.000 A 
ATOM     18  N   UNL     1       1.540  -0.466  -6.350  0.00  0.00    +0.000 N 
ATOM     19  C   UNL     1       1.441  -0.682  -5.003  0.00  0.00    +0.000 A 
ATOM     20  O   UNL     1       2.378  -1.150  -4.365  0.00  0.00    +0.000 OA
ATOM     21  C   UNL     1       0.152  -0.343  -4.428  0.00  0.00    +0.000 A 
ATOM     22  H   UNL     1       2.425  -0.705  -6.772  0.00  0.00    +0.000 HD
ENDBRANCH   9  12
ENDBRANCH   7  10
ENDBRANCH   1   7
BRANCH   4  23
ATOM     23  C   UNL     1       6.016  -6.395  -2.767  0.00  0.00    +0.000 C 
BRANCH  23  24
ATOM     24  N   UNL     1       6.907  -6.879  -1.740  0.00  0.00    +0.000 N 
ATOM     25  C   UNL     1       7.845  -7.847  -2.028  0.00  0.00    +0.000 C 
ATOM     26  O   UNL     1       7.987  -8.325  -3.153  0.00  0.00    +0.000 OA
ATOM     27  H   UNL     1       6.706  -6.732  -0.755  0.00  0.00    +0.000 HD
BRANCH  25  28
ATOM     28  C   UNL     1       8.736  -8.276  -0.853  0.00  0.00    +0.000 C 
ATOM     29  C   UNL     1       8.585  -9.746  -0.516  0.00  0.00    +0.000 C 
ATOM     30  C   UNL     1       9.164  -9.828   0.882  0.00  0.00    +0.000 C 
ATOM     31  C   UNL     1       8.876  -8.466   1.499  0.00  0.00    +0.000 C 
ATOM     32  N   UNL     1       8.375  -7.603   0.420  0.00  0.00    +0.000 NA
ATOM     33  H   UNL     1       8.839  -6.695   0.459  0.00  0.00    +0.000 HD
ENDBRANCH  25  28
ENDBRANCH  23  24
ENDBRANCH   4  23
TORSDOF 6
