REMARK  Name = 
REMARK  6 active torsions:
REMARK  status: ('A' for Active; 'I' for Inactive)
REMARK    1  A    between atoms: C_1  and  C_2
REMARK    2  A    between atoms: C_2  and  N_3
REMARK    3  A    between atoms: C_2  and  C_16
REMARK    4  A    between atoms: C_4  and  C_6
REMARK    5  A    between atoms: C_19  and  C_20
REMARK    6  A    between atoms: C_20  and  C_21
REMARK                            x       y       z     vdW  Elec       q    Type
REMARK                         _______ _______ _______ _____ _____    ______ ____
ROOT
ATOM      1  C   UNL     1       0.942   0.069  -0.082  0.00  0.00    +0.000 C 
ATOM      2  C   UNL     1       2.469  -0.008   0.057  0.00  0.00    +0.000 C 
ENDROOT
BRANCH   2   3
ATOM      3  C   UNL     1       2.988  -1.277  -0.604  0.00  0.00    +0.000 A 
ATOM      4  C   UNL     1       3.883  -1.199  -1.679  0.00  0.00    +0.000 A 
ATOM      5  C   UNL     1       4.323  -2.359  -2.324  0.00  0.00    +0.000 A 
ATOM      6  C   UNL     1       3.891  -3.624  -1.901  0.00  0.00    +0.000 A 
ATOM      7  C   UNL     1       3.024  -3.706  -0.805  0.00  0.00    +0.000 A 
ATOM      8  C   UNL     1       2.576  -2.546  -0.167  0.00  0.00    +0.000 A 
BRANCH   6   9
ATOM      9  C   UNL     1       4.327  -4.878  -2.624  0.00  0.00    +0.000 C 
BRANCH   9  10
ATOM     10  C   UNL     1       5.585  -5.540  -2.107  0.00  0.00    +0.000 A 
ATOM     11  C   UNL     1       6.810  -4.874  -2.134  0.00  0.00    +0.000 A 
ATOM     12  C   UNL     1       7.964  -5.563  -1.768  0.00  0.00    +0.000 A 
ATOM     13  C   UNL     1       7.871  -6.893  -1.383  0.00  0.00    +0.000 A 
ATOM     14  C   UNL     1       6.618  -7.479  -1.366  0.00  0.00    +0.000 A 
ATOM     15  N   UNL     1       5.481  -6.837  -1.719  0.00  0.00    +0.000 NA
ENDBRANCH   9  10
ENDBRANCH   6   9
ENDBRANCH   2   3
BRANCH   2  16
ATOM     16  N   UNL     1       2.911   0.041   1.441  0.00  0.00    +0.000 N 
ATOM     17  C   UNL     1       2.661   1.116   2.258  0.00  0.00    +0.000 C 
ATOM     18  O   UNL     1       1.999   2.085   1.898  0.00  0.00    +0.000 OA
ATOM     19  H   UNL     1       3.694  -0.561   1.678  0.00  0.00    +0.000 HD
BRANCH  17  20
ATOM     20  C   UNL     1       3.173   1.024   3.629  0.00  0.00    +0.000 A 
ATOM     21  C   UNL     1       2.506   1.682   4.654  0.00  0.00    +0.000 A 
ATOM     22  S   UNL     1       3.230   1.470   6.183  0.00  0.00    +0.000 S 
ATOM     23  C   UNL     1       4.482   0.529   5.521  0.00  0.00    +0.000 A 
ATOM     24  N   UNL     1       5.487   0.052   6.303  0.00  0.00    +0.000 NA
ATOM     25  C   UNL     1       6.387  -0.619   5.662  0.00  0.00    +0.000 A 
ATOM     26  N   UNL     1       6.365  -0.867   4.315  0.00  0.00    +0.000 N 
ATOM     27  C   UNL     1       5.352  -0.434   3.491  0.00  0.00    +0.000 A 
ATOM     28  O   UNL     1       5.328  -0.716   2.298  0.00  0.00    +0.000 OA
ATOM     29  C   UNL     1       4.331   0.350   4.158  0.00  0.00    +0.000 A 
ATOM     30  H   UNL     1       7.091  -1.416   3.877  0.00  0.00    +0.000 HD
ENDBRANCH  17  20
ENDBRANCH   2  16
TORSDOF 5
