REMARK  Name = 
REMARK  11 active torsions:
REMARK  status: ('A' for Active; 'I' for Inactive)
REMARK    1  A    between atoms: C_1  and  O_2
REMARK    2  A    between atoms: O_2  and  C_3
REMARK    3  A    between atoms: C_3  and  C_4
REMARK    4  A    between atoms: C_4  and  N_5
REMARK    5  A    between atoms: C_4  and  C_19
REMARK    6  A    between atoms: C_6  and  C_8
REMARK    7  A    between atoms: N_14  and  C_15
REMARK    8  A    between atoms: C_22  and  C_23
REMARK    9  A    between atoms: C_23  and  N_24
REMARK   10  A    between atoms: N_24  and  C_25
REMARK   11  A    between atoms: C_25  and  C_26
REMARK                            x       y       z     vdW  Elec       q    Type
REMARK                         _______ _______ _______ _____ _____    ______ ____
ROOT
ATOM      1  C   UNL     1       4.287   0.813  -0.919  0.00  0.00    +0.000 C 
ENDROOT
BRANCH   1   2
ATOM      2  C   UNL     1       4.818   1.830  -1.906  0.00  0.00    +0.000 A 
ATOM      3  C   UNL     1       4.532   1.771  -3.274  0.00  0.00    +0.000 A 
ATOM      4  C   UNL     1       4.925   2.810  -4.112  0.00  0.00    +0.000 A 
ATOM      5  C   UNL     1       5.609   3.890  -3.562  0.00  0.00    +0.000 A 
ATOM      6  N   UNL     1       5.942   3.949  -2.248  0.00  0.00    +0.000 NA
ATOM      7  C   UNL     1       5.551   2.924  -1.457  0.00  0.00    +0.000 A 
BRANCH   5   8
ATOM      8  C   UNL     1       6.029   5.057  -4.435  0.00  0.00    +0.000 C 
BRANCH   8   9
ATOM      9  N   UNL     1       7.471   5.332  -4.413  0.00  0.00    +0.000 NA
ATOM     10  H   UNL     1       7.739   5.434  -3.431  0.00  0.00    +0.000 HD
BRANCH   9  11
ATOM     11  C   UNL     1       8.245   4.223  -4.973  0.00  0.00    +0.000 C 
BRANCH  11  12
ATOM     12  C   UNL     1       9.720   4.541  -4.988  0.00  0.00    +0.000 A 
ATOM     13  C   UNL     1      10.629   3.757  -4.262  0.00  0.00    +0.000 A 
ATOM     14  C   UNL     1      11.995   4.044  -4.297  0.00  0.00    +0.000 A 
ATOM     15  C   UNL     1      12.465   5.117  -5.051  0.00  0.00    +0.000 A 
ATOM     16  C   UNL     1      11.572   5.906  -5.772  0.00  0.00    +0.000 A 
ATOM     17  C   UNL     1      10.207   5.619  -5.741  0.00  0.00    +0.000 A 
ENDBRANCH  11  12
ENDBRANCH   9  11
ENDBRANCH   8   9
ENDBRANCH   5   8
ENDBRANCH   1   2
BRANCH   1  18
ATOM     18  N   UNL     1       4.768  -0.521  -1.239  0.00  0.00    +0.000 N 
ATOM     19  C   UNL     1       5.943  -1.031  -0.752  0.00  0.00    +0.000 C 
ATOM     20  O   UNL     1       6.738  -0.357  -0.107  0.00  0.00    +0.000 OA
ATOM     21  H   UNL     1       4.072  -1.166  -1.597  0.00  0.00    +0.000 HD
BRANCH  19  22
ATOM     22  C   UNL     1       6.218  -2.439  -1.086  0.00  0.00    +0.000 A 
ATOM     23  C   UNL     1       7.527  -2.899  -1.113  0.00  0.00    +0.000 A 
ATOM     24  S   UNL     1       7.657  -4.556  -1.494  0.00  0.00    +0.000 S 
ATOM     25  C   UNL     1       5.969  -4.726  -1.593  0.00  0.00    +0.000 A 
ATOM     26  N   UNL     1       5.399  -5.934  -1.843  0.00  0.00    +0.000 NA
ATOM     27  C   UNL     1       4.108  -5.929  -1.851  0.00  0.00    +0.000 A 
ATOM     28  N   UNL     1       3.311  -4.819  -1.663  0.00  0.00    +0.000 N 
ATOM     29  C   UNL     1       1.870  -4.917  -1.741  0.00  0.00    +0.000 C 
ATOM     30  C   UNL     1       3.863  -3.553  -1.500  0.00  0.00    +0.000 A 
ATOM     31  O   UNL     1       3.181  -2.532  -1.509  0.00  0.00    +0.000 OA
ATOM     32  C   UNL     1       5.313  -3.526  -1.395  0.00  0.00    +0.000 A 
ENDBRANCH  19  22
ENDBRANCH   1  18
BRANCH   1  33
ATOM     33  C   UNL     1       2.739   0.863  -0.932  0.00  0.00    +0.000 C 
BRANCH  33  35
ATOM     34  C   UNL     1       0.773   0.054   0.079  0.00  0.00    +0.000 C 
ATOM     35  O   UNL     1       2.195   0.017   0.087  0.00  0.00    +0.000 OA
ENDBRANCH  33  35
ENDBRANCH   1  33
TORSDOF 9
