REMARK  Name = 
REMARK  9 active torsions:
REMARK  status: ('A' for Active; 'I' for Inactive)
REMARK    1  A    between atoms: C_1  and  O_2
REMARK    2  A    between atoms: O_2  and  C_3
REMARK    3  A    between atoms: C_10  and  C_11
REMARK    4  A    between atoms: N_13  and  C_14
REMARK    5  A    between atoms: C_14  and  C_15
REMARK    6  A    between atoms: C_18  and  C_19
REMARK    7  A    between atoms: C_19  and  N_20
REMARK    8  A    between atoms: N_20  and  C_21
REMARK    9  A    between atoms: C_21  and  C_22
REMARK                            x       y       z     vdW  Elec       q    Type
REMARK                         _______ _______ _______ _____ _____    ______ ____
ROOT
ATOM      1  C   UNL     1       2.827   2.577   2.099  0.00  0.00    +0.000 C 
ENDROOT
BRANCH   1   2
ATOM      2  C   UNL     1       1.618   3.066   1.345  0.00  0.00    +0.000 A 
ATOM      3  C   UNL     1       0.574   2.186   1.031  0.00  0.00    +0.000 A 
ATOM      4  C   UNL     1      -0.521   2.622   0.279  0.00  0.00    +0.000 A 
ATOM      5  C   UNL     1      -0.597   3.944  -0.181  0.00  0.00    +0.000 A 
ATOM      6  C   UNL     1       0.440   4.827   0.149  0.00  0.00    +0.000 A 
ATOM      7  C   UNL     1       1.538   4.392   0.900  0.00  0.00    +0.000 A 
BRANCH   5   8
ATOM      8  C   UNL     1      -1.747   4.391  -1.057  0.00  0.00    +0.000 C 
BRANCH   8   9
ATOM      9  N   UNL     1      -3.034   4.232  -0.384  0.00  0.00    +0.000 NA
ATOM     10  H   UNL     1      -3.042   4.819   0.451  0.00  0.00    +0.000 HD
BRANCH   9  11
ATOM     11  C   UNL     1      -4.136   4.667  -1.254  0.00  0.00    +0.000 C 
BRANCH  11  12
ATOM     12  C   UNL     1      -5.488   4.532  -0.578  0.00  0.00    +0.000 A 
ATOM     13  C   UNL     1      -5.932   3.286  -0.143  0.00  0.00    +0.000 A 
ATOM     14  C   UNL     1      -7.174   3.189   0.481  0.00  0.00    +0.000 A 
ATOM     15  C   UNL     1      -7.938   4.335   0.652  0.00  0.00    +0.000 A 
ATOM     16  C   UNL     1      -7.429   5.537   0.186  0.00  0.00    +0.000 A 
ATOM     17  N   UNL     1      -6.225   5.662  -0.419  0.00  0.00    +0.000 NA
ENDBRANCH  11  12
ENDBRANCH   9  11
ENDBRANCH   8   9
ENDBRANCH   5   8
ENDBRANCH   1   2
BRANCH   1  20
ATOM     18  C   UNL     1       4.990   1.499   1.676  0.00  0.00    +0.000 C 
ATOM     19  O   UNL     1       5.234   1.484   2.882  0.00  0.00    +0.000 OA
ATOM     20  N   UNL     1       3.822   2.033   1.203  0.00  0.00    +0.000 N 
ATOM     21  H   UNL     1       3.616   2.024   0.213  0.00  0.00    +0.000 HD
BRANCH  18  29
ATOM     22  C   UNL     1       5.000   1.198  -1.762  0.00  0.00    +0.000 A 
ATOM     23  N   UNL     1       5.243   0.914  -3.058  0.00  0.00    +0.000 NA
ATOM     24  C   UNL     1       6.381   0.282  -3.361  0.00  0.00    +0.000 A 
ATOM     25  N   UNL     1       7.329  -0.104  -2.515  0.00  0.00    +0.000 NA
ATOM     26  C   UNL     1       7.041   0.184  -1.235  0.00  0.00    +0.000 A 
ATOM     27  S   UNL     1       8.148  -0.232  -0.017  0.00  0.00    +0.000 S 
ATOM     28  C   UNL     1       7.133   0.402   1.187  0.00  0.00    +0.000 A 
ATOM     29  C   UNL     1       5.944   0.937   0.703  0.00  0.00    +0.000 A 
ATOM     30  C   UNL     1       5.900   0.819  -0.751  0.00  0.00    +0.000 A 
BRANCH  22  32
ATOM     31  C   UNL     1       3.338   2.644  -2.532  0.00  0.00    +0.000 C 
ATOM     32  O   UNL     1       3.826   1.852  -1.451  0.00  0.00    +0.000 OA
ENDBRANCH  22  32
ENDBRANCH  18  29
ENDBRANCH   1  20
TORSDOF 8
