REMARK  Name = 
REMARK  5 active torsions:
REMARK  status: ('A' for Active; 'I' for Inactive)
REMARK    1  A    between atoms: C_2  and  C_4
REMARK    2  A    between atoms: C_7  and  O_8
REMARK    3  A    between atoms: O_8  and  C_9
REMARK    4  A    between atoms: C_9  and  C_10
REMARK    5  A    between atoms: C_14  and  C_15
REMARK                            x       y       z     vdW  Elec       q    Type
REMARK                         _______ _______ _______ _____ _____    ______ ____
ROOT
ATOM      1  C   UNL     1       4.959  -2.356  -5.477  0.00  0.00    +0.000 C 
ENDROOT
BRANCH   1   2
ATOM      2  C   UNL     1       5.781  -3.265  -6.365  0.00  0.00    +0.000 A 
ATOM      3  N   UNL     1       6.885  -2.749  -6.940  0.00  0.00    +0.000 NA
ATOM      4  C   UNL     1       7.575  -3.567  -7.749  0.00  0.00    +0.000 A 
ATOM      5  C   UNL     1       7.210  -4.867  -8.003  0.00  0.00    +0.000 A 
ATOM      6  C   UNL     1       6.065  -5.325  -7.376  0.00  0.00    +0.000 A 
ATOM      7  N   UNL     1       5.337  -4.525  -6.565  0.00  0.00    +0.000 NA
BRANCH   6   8
ATOM      8  C   UNL     1       5.553  -6.694  -7.559  0.00  0.00    +0.000 A 
ATOM      9  C   UNL     1       6.388  -7.793  -7.817  0.00  0.00    +0.000 A 
ATOM     10  C   UNL     1       5.852  -9.066  -8.007  0.00  0.00    +0.000 A 
ATOM     11  C   UNL     1       4.480  -9.219  -7.932  0.00  0.00    +0.000 A 
ATOM     12  N   UNL     1       3.632  -8.203  -7.677  0.00  0.00    +0.000 NA
ATOM     13  C   UNL     1       4.187  -6.978  -7.490  0.00  0.00    +0.000 A 
ENDBRANCH   6   8
ENDBRANCH   1   2
BRANCH   1  14
ATOM     14  O   UNL     1       5.419  -2.425  -4.123  0.00  0.00    +0.000 OA
BRANCH  14  18
ATOM     15  C   UNL     1       3.557  -0.159  -1.153  0.00  0.00    +0.000 A 
ATOM     16  C   UNL     1       3.086  -0.052  -2.466  0.00  0.00    +0.000 A 
ATOM     17  C   UNL     1       3.685  -0.794  -3.491  0.00  0.00    +0.000 A 
ATOM     18  C   UNL     1       4.758  -1.645  -3.213  0.00  0.00    +0.000 A 
ATOM     19  C   UNL     1       5.235  -1.735  -1.903  0.00  0.00    +0.000 A 
ATOM     20  C   UNL     1       4.645  -0.991  -0.876  0.00  0.00    +0.000 A 
BRANCH  15  22
ATOM     21  N   UNL     1       1.615   0.918  -0.159  0.00  0.00    +0.000 N 
ATOM     22  C   UNL     1       2.943   0.611  -0.042  0.00  0.00    +0.000 C 
ATOM     23  O   UNL     1       3.579   0.924   0.956  0.00  0.00    +0.000 OA
ATOM     24  H   UNL     1       1.181   1.338   0.653  0.00  0.00    +0.000 HD
ATOM     25  H   UNL     1       1.012   0.452  -0.823  0.00  0.00    +0.000 HD
ENDBRANCH  15  22
ENDBRANCH  14  18
ENDBRANCH   1  14
TORSDOF 5
