REMARK  Name = 
REMARK  6 active torsions:
REMARK  status: ('A' for Active; 'I' for Inactive)
REMARK    1  A    between atoms: C_2  and  C_4
REMARK    2  A    between atoms: C_2  and  C_13
REMARK    3  A    between atoms: C_4  and  N_5
REMARK    4  A    between atoms: N_5  and  C_6
REMARK    5  A    between atoms: C_17  and  O_18
REMARK    6  A    between atoms: O_18  and  C_19
REMARK                            x       y       z     vdW  Elec       q    Type
REMARK                         _______ _______ _______ _____ _____    ______ ____
ROOT
ATOM      1  F   UNL     1       2.204  -1.038  -1.028  0.00  0.00    +0.000 F 
ATOM      2  C   UNL     1       2.492  -0.002  -0.180  0.00  0.00    +0.000 C 
ATOM      3  F   UNL     1       3.554   0.642  -0.747  0.00  0.00    +0.000 F 
ENDROOT
BRANCH   2   4
ATOM      4  C   UNL     1       2.821  -0.474   1.227  0.00  0.00    +0.000 A 
ATOM      5  C   UNL     1       3.210   0.433   2.227  0.00  0.00    +0.000 A 
ATOM      6  C   UNL     1       3.463  -0.008   3.528  0.00  0.00    +0.000 A 
ATOM      7  C   UNL     1       3.362  -1.364   3.843  0.00  0.00    +0.000 A 
ATOM      8  C   UNL     1       3.014  -2.278   2.852  0.00  0.00    +0.000 A 
ATOM      9  C   UNL     1       2.735  -1.831   1.558  0.00  0.00    +0.000 A 
BRANCH   8  10
ATOM     10  O   UNL     1       2.878  -3.629   3.041  0.00  0.00    +0.000 OA
BRANCH  10  11
ATOM     11  C   UNL     1       3.604  -4.261   4.118  0.00  0.00    +0.000 C 
ATOM     12  C   UNL     1       5.136  -4.325   4.027  0.00  0.00    +0.000 C 
ATOM     13  O   UNL     1       5.134  -5.770   4.088  0.00  0.00    +0.000 OA
ATOM     14  C   UNL     1       3.691  -5.791   4.025  0.00  0.00    +0.000 C 
ENDBRANCH  10  11
ENDBRANCH   8  10
ENDBRANCH   2   4
BRANCH   2  15
ATOM     15  C   UNL     1       1.269   0.949  -0.163  0.00  0.00    +0.000 C 
BRANCH  15  16
ATOM     16  N   UNL     1       0.866   1.437  -1.500  0.00  0.00    +0.000 N 
ATOM     17  H   UNL     1       0.819   0.683  -2.186  0.00  0.00    +0.000 HD
BRANCH  16  18
ATOM     18  C   UNL     1      -0.221   2.316  -1.578  0.00  0.00    +0.000 A 
ATOM     19  C   UNL     1      -0.552   3.213  -0.552  0.00  0.00    +0.000 A 
ATOM     20  C   UNL     1      -1.595   4.132  -0.694  0.00  0.00    +0.000 A 
ATOM     21  C   UNL     1      -2.310   4.185  -1.883  0.00  0.00    +0.000 A 
ATOM     22 CL   UNL     1      -3.589   5.320  -2.060  0.00  0.00    +0.000 Cl
ATOM     23  C   UNL     1      -1.980   3.334  -2.933  0.00  0.00    +0.000 A 
ATOM     24  C   UNL     1      -0.930   2.419  -2.784  0.00  0.00    +0.000 A 
ENDBRANCH  16  18
ENDBRANCH  15  16
ENDBRANCH   2  15
TORSDOF 6
