REMARK  Name = 
REMARK  8 active torsions:
REMARK  status: ('A' for Active; 'I' for Inactive)
REMARK    1  A    between atoms: C_1  and  N_2
REMARK    2  A    between atoms: N_5  and  C_6
REMARK    3  A    between atoms: C_10  and  C_11
REMARK    4  A    between atoms: C_11  and  C_12
REMARK    5  A    between atoms: C_11  and  C_13
REMARK    6  A    between atoms: C_11  and  C_14
REMARK    7  A    between atoms: C_14  and  N_15
REMARK    8  A    between atoms: C_19  and  C_20
REMARK                            x       y       z     vdW  Elec       q    Type
REMARK                         _______ _______ _______ _____ _____    ______ ____
ROOT
ATOM      1  C   UNL     1      -6.397   1.756   0.503  0.00  0.00    +0.000 C 
ATOM      2  C   UNL     1      -7.703   0.957   0.271  0.00  0.00    +0.000 C 
ATOM      3  C   UNL     1      -6.672   2.839   1.575  0.00  0.00    +0.000 C 
ENDROOT
BRANCH   1   8
ATOM      4  C   UNL     1      -3.003  -0.106   0.836  0.00  0.00    +0.000 A 
ATOM      5  C   UNL     1      -3.206  -0.759   2.055  0.00  0.00    +0.000 A 
ATOM      6  C   UNL     1      -4.426  -0.681   2.731  0.00  0.00    +0.000 A 
ATOM      7  C   UNL     1      -5.461   0.101   2.221  0.00  0.00    +0.000 A 
ATOM      8  C   UNL     1      -5.307   0.791   1.009  0.00  0.00    +0.000 A 
ATOM      9  C   UNL     1      -4.096   0.604   0.316  0.00  0.00    +0.000 A 
BRANCH   4  14
ATOM     10  C   UNL     1       1.665   1.826  -1.459  0.00  0.00    +0.000 C 
ATOM     11  N   UNL     1       0.710   0.809  -1.031  0.00  0.00    +0.000 NA
ATOM     12  C   UNL     1       0.497   0.871   0.433  0.00  0.00    +0.000 C 
ATOM     13  C   UNL     1      -0.516  -0.185   0.941  0.00  0.00    +0.000 C 
ATOM     14  N   UNL     1      -1.780  -0.085   0.198  0.00  0.00    +0.000 N 
ATOM     15  C   UNL     1      -1.634  -0.067  -1.267  0.00  0.00    +0.000 C 
ATOM     16  C   UNL     1      -0.596   0.993  -1.705  0.00  0.00    +0.000 C 
ENDBRANCH   4  14
ENDBRANCH   1   8
BRANCH   1  17
ATOM     17  C   UNL     1      -6.073   2.480  -0.850  0.00  0.00    +0.000 C 
BRANCH  17  18
ATOM     18  N   UNL     1      -4.961   3.433  -0.756  0.00  0.00    +0.000 N 
ATOM     19  C   UNL     1      -4.476   3.982  -1.936  0.00  0.00    +0.000 A 
ATOM     20  C   UNL     1      -5.320   4.429  -2.944  0.00  0.00    +0.000 A 
ATOM     21  C   UNL     1      -4.783   5.051  -4.071  0.00  0.00    +0.000 A 
ATOM     22  C   UNL     1      -3.408   5.225  -4.177  0.00  0.00    +0.000 A 
ATOM     23  C   UNL     1      -2.634   4.736  -3.137  0.00  0.00    +0.000 A 
ATOM     24  N   UNL     1      -3.137   4.121  -2.029  0.00  0.00    +0.000 NA
ATOM     25  H   UNL     1      -4.156   3.123  -0.214  0.00  0.00    +0.000 HD
BRANCH  22  26
ATOM     26  C   UNL     1      -2.875   5.930  -5.369  0.00  0.00    +0.000 C 
ATOM     27  N   UNL     1      -1.527   6.141  -5.479  0.00  0.00    +0.000 N 
ATOM     28  O   UNL     1      -3.624   6.330  -6.252  0.00  0.00    +0.000 OA
ATOM     29  H   UNL     1      -0.832   5.897  -4.793  0.00  0.00    +0.000 HD
ATOM     30  H   UNL     1      -1.225   6.655  -6.295  0.00  0.00    +0.000 HD
ENDBRANCH  22  26
ENDBRANCH  17  18
ENDBRANCH   1  17
TORSDOF 5
