REMARK  Name = 
REMARK  5 active torsions:
REMARK  status: ('A' for Active; 'I' for Inactive)
REMARK    1  A    between atoms: C_1  and  O_2
REMARK    2  A    between atoms: O_2  and  C_3
REMARK    3  A    between atoms: C_6  and  C_7
REMARK    4  A    between atoms: C_7  and  N_8
REMARK    5  A    between atoms: C_13  and  C_14
REMARK                            x       y       z     vdW  Elec       q    Type
REMARK                         _______ _______ _______ _____ _____    ______ ____
ROOT
ATOM      1  N   UNL     1       4.828   5.294   2.756  0.00  0.00    +0.000 N 
ATOM      2  N   UNL     1       5.161   4.898   4.013  0.00  0.00    +0.000 NA
ATOM      3  C   UNL     1       4.647   5.859   4.787  0.00  0.00    +0.000 A 
ATOM      4  C   UNL     1       4.015   6.882   4.049  0.00  0.00    +0.000 A 
ATOM      5  C   UNL     1       3.381   8.106   4.320  0.00  0.00    +0.000 A 
ATOM      6  C   UNL     1       2.905   8.840   3.226  0.00  0.00    +0.000 A 
ATOM      7  C   UNL     1       3.067   8.305   1.945  0.00  0.00    +0.000 A 
ATOM      8  N   UNL     1       3.677   7.128   1.636  0.00  0.00    +0.000 NA
ATOM      9  C   UNL     1       4.128   6.475   2.727  0.00  0.00    +0.000 A 
ENDROOT
BRANCH   6  10
ATOM     10  C   UNL     1       2.256  10.169   3.342  0.00  0.00    +0.000 C 
ATOM     11  N   UNL     1       2.133  10.738   4.579  0.00  0.00    +0.000 N 
ATOM     12  O   UNL     1       1.846  10.764   2.352  0.00  0.00    +0.000 OA
ATOM     13  H   UNL     1       2.459  10.342   5.446  0.00  0.00    +0.000 HD
ATOM     14  H   UNL     1       1.708  11.657   4.615  0.00  0.00    +0.000 HD
ENDBRANCH   6  10
BRANCH   1  15
ATOM     15  C   UNL     1       5.376   4.599   1.602  0.00  0.00    +0.000 C 
BRANCH  15  19
ATOM     16  C   UNL     1       2.977   1.235   0.323  0.00  0.00    +0.000 A 
ATOM     17  C   UNL     1       2.758   2.502  -0.218  0.00  0.00    +0.000 A 
ATOM     18  C   UNL     1       3.526   3.593   0.206  0.00  0.00    +0.000 A 
ATOM     19  C   UNL     1       4.530   3.431   1.171  0.00  0.00    +0.000 A 
ATOM     20  C   UNL     1       4.740   2.157   1.716  0.00  0.00    +0.000 A 
ATOM     21  C   UNL     1       3.971   1.070   1.290  0.00  0.00    +0.000 A 
BRANCH  16  23
ATOM     22  C   UNL     1       1.242   0.222  -0.945  0.00  0.00    +0.000 C 
ATOM     23  O   UNL     1       2.297   0.093  -0.001  0.00  0.00    +0.000 OA
ENDBRANCH  16  23
ENDBRANCH  15  19
ENDBRANCH   1  15
TORSDOF 4
