REMARK  Name = 
REMARK  6 active torsions:
REMARK  status: ('A' for Active; 'I' for Inactive)
REMARK    1  A    between atoms: N_1  and  C_2
REMARK    2  A    between atoms: C_2  and  N_3
REMARK    3  A    between atoms: C_2  and  C_16
REMARK    4  A    between atoms: C_4  and  C_6
REMARK    5  A    between atoms: C_19  and  C_20
REMARK    6  A    between atoms: C_20  and  N_21
REMARK                            x       y       z     vdW  Elec       q    Type
REMARK                         _______ _______ _______ _____ _____    ______ ____
ROOT
ATOM      1  C   UNL     1       2.494   0.035  -0.118  0.00  0.00    +0.000 C 
ENDROOT
BRANCH   1   2
ATOM      2  C   UNL     1       2.937   1.468   0.121  0.00  0.00    +0.000 A 
ATOM      3  C   UNL     1       2.280   2.521  -0.533  0.00  0.00    +0.000 A 
ATOM      4  C   UNL     1       2.649   3.853  -0.307  0.00  0.00    +0.000 A 
ATOM      5  C   UNL     1       3.695   4.170   0.570  0.00  0.00    +0.000 A 
ATOM      6  C   UNL     1       4.350   3.124   1.232  0.00  0.00    +0.000 A 
ATOM      7  C   UNL     1       3.983   1.791   1.004  0.00  0.00    +0.000 A 
BRANCH   5   8
ATOM      8  C   UNL     1       4.109   5.603   0.797  0.00  0.00    +0.000 C 
BRANCH   8   9
ATOM      9  N   UNL     1       3.360   6.220   1.871  0.00  0.00    +0.000 N 
ATOM     10  C   UNL     1       3.643   7.514   2.235  0.00  0.00    +0.000 C 
ATOM     11  O   UNL     1       4.536   8.159   1.697  0.00  0.00    +0.000 OA
ATOM     12  N   UNL     1       2.834   8.026   3.239  0.00  0.00    +0.000 N 
ATOM     13  C   UNL     1       2.943   9.443   3.593  0.00  0.00    +0.000 C 
ATOM     14  C   UNL     1       3.428   9.622   5.030  0.00  0.00    +0.000 C 
ATOM     15  C   UNL     1       2.572   8.821   6.010  0.00  0.00    +0.000 C 
ATOM     16  C   UNL     1       2.477   7.358   5.579  0.00  0.00    +0.000 C 
ATOM     17  C   UNL     1       1.992   7.233   4.135  0.00  0.00    +0.000 C 
ATOM     18  H   UNL     1       2.378   5.997   1.886  0.00  0.00    +0.000 HD
ENDBRANCH   8   9
ENDBRANCH   5   8
ENDBRANCH   1   2
BRANCH   1  19
ATOM     19  N   UNL     1       2.104  -0.604   1.101  0.00  0.00    +0.000 N 
ATOM     20  C   UNL     1       1.203  -1.636   1.141  0.00  0.00    +0.000 C 
ATOM     21  O   UNL     1       0.706  -2.113   0.125  0.00  0.00    +0.000 OA
ATOM     22  H   UNL     1       2.271  -0.078   1.952  0.00  0.00    +0.000 HD
BRANCH  20  23
ATOM     23  C   UNL     1       0.934  -2.216   2.464  0.00  0.00    +0.000 A 
ATOM     24  C   UNL     1       0.496  -3.531   2.559  0.00  0.00    +0.000 A 
ATOM     25  S   UNL     1       0.289  -4.069   4.164  0.00  0.00    +0.000 S 
ATOM     26  C   UNL     1       0.722  -2.547   4.788  0.00  0.00    +0.000 A 
ATOM     27  N   UNL     1       0.723  -2.313   6.128  0.00  0.00    +0.000 NA
ATOM     28  C   UNL     1       1.036  -1.105   6.459  0.00  0.00    +0.000 A 
ATOM     29  N   UNL     1       1.359  -0.112   5.572  0.00  0.00    +0.000 N 
ATOM     30  C   UNL     1       1.415  -0.314   4.214  0.00  0.00    +0.000 A 
ATOM     31  O   UNL     1       1.775   0.574   3.448  0.00  0.00    +0.000 OA
ATOM     32  C   UNL     1       1.045  -1.648   3.786  0.00  0.00    +0.000 A 
ATOM     33  H   UNL     1       1.611   0.810   5.897  0.00  0.00    +0.000 HD
ENDBRANCH  20  23
ENDBRANCH   1  19
BRANCH   1  34
ATOM     34  N   UNL     1       3.572  -0.781  -0.641  0.00  0.00    +0.000 NA
ATOM     35  H   UNL     1       3.179  -1.703  -0.820  0.00  0.00    +0.000 HD
ATOM     36  H   UNL     1       4.253  -0.913   0.100  0.00  0.00    +0.000 HD
ENDBRANCH   1  34
TORSDOF 6
