REMARK  Name = 
REMARK  11 active torsions:
REMARK  status: ('A' for Active; 'I' for Inactive)
REMARK    1  A    between atoms: C_1  and  C_2
REMARK    2  A    between atoms: C_2  and  N_3
REMARK    3  A    between atoms: C_2  and  C_21
REMARK    4  A    between atoms: N_3  and  C_4
REMARK    5  A    between atoms: C_4  and  C_5
REMARK    6  A    between atoms: C_8  and  C_9
REMARK    7  A    between atoms: C_9  and  O_10
REMARK    8  A    between atoms: C_9  and  C_11
REMARK    9  A    between atoms: C_11  and  N_12
REMARK   10  A    between atoms: N_12  and  C_13
REMARK   11  A    between atoms: N_16  and  C_17
REMARK                            x       y       z     vdW  Elec       q    Type
REMARK                         _______ _______ _______ _____ _____    ______ ____
ROOT
ATOM      1  C   UNL     1     -10.460   5.395   4.157  0.00  0.00    +0.000 A 
ATOM      2  C   UNL     1      -9.392   4.634   3.663  0.00  0.00    +0.000 A 
ATOM      3  C   UNL     1      -9.294   3.273   3.954  0.00  0.00    +0.000 A 
ATOM      4  C   UNL     1     -10.270   2.643   4.738  0.00  0.00    +0.000 A 
ATOM      5  C   UNL     1     -11.359   3.401   5.197  0.00  0.00    +0.000 A 
ATOM      6  C   UNL     1     -11.452   4.762   4.912  0.00  0.00    +0.000 A 
ENDROOT
BRANCH   1   7
ATOM      7  C   UNL     1     -10.487   6.891   3.958  0.00  0.00    +0.000 C 
BRANCH   7   8
ATOM      8  N   UNL     1     -10.420   7.251   2.547  0.00  0.00    +0.000 NA
ATOM      9  H   UNL     1     -11.221   6.828   2.075  0.00  0.00    +0.000 HD
BRANCH   8  11
ATOM     10  C   UNL     1      -9.322   9.471   2.997  0.00  0.00    +0.000 C 
ATOM     11  C   UNL     1     -10.467   8.701   2.324  0.00  0.00    +0.000 C 
BRANCH  11  12
ATOM     12  C   UNL     1     -10.427   8.892   0.822  0.00  0.00    +0.000 A 
ATOM     13  C   UNL     1      -9.400   8.429   0.010  0.00  0.00    +0.000 A 
ATOM     14  S   UNL     1      -9.625   8.800  -1.639  0.00  0.00    +0.000 S 
ATOM     15  C   UNL     1     -11.108   9.572  -1.322  0.00  0.00    +0.000 A 
ATOM     16  N   UNL     1     -11.843  10.118  -2.327  0.00  0.00    +0.000 NA
ATOM     17  C   UNL     1     -12.952  10.657  -1.937  0.00  0.00    +0.000 A 
ATOM     18  N   UNL     1     -13.391  10.705  -0.642  0.00  0.00    +0.000 N 
ATOM     19  C   UNL     1     -12.679  10.176   0.415  0.00  0.00    +0.000 A 
ATOM     20  O   UNL     1     -13.098  10.250   1.563  0.00  0.00    +0.000 OA
ATOM     21  C   UNL     1     -11.428   9.553   0.024  0.00  0.00    +0.000 A 
ATOM     22  H   UNL     1     -14.268  11.148  -0.406  0.00  0.00    +0.000 HD
ENDBRANCH  11  12
ENDBRANCH   8  11
ENDBRANCH   7   8
ENDBRANCH   1   7
BRANCH   4  23
ATOM     23  C   UNL     1     -10.150   1.168   5.058  0.00  0.00    +0.000 C 
BRANCH  23  24
ATOM     24  O   UNL     1     -10.044   0.974   6.473  0.00  0.00    +0.000 OA
ATOM     25  H   UNL     1     -10.613   1.635   6.901  0.00  0.00    +0.000 HD
ENDBRANCH  23  24
BRANCH  23  26
ATOM     26  C   UNL     1     -11.349   0.342   4.547  0.00  0.00    +0.000 C 
BRANCH  26  27
ATOM     27  N   UNL     1     -11.532   0.416   3.093  0.00  0.00    +0.000 NA
ATOM     28  H   UNL     1     -10.690   0.090   2.620  0.00  0.00    +0.000 HD
BRANCH  27  29
ATOM     29  C   UNL     1     -12.691  -0.365   2.658  0.00  0.00    +0.000 C 
ATOM     30  C   UNL     1     -12.871  -0.294   1.137  0.00  0.00    +0.000 C 
ATOM     31  C   UNL     1     -12.793  -1.740   0.665  0.00  0.00    +0.000 C 
ATOM     32  N   UNL     1     -13.263  -2.496   1.827  0.00  0.00    +0.000 NA
ATOM     33  C   UNL     1     -12.956  -3.915   1.736  0.00  0.00    +0.000 C 
ATOM     34  C   UNL     1     -12.584  -1.870   2.960  0.00  0.00    +0.000 C 
ENDBRANCH  27  29
ENDBRANCH  26  27
ENDBRANCH  23  26
ENDBRANCH   4  23
TORSDOF 9
