REMARK  Name = 
REMARK  7 active torsions:
REMARK  status: ('A' for Active; 'I' for Inactive)
REMARK    1  A    between atoms: C_2  and  C_20
REMARK    2  A    between atoms: N_3  and  C_4
REMARK    3  A    between atoms: C_4  and  C_5
REMARK    4  A    between atoms: C_8  and  C_9
REMARK    5  A    between atoms: C_9  and  N_10
REMARK    6  A    between atoms: N_10  and  C_11
REMARK    7  A    between atoms: C_11  and  C_12
REMARK                            x       y       z     vdW  Elec       q    Type
REMARK                         _______ _______ _______ _____ _____    ______ ____
ROOT
ATOM      1  C   UNL     1       0.353  10.436  -8.420  0.00  0.00    +0.000 A 
ATOM      2  C   UNL     1       1.459  10.204  -7.597  0.00  0.00    +0.000 A 
ATOM      3  C   UNL     1       2.412   9.246  -7.942  0.00  0.00    +0.000 A 
ATOM      4  C   UNL     1       2.274   8.481  -9.109  0.00  0.00    +0.000 A 
ATOM      5  C   UNL     1       1.191   8.749  -9.958  0.00  0.00    +0.000 A 
ATOM      6  C   UNL     1       0.240   9.719  -9.619  0.00  0.00    +0.000 A 
ENDROOT
BRANCH   1   7
ATOM      7  C   UNL     1      -0.663  11.479  -8.036  0.00  0.00    +0.000 C 
BRANCH   7  10
ATOM      8  O   UNL     1       0.732  13.478  -6.624  0.00  0.00    +0.000 OA
ATOM      9  C   UNL     1       0.447  13.669  -7.804  0.00  0.00    +0.000 C 
ATOM     10  N   UNL     1      -0.288  12.777  -8.540  0.00  0.00    +0.000 N 
ATOM     11  H   UNL     1      -0.327  12.884  -9.546  0.00  0.00    +0.000 HD
BRANCH   9  12
ATOM     12  C   UNL     1       0.832  14.907  -8.492  0.00  0.00    +0.000 A 
ATOM     13  C   UNL     1       1.117  16.046  -7.752  0.00  0.00    +0.000 A 
ATOM     14  S   UNL     1       1.513  17.401  -8.709  0.00  0.00    +0.000 S 
ATOM     15  C   UNL     1       1.370  16.498 -10.144  0.00  0.00    +0.000 A 
ATOM     16  N   UNL     1       1.613  17.067 -11.356  0.00  0.00    +0.000 NA
ATOM     17  C   UNL     1       1.521  16.254 -12.355  0.00  0.00    +0.000 A 
ATOM     18  N   UNL     1       1.196  14.926 -12.254  0.00  0.00    +0.000 N 
ATOM     19  C   UNL     1       0.860  14.331 -11.062  0.00  0.00    +0.000 A 
ATOM     20  O   UNL     1       0.434  13.181 -11.028  0.00  0.00    +0.000 OA
ATOM     21  C   UNL     1       0.999  15.187  -9.898  0.00  0.00    +0.000 A 
ATOM     22  H   UNL     1       1.109  14.350 -13.078  0.00  0.00    +0.000 HD
ENDBRANCH   9  12
ENDBRANCH   7  10
ENDBRANCH   1   7
BRANCH   4  23
ATOM     23  C   UNL     1       3.304   7.438  -9.490  0.00  0.00    +0.000 C 
BRANCH  23  24
ATOM     24  N   UNL     1       3.879   6.782  -8.311  0.00  0.00    +0.000 NA
ATOM     25  H   UNL     1       3.128   6.328  -7.792  0.00  0.00    +0.000 HD
BRANCH  24  26
ATOM     26  C   UNL     1       4.921   5.823  -8.665  0.00  0.00    +0.000 C 
BRANCH  26  27
ATOM     27  C   UNL     1       5.510   5.166  -7.406  0.00  0.00    +0.000 C 
ATOM     28  C   UNL     1       6.245   6.145  -6.486  0.00  0.00    +0.000 C 
ATOM     29  N   UNL     1       7.688   6.082  -6.794  0.00  0.00    +0.000 NA
ATOM     30  C   UNL     1       7.861   5.043  -7.821  0.00  0.00    +0.000 C 
ATOM     31  C   UNL     1       6.610   4.183  -7.766  0.00  0.00    +0.000 C 
ATOM     32  F   UNL     1       6.746   3.286  -6.747  0.00  0.00    +0.000 F 
ATOM     33  H   UNL     1       8.173   5.782  -5.945  0.00  0.00    +0.000 HD
ENDBRANCH  26  27
ENDBRANCH  24  26
ENDBRANCH  23  24
ENDBRANCH   4  23
TORSDOF 7
