REMARK  Name = 
REMARK  5 active torsions:
REMARK  status: ('A' for Active; 'I' for Inactive)
REMARK    1  A    between atoms: N_1  and  C_2
REMARK    2  A    between atoms: C_2  and  C_3
REMARK    3  A    between atoms: C_3  and  C_4
REMARK    4  A    between atoms: N_8  and  C_9
REMARK    5  A    between atoms: C_9  and  C_10
REMARK                            x       y       z     vdW  Elec       q    Type
REMARK                         _______ _______ _______ _____ _____    ______ ____
ROOT
ATOM      1  C   UNL     1       4.520  -0.937   1.015  0.00  0.00    +0.000 A 
ATOM      2  C   UNL     1       5.247  -1.822   0.252  0.00  0.00    +0.000 A 
ATOM      3  N   UNL     1       6.592  -1.888   0.254  0.00  0.00    +0.000 NA
ATOM      4  C   UNL     1       7.246  -1.039   1.058  0.00  0.00    +0.000 A 
ATOM      5  N   UNL     1       8.624  -1.074   1.135  0.00  0.00    +0.000 N 
ATOM      6  N   UNL     1       6.635  -0.138   1.837  0.00  0.00    +0.000 NA
ATOM      7  C   UNL     1       5.285  -0.107   1.803  0.00  0.00    +0.000 A 
ATOM      8  H   UNL     1       8.949  -0.255   1.631  0.00  0.00    +0.000 HD
ENDROOT
BRANCH   1   9
ATOM      9  C   UNL     1       3.023  -0.917   1.016  0.00  0.00    +0.000 C 
BRANCH   9  10
ATOM     10  C   UNL     1       2.440  -1.854   2.080  0.00  0.00    +0.000 C 
BRANCH  10  11
ATOM     11  N   UNL     1       0.980  -1.843   2.042  0.00  0.00    +0.000 NA
ATOM     12  H   UNL     1       0.620  -2.474   2.759  0.00  0.00    +0.000 HD
ATOM     13  H   UNL     1       0.651  -2.216   1.152  0.00  0.00    +0.000 HD
ENDBRANCH  10  11
ENDBRANCH   9  10
ENDBRANCH   1   9
BRANCH   5  14
ATOM     14  C   UNL     1       9.343  -1.445  -0.065  0.00  0.00    +0.000 C 
BRANCH  14  15
ATOM     15  C   UNL     1      10.249  -0.326  -0.527  0.00  0.00    +0.000 A 
ATOM     16  C   UNL     1      11.630  -0.520  -0.633  0.00  0.00    +0.000 A 
ATOM     17  C   UNL     1      12.415   0.516  -1.118  0.00  0.00    +0.000 A 
ATOM     18  N   UNL     1      11.926   1.715  -1.497  0.00  0.00    +0.000 NA
ATOM     19  C   UNL     1      10.592   1.887  -1.387  0.00  0.00    +0.000 A 
ATOM     20  C   UNL     1       9.724   0.911  -0.918  0.00  0.00    +0.000 A 
ENDBRANCH  14  15
ENDBRANCH   5  14
TORSDOF 5
