REMARK  Name = 
REMARK  8 active torsions:
REMARK  status: ('A' for Active; 'I' for Inactive)
REMARK    1  A    between atoms: C_1  and  O_2
REMARK    2  A    between atoms: O_2  and  C_3
REMARK    3  A    between atoms: C_5  and  C_6
REMARK    4  A    between atoms: C_10  and  N_11
REMARK    5  A    between atoms: N_11  and  C_12
REMARK    6  A    between atoms: C_12  and  C_13
REMARK    7  A    between atoms: C_15  and  C_16
REMARK    8  A    between atoms: C_20  and  C_21
REMARK                            x       y       z     vdW  Elec       q    Type
REMARK                         _______ _______ _______ _____ _____    ______ ____
ROOT
ATOM      1  C   UNL     1       8.196   3.806   2.074  0.00  0.00    +0.000 A 
ATOM      2  C   UNL     1       8.177   5.199   1.882  0.00  0.00    +0.000 A 
ATOM      3  C   UNL     1       9.290   5.904   1.376  0.00  0.00    +0.000 A 
ATOM      4  C   UNL     1      10.434   5.149   1.056  0.00  0.00    +0.000 A 
ATOM      5  C   UNL     1      10.464   3.762   1.231  0.00  0.00    +0.000 A 
ATOM      6  C   UNL     1       9.348   3.104   1.732  0.00  0.00    +0.000 A 
ATOM      7  F   UNL     1       9.400   1.776   1.898  0.00  0.00    +0.000 F 
ENDROOT
BRANCH   3   8
ATOM      8  C   UNL     1       9.253   7.374   1.205  0.00  0.00    +0.000 A 
ATOM      9  C   UNL     1      10.387   8.176   1.348  0.00  0.00    +0.000 A 
ATOM     10  N   UNL     1      10.415   9.527   1.210  0.00  0.00    +0.000 NA
ATOM     11  C   UNL     1       9.246  10.135   0.922  0.00  0.00    +0.000 A 
ATOM     12  C   UNL     1       8.050   9.459   0.761  0.00  0.00    +0.000 A 
ATOM     13  C   UNL     1       8.068   8.062   0.899  0.00  0.00    +0.000 A 
BRANCH  12  14
ATOM     14  C   UNL     1       6.783  10.193   0.455  0.00  0.00    +0.000 C 
ATOM     15  F   UNL     1       6.940  11.542   0.358  0.00  0.00    +0.000 F 
ATOM     16  F   UNL     1       6.224   9.797  -0.721  0.00  0.00    +0.000 F 
ATOM     17  F   UNL     1       5.828   9.996   1.406  0.00  0.00    +0.000 F 
ENDBRANCH  12  14
ENDBRANCH   3   8
BRANCH   1  18
ATOM     18  C   UNL     1       7.001   3.098   2.658  0.00  0.00    +0.000 C 
BRANCH  18  19
ATOM     19  N   UNL     1       6.034   2.799   1.620  0.00  0.00    +0.000 N 
ATOM     20  H   UNL     1       6.418   2.378   0.777  0.00  0.00    +0.000 HD
BRANCH  19  25
ATOM     21  C   UNL     1       3.289   0.569   1.257  0.00  0.00    +0.000 A 
ATOM     22  C   UNL     1       2.563   0.668   2.425  0.00  0.00    +0.000 A 
ATOM     23  C   UNL     1       3.055   1.520   3.401  0.00  0.00    +0.000 A 
ATOM     24  C   UNL     1       4.238   2.228   3.173  0.00  0.00    +0.000 A 
ATOM     25  C   UNL     1       4.901   2.073   1.967  0.00  0.00    +0.000 A 
ATOM     26  N   UNL     1       4.431   1.250   1.013  0.00  0.00    +0.000 NA
BRANCH  23  27
ATOM     27  C   UNL     1       2.386   1.701   4.710  0.00  0.00    +0.000 C 
ATOM     28  N   UNL     1       1.032   1.521   4.756  0.00  0.00    +0.000 N 
ATOM     29  O   UNL     1       3.014   2.035   5.705  0.00  0.00    +0.000 OA
ATOM     30  H   UNL     1       0.451   1.446   3.933  0.00  0.00    +0.000 HD
ATOM     31  H   UNL     1       0.577   1.736   5.633  0.00  0.00    +0.000 HD
ENDBRANCH  23  27
BRANCH  21  33
ATOM     32  C   UNL     1       3.594  -0.342  -0.873  0.00  0.00    +0.000 C 
ATOM     33  O   UNL     1       2.786  -0.291   0.299  0.00  0.00    +0.000 OA
ENDBRANCH  21  33
ENDBRANCH  19  25
ENDBRANCH  18  19
ENDBRANCH   1  18
TORSDOF 7
