REMARK  Name = 
REMARK  7 active torsions:
REMARK  status: ('A' for Active; 'I' for Inactive)
REMARK    1  A    between atoms: C_2  and  C_20
REMARK    2  A    between atoms: N_3  and  C_4
REMARK    3  A    between atoms: C_4  and  C_5
REMARK    4  A    between atoms: C_8  and  C_9
REMARK    5  A    between atoms: C_9  and  O_10
REMARK    6  A    between atoms: C_9  and  C_11
REMARK    7  A    between atoms: C_11  and  N_12
REMARK                            x       y       z     vdW  Elec       q    Type
REMARK                         _______ _______ _______ _____ _____    ______ ____
ROOT
ATOM      1  C   UNL     1       2.220   0.481  -2.198  0.00  0.00    +0.000 C 
ENDROOT
BRANCH   1   2
ATOM      2  C   UNL     1       3.223   0.721  -3.293  0.00  0.00    +0.000 A 
ATOM      3  C   UNL     1       3.472   2.019  -3.754  0.00  0.00    +0.000 A 
ATOM      4  C   UNL     1       4.395   2.245  -4.777  0.00  0.00    +0.000 A 
ATOM      5  C   UNL     1       5.074   1.172  -5.377  0.00  0.00    +0.000 A 
ATOM      6  C   UNL     1       4.813  -0.126  -4.916  0.00  0.00    +0.000 A 
ATOM      7  C   UNL     1       3.891  -0.352  -3.894  0.00  0.00    +0.000 A 
BRANCH   5   8
ATOM      8  C   UNL     1       6.044   1.422  -6.514  0.00  0.00    +0.000 C 
BRANCH   8   9
ATOM      9  O   UNL     1       7.359   1.014  -6.109  0.00  0.00    +0.000 OA
ATOM     10  H   UNL     1       7.297   0.087  -5.826  0.00  0.00    +0.000 HD
ENDBRANCH   8   9
BRANCH   8  11
ATOM     11  C   UNL     1       5.680   0.671  -7.827  0.00  0.00    +0.000 C 
BRANCH  11  12
ATOM     12  N   UNL     1       4.360   0.949  -8.434  0.00  0.00    +0.000 NA
ATOM     13  C   UNL     1       4.229   2.360  -8.827  0.00  0.00    +0.000 C 
ATOM     14  C   UNL     1       2.870   2.646  -9.468  0.00  0.00    +0.000 C 
ATOM     15  C   UNL     1       2.614   1.731 -10.658  0.00  0.00    +0.000 C 
ATOM     16  C   UNL     1       2.793   0.276 -10.245  0.00  0.00    +0.000 C 
ATOM     17  C   UNL     1       4.153   0.054  -9.585  0.00  0.00    +0.000 C 
ENDBRANCH  11  12
ENDBRANCH   8  11
ENDBRANCH   5   8
ENDBRANCH   1   2
BRANCH   1  20
ATOM     18  O   UNL     1       0.277   2.505  -2.514  0.00  0.00    +0.000 OA
ATOM     19  C   UNL     1       0.037   1.369  -2.916  0.00  0.00    +0.000 C 
ATOM     20  N   UNL     1       0.895   0.317  -2.734  0.00  0.00    +0.000 N 
ATOM     21  H   UNL     1       0.744  -0.531  -3.266  0.00  0.00    +0.000 HD
BRANCH  19  22
ATOM     22  C   UNL     1      -1.229   1.044  -3.580  0.00  0.00    +0.000 A 
ATOM     23  C   UNL     1      -2.362   1.807  -3.332  0.00  0.00    +0.000 A 
ATOM     24  S   UNL     1      -3.740   1.270  -4.184  0.00  0.00    +0.000 S 
ATOM     25  C   UNL     1      -2.860   0.027  -4.941  0.00  0.00    +0.000 A 
ATOM     26  N   UNL     1      -3.449  -0.810  -5.837  0.00  0.00    +0.000 NA
ATOM     27  C   UNL     1      -2.648  -1.677  -6.364  0.00  0.00    +0.000 A 
ATOM     28  N   UNL     1      -1.315  -1.793  -6.068  0.00  0.00    +0.000 N 
ATOM     29  C   UNL     1      -0.705  -1.034  -5.105  0.00  0.00    +0.000 A 
ATOM     30  O   UNL     1       0.444  -1.280  -4.742  0.00  0.00    +0.000 OA
ATOM     31  C   UNL     1      -1.545   0.001  -4.522  0.00  0.00    +0.000 A 
ATOM     32  H   UNL     1      -0.759  -2.520  -6.483  0.00  0.00    +0.000 HD
ENDBRANCH  19  22
ENDBRANCH   1  20
TORSDOF 7
