REMARK  Name = 
REMARK  6 active torsions:
REMARK  status: ('A' for Active; 'I' for Inactive)
REMARK    1  A    between atoms: C_1  and  C_2
REMARK    2  A    between atoms: C_4  and  C_5
REMARK    3  A    between atoms: C_10  and  N_11
REMARK    4  A    between atoms: N_11  and  C_12
REMARK    5  A    between atoms: C_12  and  C_13
REMARK    6  A    between atoms: C_12  and  C_14
REMARK                            x       y       z     vdW  Elec       q    Type
REMARK                         _______ _______ _______ _____ _____    ______ ____
ROOT
ATOM      1  C   UNL     1       5.197  -0.587   2.495  0.00  0.00    +0.000 C 
ATOM      2  C   UNL     1       4.262   0.221   1.641  0.00  0.00    +0.000 A 
ATOM      3  C   UNL     1       4.461   1.602   1.500  0.00  0.00    +0.000 A 
ATOM      4  C   UNL     1       3.609   2.358   0.696  0.00  0.00    +0.000 A 
ATOM      5  C   UNL     1       2.593   1.675   0.050  0.00  0.00    +0.000 A 
ATOM      6  N   UNL     1       2.389   0.333   0.143  0.00  0.00    +0.000 NA
ATOM      7  C   UNL     1       3.212  -0.384   0.936  0.00  0.00    +0.000 A 
ENDROOT
BRANCH   4   8
ATOM      8  C   UNL     1       3.840   3.817   0.576  0.00  0.00    +0.000 C 
ATOM      9  N   UNL     1       2.988   4.569  -0.186  0.00  0.00    +0.000 N 
ATOM     10  O   UNL     1       4.781   4.361   1.147  0.00  0.00    +0.000 OA
ATOM     11  H   UNL     1       2.186   4.228  -0.688  0.00  0.00    +0.000 HD
ATOM     12  H   UNL     1       3.189   5.559  -0.239  0.00  0.00    +0.000 HD
ENDBRANCH   4   8
BRANCH   7  13
ATOM     13  N   UNL     1       2.981  -1.749   1.118  0.00  0.00    +0.000 N 
ATOM     14  H   UNL     1       2.552  -1.895   2.026  0.00  0.00    +0.000 HD
BRANCH  13  15
ATOM     15  C   UNL     1       2.351  -2.501   0.033  0.00  0.00    +0.000 C 
ATOM     16  C   UNL     1       0.823  -2.422   0.102  0.00  0.00    +0.000 C 
BRANCH  15  17
ATOM     17  C   UNL     1       2.857  -3.979   0.085  0.00  0.00    +0.000 C 
ATOM     18  C   UNL     1       2.475  -4.722   1.382  0.00  0.00    +0.000 C 
ATOM     19  C   UNL     1       3.006  -6.155   1.402  0.00  0.00    +0.000 C 
ATOM     20  C   UNL     1       4.513  -6.199   1.188  0.00  0.00    +0.000 C 
ATOM     21  C   UNL     1       4.905  -5.491  -0.104  0.00  0.00    +0.000 C 
ATOM     22  C   UNL     1       4.383  -4.056  -0.142  0.00  0.00    +0.000 C 
ENDBRANCH  15  17
ENDBRANCH  13  15
ENDBRANCH   7  13
TORSDOF 4
