REMARK  Name = 
REMARK  6 active torsions:
REMARK  status: ('A' for Active; 'I' for Inactive)
REMARK    1  A    between atoms: C_1  and  O_2
REMARK    2  A    between atoms: O_2  and  C_3
REMARK    3  A    between atoms: C_7  and  C_8
REMARK    4  A    between atoms: C_8  and  N_9
REMARK    5  A    between atoms: C_14  and  C_15
REMARK    6  A    between atoms: C_21  and  C_22
REMARK                            x       y       z     vdW  Elec       q    Type
REMARK                         _______ _______ _______ _____ _____    ______ ____
ROOT
ATOM      1  N   UNL     1       2.056  -4.618   2.626  0.00  0.00    +0.000 N 
ATOM      2  C   UNL     1       2.350  -5.482   1.602  0.00  0.00    +0.000 A 
ATOM      3  N   UNL     1       1.400  -6.380   1.426  0.00  0.00    +0.000 NA
ATOM      4  C   UNL     1       0.451  -6.086   2.375  0.00  0.00    +0.000 A 
ATOM      5  C   UNL     1      -0.732  -6.746   2.721  0.00  0.00    +0.000 A 
ATOM      6  C   UNL     1      -1.477  -6.206   3.776  0.00  0.00    +0.000 A 
ATOM      7  C   UNL     1      -1.021  -5.031   4.386  0.00  0.00    +0.000 A 
ATOM      8  N   UNL     1       0.131  -4.363   4.095  0.00  0.00    +0.000 NA
ATOM      9  C   UNL     1       0.812  -4.953   3.094  0.00  0.00    +0.000 A 
ENDROOT
BRANCH   6  10
ATOM     10  C   UNL     1      -2.708  -6.829   4.320  0.00  0.00    +0.000 C 
ATOM     11  N   UNL     1      -3.130  -8.021   3.803  0.00  0.00    +0.000 N 
ATOM     12  O   UNL     1      -3.331  -6.303   5.235  0.00  0.00    +0.000 OA
ATOM     13  H   UNL     1      -2.667  -8.543   3.076  0.00  0.00    +0.000 HD
ATOM     14  H   UNL     1      -3.951  -8.435   4.227  0.00  0.00    +0.000 HD
ENDBRANCH   6  10
BRANCH   1  15
ATOM     15  C   UNL     1       3.002  -3.738   3.291  0.00  0.00    +0.000 C 
BRANCH  15  20
ATOM     16  C   UNL     1       2.838  -0.221   1.945  0.00  0.00    +0.000 A 
ATOM     17  N   UNL     1       3.814  -0.243   1.021  0.00  0.00    +0.000 NA
ATOM     18  C   UNL     1       4.470  -1.397   0.912  0.00  0.00    +0.000 A 
ATOM     19  N   UNL     1       4.213  -2.515   1.606  0.00  0.00    +0.000 NA
ATOM     20  C   UNL     1       3.235  -2.450   2.548  0.00  0.00    +0.000 A 
ATOM     21  C   UNL     1       2.537  -1.272   2.802  0.00  0.00    +0.000 A 
ATOM     22  C   UNL     1       1.513  -1.094   3.881  0.00  0.00    +0.000 C 
BRANCH  16  24
ATOM     23  C   UNL     1       2.022   1.657   0.834  0.00  0.00    +0.000 C 
ATOM     24  O   UNL     1       2.082   0.931   2.061  0.00  0.00    +0.000 OA
ENDBRANCH  16  24
ENDBRANCH  15  20
ENDBRANCH   1  15
TORSDOF 4
