REMARK  Name = 
REMARK  4 active torsions:
REMARK  status: ('A' for Active; 'I' for Inactive)
REMARK    1  A    between atoms: C_2  and  C_4
REMARK    2  A    between atoms: C_7  and  C_8
REMARK    3  A    between atoms: C_8  and  C_9
REMARK    4  A    between atoms: C_13  and  C_14
REMARK                            x       y       z     vdW  Elec       q    Type
REMARK                         _______ _______ _______ _____ _____    ______ ____
ROOT
ATOM      1  C   UNL     1       5.418   0.361  -4.776  0.00  0.00    +0.000 C 
ATOM      2  C   UNL     1       6.173   1.612  -5.232  0.00  0.00    +0.000 C 
ATOM      3  C   UNL     1       5.021   1.127  -6.047  0.00  0.00    +0.000 C 
ENDROOT
BRANCH   1   7
ATOM      4  C   UNL     1       2.858   1.028  -1.363  0.00  0.00    +0.000 A 
ATOM      5  C   UNL     1       4.181   0.651  -1.149  0.00  0.00    +0.000 A 
ATOM      6  C   UNL     1       5.009   0.393  -2.248  0.00  0.00    +0.000 A 
ATOM      7  C   UNL     1       4.508   0.511  -3.549  0.00  0.00    +0.000 A 
ATOM      8  N   UNL     1       3.201   0.838  -3.751  0.00  0.00    +0.000 NA
ATOM      9  C   UNL     1       2.413   1.083  -2.675  0.00  0.00    +0.000 A 
BRANCH   4  11
ATOM     10  N   UNL     1       2.449   1.880   0.872  0.00  0.00    +0.000 N 
ATOM     11  C   UNL     1       1.917   1.376  -0.286  0.00  0.00    +0.000 C 
ATOM     12  O   UNL     1       0.705   1.275  -0.431  0.00  0.00    +0.000 OA
ATOM     13  H   UNL     1       1.781   2.238   1.547  0.00  0.00    +0.000 HD
ATOM     14  H   UNL     1       3.394   2.228   0.924  0.00  0.00    +0.000 HD
ENDBRANCH   4  11
ENDBRANCH   1   7
BRANCH   1  15
ATOM     15  C   UNL     1       6.072  -0.998  -5.036  0.00  0.00    +0.000 A 
ATOM     16  C   UNL     1       5.345  -2.041  -5.633  0.00  0.00    +0.000 A 
ATOM     17  C   UNL     1       5.979  -3.197  -6.082  0.00  0.00    +0.000 A 
ATOM     18  C   UNL     1       7.362  -3.326  -5.954  0.00  0.00    +0.000 A 
ATOM     19  C   UNL     1       8.131  -2.321  -5.344  0.00  0.00    +0.000 A 
ATOM     20  C   UNL     1       7.454  -1.197  -4.839  0.00  0.00    +0.000 A 
BRANCH  19  21
ATOM     21  C   UNL     1       9.605  -2.374  -5.334  0.00  0.00    +0.000 A 
ATOM     22  C   UNL     1      10.325  -2.814  -6.447  0.00  0.00    +0.000 A 
ATOM     23  C   UNL     1      11.716  -2.798  -6.415  0.00  0.00    +0.000 A 
ATOM     24  C   UNL     1      12.360  -2.339  -5.276  0.00  0.00    +0.000 A 
ATOM     25  C   UNL     1      11.579  -1.907  -4.216  0.00  0.00    +0.000 A 
ATOM     26  N   UNL     1      10.226  -1.908  -4.221  0.00  0.00    +0.000 NA
ENDBRANCH  19  21
ENDBRANCH   1  15
TORSDOF 4
