REMARK  Name = 
REMARK  4 active torsions:
REMARK  status: ('A' for Active; 'I' for Inactive)
REMARK    1  A    between atoms: C_2  and  C_4
REMARK    2  A    between atoms: C_7  and  C_8
REMARK    3  A    between atoms: C_8  and  C_9
REMARK    4  A    between atoms: C_9  and  C_10
REMARK                            x       y       z     vdW  Elec       q    Type
REMARK                         _______ _______ _______ _____ _____    ______ ____
ROOT
ATOM      1  C   UNL     1       3.375   0.372  -0.876  0.00  0.00    +0.000 A 
ATOM      2  C   UNL     1       2.636   0.660  -2.028  0.00  0.00    +0.000 A 
ATOM      3  C   UNL     1       3.289   1.045  -3.206  0.00  0.00    +0.000 A 
ATOM      4  C   UNL     1       4.683   1.163  -3.252  0.00  0.00    +0.000 A 
ATOM      5  C   UNL     1       5.411   0.899  -2.079  0.00  0.00    +0.000 A 
ATOM      6  C   UNL     1       4.764   0.517  -0.898  0.00  0.00    +0.000 A 
ENDROOT
BRANCH   1   8
ATOM      7  N   UNL     1       1.563  -0.799   0.251  0.00  0.00    +0.000 N 
ATOM      8  C   UNL     1       2.732  -0.100   0.377  0.00  0.00    +0.000 C 
ATOM      9  O   UNL     1       3.248   0.075   1.474  0.00  0.00    +0.000 OA
ATOM     10  H   UNL     1       1.205  -1.226   1.095  0.00  0.00    +0.000 HD
ATOM     11  H   UNL     1       1.262  -1.183  -0.633  0.00  0.00    +0.000 HD
ENDBRANCH   1   8
BRANCH   4  12
ATOM     12  C   UNL     1       5.449   1.430  -4.532  0.00  0.00    +0.000 C 
BRANCH  12  13
ATOM     13  C   UNL     1       4.795   2.377  -5.525  0.00  0.00    +0.000 C 
ATOM     14  C   UNL     1       3.878   1.789  -6.591  0.00  0.00    +0.000 C 
ATOM     15  C   UNL     1       5.244   2.251  -6.984  0.00  0.00    +0.000 C 
BRANCH  13  16
ATOM     16  C   UNL     1       4.538   3.807  -5.056  0.00  0.00    +0.000 A 
ATOM     17  C   UNL     1       5.582   4.742  -5.024  0.00  0.00    +0.000 A 
ATOM     18  C   UNL     1       5.305   6.088  -4.790  0.00  0.00    +0.000 A 
ATOM     19  C   UNL     1       3.994   6.466  -4.568  0.00  0.00    +0.000 A 
ATOM     20  F   UNL     1       3.682   7.754  -4.383  0.00  0.00    +0.000 F 
ATOM     21  C   UNL     1       3.013   5.494  -4.565  0.00  0.00    +0.000 A 
ATOM     22  N   UNL     1       3.255   4.183  -4.806  0.00  0.00    +0.000 NA
ENDBRANCH  13  16
ENDBRANCH  12  13
ENDBRANCH   4  12
TORSDOF 4
