REMARK  Name = 
REMARK  8 active torsions:
REMARK  status: ('A' for Active; 'I' for Inactive)
REMARK    1  A    between atoms: N_1  and  C_2
REMARK    2  A    between atoms: C_2  and  C_3
REMARK    3  A    between atoms: C_3  and  N_4
REMARK    4  A    between atoms: C_3  and  C_12
REMARK    5  A    between atoms: C_5  and  C_7
REMARK    6  A    between atoms: C_15  and  C_16
REMARK    7  A    between atoms: C_16  and  N_17
REMARK    8  A    between atoms: C_18  and  C_20
REMARK                            x       y       z     vdW  Elec       q    Type
REMARK                         _______ _______ _______ _____ _____    ______ ____
ROOT
ATOM      1  C   UNL     1       4.314   1.240   0.777  0.00  0.00    +0.000 A 
ATOM      2  C   UNL     1       4.973   2.479   0.791  0.00  0.00    +0.000 A 
ATOM      3  C   UNL     1       6.372   2.548   0.825  0.00  0.00    +0.000 A 
ATOM      4  C   UNL     1       7.145   1.380   0.839  0.00  0.00    +0.000 A 
ATOM      5  C   UNL     1       6.489   0.143   0.868  0.00  0.00    +0.000 A 
ATOM      6  C   UNL     1       5.093   0.073   0.833  0.00  0.00    +0.000 A 
ENDROOT
BRANCH   1   7
ATOM      7  C   UNL     1       2.789   1.175   0.701  0.00  0.00    +0.000 C 
BRANCH   7   8
ATOM      8  N   UNL     1       2.287   0.581   1.936  0.00  0.00    +0.000 N 
ATOM      9  C   UNL     1       0.959   0.583   2.285  0.00  0.00    +0.000 C 
ATOM     10  O   UNL     1       0.074   1.017   1.559  0.00  0.00    +0.000 OA
ATOM     11  H   UNL     1       2.971   0.284   2.615  0.00  0.00    +0.000 HD
BRANCH   9  12
ATOM     12  C   UNL     1       0.680   0.032   3.586  0.00  0.00    +0.000 A 
ATOM     13  C   UNL     1       1.478  -0.482   4.591  0.00  0.00    +0.000 A 
ATOM     14  C   UNL     1       0.591  -0.826   5.627  0.00  0.00    +0.000 A 
ATOM     15  N   UNL     1      -0.679  -0.578   5.309  0.00  0.00    +0.000 NA
ATOM     16  N   UNL     1      -0.600  -0.064   4.068  0.00  0.00    +0.000 N 
ATOM     17  H   UNL     1      -1.455   0.211   3.593  0.00  0.00    +0.000 HD
ENDBRANCH   9  12
ENDBRANCH   7   8
BRANCH   7  18
ATOM     18  C   UNL     1       2.299   0.402  -0.564  0.00  0.00    +0.000 C 
BRANCH  18  19
ATOM     19  N   UNL     1       2.778   0.953  -1.840  0.00  0.00    +0.000 NA
ATOM     20  H   UNL     1       2.620   0.266  -2.576  0.00  0.00    +0.000 HD
ATOM     21  H   UNL     1       3.787   1.097  -1.796  0.00  0.00    +0.000 HD
ENDBRANCH  18  19
ENDBRANCH   7  18
ENDBRANCH   1   7
BRANCH   4  22
ATOM     22  C   UNL     1       8.651   1.438   0.851  0.00  0.00    +0.000 C 
BRANCH  22  23
ATOM     23  N   UNL     1       9.166   1.438   2.196  0.00  0.00    +0.000 N 
ATOM     24  C   UNL     1      10.512   1.543   2.443  0.00  0.00    +0.000 C 
ATOM     25  O   UNL     1      11.332   1.675   1.539  0.00  0.00    +0.000 OA
ATOM     26  H   UNL     1       8.550   1.097   2.927  0.00  0.00    +0.000 HD
BRANCH  24  27
ATOM     27  C   UNL     1      10.918   1.554   3.855  0.00  0.00    +0.000 A 
ATOM     28  C   UNL     1      12.124   2.139   4.220  0.00  0.00    +0.000 A 
ATOM     29  S   UNL     1      12.413   2.121   5.900  0.00  0.00    +0.000 S 
ATOM     30  C   UNL     1      10.965   1.278   6.195  0.00  0.00    +0.000 A 
ATOM     31  N   UNL     1      10.612   0.915   7.457  0.00  0.00    +0.000 NA
ATOM     32  C   UNL     1       9.507   0.251   7.533  0.00  0.00    +0.000 A 
ATOM     33  N   UNL     1       8.718  -0.078   6.460  0.00  0.00    +0.000 N 
ATOM     34  C   UNL     1       9.018   0.296   5.172  0.00  0.00    +0.000 A 
ATOM     35  O   UNL     1       8.264   0.027   4.241  0.00  0.00    +0.000 OA
ATOM     36  C   UNL     1      10.259   1.033   5.029  0.00  0.00    +0.000 A 
ATOM     37  H   UNL     1       7.863  -0.596   6.589  0.00  0.00    +0.000 HD
ENDBRANCH  24  27
ENDBRANCH  22  23
ENDBRANCH   4  22
TORSDOF 8
