REMARK  Name = 
REMARK  6 active torsions:
REMARK  status: ('A' for Active; 'I' for Inactive)
REMARK    1  A    between atoms: C_2  and  C_25
REMARK    2  A    between atoms: N_3  and  C_4
REMARK    3  A    between atoms: C_4  and  C_5
REMARK    4  A    between atoms: C_8  and  C_9
REMARK    5  A    between atoms: C_9  and  N_10
REMARK    6  A    between atoms: C_11  and  C_13
REMARK                            x       y       z     vdW  Elec       q    Type
REMARK                         _______ _______ _______ _____ _____    ______ ____
ROOT
ATOM      1  C   UNL     1       3.221  -3.515   1.208  0.00  0.00    +0.000 A 
ATOM      2  C   UNL     1       4.473  -3.209   1.745  0.00  0.00    +0.000 A 
ATOM      3  C   UNL     1       5.337  -4.235   2.118  0.00  0.00    +0.000 A 
ATOM      4  C   UNL     1       4.918  -5.554   1.974  0.00  0.00    +0.000 A 
ATOM      5  N   UNL     1       3.705  -5.878   1.454  0.00  0.00    +0.000 NA
ATOM      6  C   UNL     1       2.893  -4.860   1.087  0.00  0.00    +0.000 A 
ENDROOT
BRANCH   1   7
ATOM      7  C   UNL     1       2.272  -2.444   0.772  0.00  0.00    +0.000 C 
BRANCH   7  10
ATOM      8  O   UNL     1       0.286  -0.533   0.462  0.00  0.00    +0.000 OA
ATOM      9  C   UNL     1       0.392  -1.092   1.550  0.00  0.00    +0.000 C 
ATOM     10  N   UNL     1       1.348  -2.053   1.807  0.00  0.00    +0.000 N 
ATOM     11  H   UNL     1       1.395  -2.440   2.746  0.00  0.00    +0.000 HD
BRANCH   9  12
ATOM     12  C   UNL     1      -0.532  -0.759   2.681  0.00  0.00    +0.000 A 
ATOM     13  C   UNL     1      -1.536   0.181   2.471  0.00  0.00    +0.000 A 
ATOM     14  C   UNL     1      -2.390   0.487   3.525  0.00  0.00    +0.000 A 
ATOM     15  C   UNL     1      -2.210  -0.150   4.747  0.00  0.00    +0.000 A 
ATOM     16  C   UNL     1      -1.184  -1.078   4.866  0.00  0.00    +0.000 A 
ATOM     17  N   UNL     1      -0.334  -1.406   3.864  0.00  0.00    +0.000 NA
ENDBRANCH   9  12
ENDBRANCH   7  10
ENDBRANCH   1   7
BRANCH   4  18
ATOM     18  C   UNL     1       5.818  -6.689   2.398  0.00  0.00    +0.000 C 
BRANCH  18  19
ATOM     19  N   UNL     1       6.656  -7.162   1.323  0.00  0.00    +0.000 N 
ATOM     20  C   UNL     1       7.952  -6.755   1.148  0.00  0.00    +0.000 C 
ATOM     21  O   UNL     1       8.490  -5.940   1.890  0.00  0.00    +0.000 OA
ATOM     22  H   UNL     1       6.168  -7.626   0.563  0.00  0.00    +0.000 HD
BRANCH  20  23
ATOM     23  C   UNL     1       8.691  -7.416   0.063  0.00  0.00    +0.000 A 
ATOM     24  C   UNL     1      10.077  -7.500   0.121  0.00  0.00    +0.000 A 
ATOM     25  S   UNL     1      10.766  -8.329  -1.202  0.00  0.00    +0.000 S 
ATOM     26  C   UNL     1       9.242  -8.566  -1.921  0.00  0.00    +0.000 A 
ATOM     27  N   UNL     1       9.123  -9.196  -3.121  0.00  0.00    +0.000 NA
ATOM     28  C   UNL     1       7.912  -9.280  -3.561  0.00  0.00    +0.000 A 
ATOM     29  N   UNL     1       6.807  -8.803  -2.904  0.00  0.00    +0.000 N 
ATOM     30  C   UNL     1       6.875  -8.213  -1.667  0.00  0.00    +0.000 A 
ATOM     31  O   UNL     1       5.858  -7.889  -1.063  0.00  0.00    +0.000 OA
ATOM     32  C   UNL     1       8.219  -8.051  -1.145  0.00  0.00    +0.000 A 
ATOM     33  H   UNL     1       5.882  -8.923  -3.287  0.00  0.00    +0.000 HD
ENDBRANCH  20  23
ENDBRANCH  18  19
ENDBRANCH   4  18
TORSDOF 6
