REMARK  Name = 
REMARK  9 active torsions:
REMARK  status: ('A' for Active; 'I' for Inactive)
REMARK    1  A    between atoms: N_1  and  C_2
REMARK    2  A    between atoms: C_2  and  C_3
REMARK    3  A    between atoms: C_2  and  C_19
REMARK    4  A    between atoms: C_3  and  C_4
REMARK    5  A    between atoms: C_7  and  C_8
REMARK    6  A    between atoms: C_8  and  N_9
REMARK    7  A    between atoms: N_9  and  C_10
REMARK    8  A    between atoms: C_13  and  O_14
REMARK    9  A    between atoms: C_19  and  C_21
REMARK                            x       y       z     vdW  Elec       q    Type
REMARK                         _______ _______ _______ _____ _____    ______ ____
ROOT
ATOM      1  C   UNL     1       5.573  -0.559  11.959  0.00  0.00    +0.000 C 
ENDROOT
BRANCH   1   2
ATOM      2  C   UNL     1       4.656  -0.912  10.811  0.00  0.00    +0.000 A 
ATOM      3  C   UNL     1       3.463  -1.613  11.017  0.00  0.00    +0.000 A 
ATOM      4  C   UNL     1       2.545  -1.776   9.976  0.00  0.00    +0.000 A 
ATOM      5  C   UNL     1       2.787  -1.229   8.706  0.00  0.00    +0.000 A 
ATOM      6  C   UNL     1       3.997  -0.556   8.490  0.00  0.00    +0.000 A 
ATOM      7  C   UNL     1       4.918  -0.400   9.529  0.00  0.00    +0.000 A 
BRANCH   5   8
ATOM      8  C   UNL     1       1.762  -1.370   7.608  0.00  0.00    +0.000 C 
BRANCH   8   9
ATOM      9  N   UNL     1       0.483  -0.782   8.011  0.00  0.00    +0.000 NA
ATOM     10  H   UNL     1       0.638   0.204   8.224  0.00  0.00    +0.000 HD
BRANCH   9  11
ATOM     11  C   UNL     1      -0.584  -0.919   7.015  0.00  0.00    +0.000 C 
ATOM     12  C   UNL     1      -0.906  -2.395   6.723  0.00  0.00    +0.000 C 
ATOM     13  C   UNL     1      -2.123  -2.558   5.815  0.00  0.00    +0.000 C 
ATOM     14  C   UNL     1      -3.351  -1.825   6.344  0.00  0.00    +0.000 C 
ATOM     15  C   UNL     1      -3.045  -0.359   6.642  0.00  0.00    +0.000 C 
ATOM     16  C   UNL     1      -1.829  -0.188   7.555  0.00  0.00    +0.000 C 
BRANCH  14  17
ATOM     17  O   UNL     1      -3.848  -2.472   7.512  0.00  0.00    +0.000 OA
ATOM     18  H   UNL     1      -3.155  -2.473   8.194  0.00  0.00    +0.000 HD
ENDBRANCH  14  17
ENDBRANCH   9  11
ENDBRANCH   8   9
ENDBRANCH   5   8
ENDBRANCH   1   2
BRANCH   1  19
ATOM     19  C   UNL     1       6.229  -1.665  12.802  0.00  0.00    +0.000 C 
BRANCH  19  20
ATOM     20  N   UNL     1       5.272  -2.440  13.637  0.00  0.00    +0.000 NA
ATOM     21  H   UNL     1       5.813  -2.927  14.354  0.00  0.00    +0.000 HD
ATOM     22  H   UNL     1       4.914  -3.199  13.047  0.00  0.00    +0.000 HD
ENDBRANCH  19  20
BRANCH  19  23
ATOM     23  C   UNL     1       7.115  -2.625  11.979  0.00  0.00    +0.000 C 
ATOM     24  O   UNL     1       6.682  -3.743  11.681  0.00  0.00    +0.000 OA
BRANCH  23  25
ATOM     25  C   UNL     1       8.442  -2.207  11.489  0.00  0.00    +0.000 A 
ATOM     26  C   UNL     1       8.936  -2.743  10.306  0.00  0.00    +0.000 A 
ATOM     27  S   UNL     1      10.422  -2.064   9.818  0.00  0.00    +0.000 S 
ATOM     28  C   UNL     1      10.481  -1.070  11.197  0.00  0.00    +0.000 A 
ATOM     29  N   UNL     1      11.499  -0.186  11.379  0.00  0.00    +0.000 NA
ATOM     30  C   UNL     1      11.421   0.500  12.471  0.00  0.00    +0.000 A 
ATOM     31  N   UNL     1      10.434   0.358  13.411  0.00  0.00    +0.000 N 
ATOM     32  C   UNL     1       9.486  -0.634  13.340  0.00  0.00    +0.000 A 
ATOM     33  O   UNL     1       8.825  -0.946  14.323  0.00  0.00    +0.000 OA
ATOM     34  C   UNL     1       9.420  -1.308  12.054  0.00  0.00    +0.000 A 
ATOM     35  H   UNL     1      10.493   0.849  14.291  0.00  0.00    +0.000 HD
ENDBRANCH  23  25
ENDBRANCH  19  23
ENDBRANCH   1  19
TORSDOF 9
