REMARK  Name = 
REMARK  8 active torsions:
REMARK  status: ('A' for Active; 'I' for Inactive)
REMARK    1  A    between atoms: C_1  and  C_2
REMARK    2  A    between atoms: C_2  and  N_3
REMARK    3  A    between atoms: C_2  and  C_19
REMARK    4  A    between atoms: N_3  and  C_4
REMARK    5  A    between atoms: C_7  and  C_8
REMARK    6  A    between atoms: C_8  and  O_9
REMARK    7  A    between atoms: C_8  and  C_10
REMARK    8  A    between atoms: C_10  and  C_11
REMARK                            x       y       z     vdW  Elec       q    Type
REMARK                         _______ _______ _______ _____ _____    ______ ____
ROOT
ATOM      1  C   UNL     1       2.608   0.328   2.399  0.00  0.00    +0.000 A 
ATOM      2  C   UNL     1       1.288   0.748   2.614  0.00  0.00    +0.000 A 
ATOM      3  C   UNL     1       0.920   1.441   3.772  0.00  0.00    +0.000 A 
ATOM      4  C   UNL     1       1.864   1.693   4.771  0.00  0.00    +0.000 A 
ATOM      5  C   UNL     1       3.172   1.210   4.582  0.00  0.00    +0.000 A 
ATOM      6  C   UNL     1       3.536   0.545   3.412  0.00  0.00    +0.000 A 
ENDROOT
BRANCH   1   7
ATOM      7  N   UNL     1       2.872  -0.405   1.245  0.00  0.00    +0.000 N 
ATOM      8  H   UNL     1       2.507  -1.348   1.381  0.00  0.00    +0.000 HD
BRANCH   7  10
ATOM      9  C   UNL     1       4.667   0.907   0.153  0.00  0.00    +0.000 C 
ATOM     10  C   UNL     1       4.215  -0.482   0.634  0.00  0.00    +0.000 C 
BRANCH  10  11
ATOM     11  C   UNL     1       4.215  -1.412  -0.569  0.00  0.00    +0.000 A 
ATOM     12  C   UNL     1       3.110  -1.594  -1.388  0.00  0.00    +0.000 A 
ATOM     13  S   UNL     1       3.412  -2.628  -2.707  0.00  0.00    +0.000 S 
ATOM     14  C   UNL     1       5.030  -2.858  -2.228  0.00  0.00    +0.000 A 
ATOM     15  N   UNL     1       5.872  -3.638  -2.954  0.00  0.00    +0.000 NA
ATOM     16  C   UNL     1       7.071  -3.709  -2.477  0.00  0.00    +0.000 A 
ATOM     17  N   UNL     1       7.503  -3.078  -1.336  0.00  0.00    +0.000 N 
ATOM     18  C   UNL     1       6.689  -2.272  -0.570  0.00  0.00    +0.000 A 
ATOM     19  O   UNL     1       7.101  -1.700   0.434  0.00  0.00    +0.000 OA
ATOM     20  C   UNL     1       5.332  -2.167  -1.070  0.00  0.00    +0.000 A 
ATOM     21  H   UNL     1       8.456  -3.179  -1.023  0.00  0.00    +0.000 HD
ENDBRANCH  10  11
ENDBRANCH   7  10
ENDBRANCH   1   7
BRANCH   4  22
ATOM     22  C   UNL     1       1.451   2.413   6.036  0.00  0.00    +0.000 C 
BRANCH  22  23
ATOM     23  O   UNL     1       0.977   1.419   6.945  0.00  0.00    +0.000 OA
ATOM     24  H   UNL     1       1.757   0.984   7.330  0.00  0.00    +0.000 HD
ENDBRANCH  22  23
BRANCH  22  25
ATOM     25  C   UNL     1       2.578   3.265   6.650  0.00  0.00    +0.000 C 
BRANCH  25  26
ATOM     26  C   UNL     1       2.160   3.985   7.899  0.00  0.00    +0.000 A 
ATOM     27  C   UNL     1       1.139   4.926   7.876  0.00  0.00    +0.000 A 
ATOM     28  C   UNL     1       0.756   5.522   9.073  0.00  0.00    +0.000 A 
ATOM     29  C   UNL     1       1.410   5.172  10.248  0.00  0.00    +0.000 A 
ATOM     30  C   UNL     1       2.434   4.246  10.177  0.00  0.00    +0.000 A 
ATOM     31  N   UNL     1       2.824   3.648   9.034  0.00  0.00    +0.000 NA
ENDBRANCH  25  26
ENDBRANCH  22  25
ENDBRANCH   4  22
TORSDOF 7
