REMARK  Name = 
REMARK  5 active torsions:
REMARK  status: ('A' for Active; 'I' for Inactive)
REMARK    1  A    between atoms: C_7  and  C_8
REMARK    2  A    between atoms: N_10  and  C_11
REMARK    3  A    between atoms: C_11  and  C_12
REMARK    4  A    between atoms: C_15  and  C_16
REMARK    5  A    between atoms: C_16  and  N_17
REMARK                            x       y       z     vdW  Elec       q    Type
REMARK                         _______ _______ _______ _____ _____    ______ ____
ROOT
ATOM      1  C   UNL     1      -4.466  -2.967   1.876  0.00  0.00    +0.000 C 
ATOM      2  O   UNL     1      -4.881  -2.325   0.913  0.00  0.00    +0.000 OA
ATOM      3  N   UNL     1      -3.607  -4.030   1.716  0.00  0.00    +0.000 N 
ATOM      4  H   UNL     1      -3.239  -4.519   2.528  0.00  0.00    +0.000 HD
ENDROOT
BRANCH   1  11
ATOM      5  N   UNL     1      -4.509  -4.196   8.485  0.00  0.00    +0.000 N 
ATOM      6  C   UNL     1      -4.565  -3.826   7.179  0.00  0.00    +0.000 A 
ATOM      7  N   UNL     1      -5.302  -2.815   6.815  0.00  0.00    +0.000 NA
ATOM      8  C   UNL     1      -5.268  -2.566   5.487  0.00  0.00    +0.000 A 
ATOM      9  N   UNL     1      -5.968  -1.560   4.895  0.00  0.00    +0.000 N 
ATOM     10  C   UNL     1      -5.740  -1.591   3.542  0.00  0.00    +0.000 A 
ATOM     11  C   UNL     1      -4.877  -2.646   3.245  0.00  0.00    +0.000 A 
ATOM     12  C   UNL     1      -4.571  -3.242   4.506  0.00  0.00    +0.000 A 
ATOM     13  C   UNL     1      -3.743  -4.337   4.941  0.00  0.00    +0.000 A 
ATOM     14  O   UNL     1      -3.027  -4.993   4.190  0.00  0.00    +0.000 OA
ATOM     15  N   UNL     1      -3.817  -4.577   6.300  0.00  0.00    +0.000 N 
ATOM     16  H   UNL     1      -5.245  -3.766   9.037  0.00  0.00    +0.000 HD
ATOM     17  H   UNL     1      -4.390  -5.180   8.685  0.00  0.00    +0.000 HD
ATOM     18  H   UNL     1      -6.561  -0.905   5.389  0.00  0.00    +0.000 HD
ATOM     19  H   UNL     1      -3.225  -5.313   6.646  0.00  0.00    +0.000 HD
ENDBRANCH   1  11
BRANCH   3  20
ATOM     20  C   UNL     1      -3.173  -4.434   0.401  0.00  0.00    +0.000 C 
BRANCH  20  21
ATOM     21  C   UNL     1      -2.205  -5.579   0.435  0.00  0.00    +0.000 A 
ATOM     22  C   UNL     1      -0.829  -5.356   0.522  0.00  0.00    +0.000 A 
ATOM     23  C   UNL     1       0.051  -6.435   0.529  0.00  0.00    +0.000 A 
ATOM     24  C   UNL     1      -0.463  -7.728   0.470  0.00  0.00    +0.000 A 
ATOM     25  N   UNL     1      -1.795  -7.975   0.396  0.00  0.00    +0.000 NA
ATOM     26  C   UNL     1      -2.628  -6.902   0.384  0.00  0.00    +0.000 A 
BRANCH  24  27
ATOM     27  C   UNL     1       0.492  -8.914   0.473  0.00  0.00    +0.000 C 
BRANCH  27  28
ATOM     28  N   UNL     1       1.383  -8.995   1.666  0.00  0.00    +0.000 NA
ATOM     29  C   UNL     1       0.575  -9.262   2.869  0.00  0.00    +0.000 C 
ATOM     30  C   UNL     1       1.411  -9.577   4.110  0.00  0.00    +0.000 C 
ATOM     31  C   UNL     1       2.384 -10.713   3.841  0.00  0.00    +0.000 C 
ATOM     32  C   UNL     1       3.262 -10.346   2.656  0.00  0.00    +0.000 C 
ATOM     33  C   UNL     1       2.416 -10.016   1.425  0.00  0.00    +0.000 C 
ENDBRANCH  27  28
ENDBRANCH  24  27
ENDBRANCH  20  21
ENDBRANCH   3  20
TORSDOF 5
