REMARK  Name = 
REMARK  9 active torsions:
REMARK  status: ('A' for Active; 'I' for Inactive)
REMARK    1  A    between atoms: C_1  and  O_2
REMARK    2  A    between atoms: O_2  and  C_3
REMARK    3  A    between atoms: C_10  and  C_11
REMARK    4  A    between atoms: N_13  and  C_14
REMARK    5  A    between atoms: C_14  and  C_15
REMARK    6  A    between atoms: C_18  and  N_19
REMARK    7  A    between atoms: N_19  and  C_20
REMARK    8  A    between atoms: C_20  and  C_21
REMARK    9  A    between atoms: C_21  and  C_22
REMARK                            x       y       z     vdW  Elec       q    Type
REMARK                         _______ _______ _______ _____ _____    ______ ____
ROOT
ATOM      1  C   UNL     1       2.768   1.585   2.862  0.00  0.00    +0.000 C 
ENDROOT
BRANCH   1   2
ATOM      2  C   UNL     1       1.690   2.453   2.273  0.00  0.00    +0.000 A 
ATOM      3  C   UNL     1       0.461   1.902   1.898  0.00  0.00    +0.000 A 
ATOM      4  C   UNL     1      -0.545   2.709   1.360  0.00  0.00    +0.000 A 
ATOM      5  C   UNL     1      -0.359   4.087   1.210  0.00  0.00    +0.000 A 
ATOM      6  C   UNL     1       0.897   4.619   1.515  0.00  0.00    +0.000 A 
ATOM      7  C   UNL     1       1.910   3.817   2.053  0.00  0.00    +0.000 A 
BRANCH   5   8
ATOM      8  N   UNL     1      -1.329   4.957   0.687  0.00  0.00    +0.000 N 
ATOM      9  H   UNL     1      -1.149   5.087  -0.309  0.00  0.00    +0.000 HD
BRANCH   8  10
ATOM     10  C   UNL     1      -2.746   4.626   0.914  0.00  0.00    +0.000 C 
BRANCH  10  11
ATOM     11  C   UNL     1      -3.098   4.659   2.408  0.00  0.00    +0.000 C 
BRANCH  11  12
ATOM     12  C   UNL     1      -4.545   4.339   2.676  0.00  0.00    +0.000 A 
ATOM     13  C   UNL     1      -5.164   4.844   3.819  0.00  0.00    +0.000 A 
ATOM     14  C   UNL     1      -6.487   4.500   4.074  0.00  0.00    +0.000 A 
ATOM     15  C   UNL     1      -7.153   3.652   3.198  0.00  0.00    +0.000 A 
ATOM     16  C   UNL     1      -6.460   3.176   2.098  0.00  0.00    +0.000 A 
ATOM     17  N   UNL     1      -5.177   3.496   1.824  0.00  0.00    +0.000 NA
ENDBRANCH  11  12
ENDBRANCH  10  11
ENDBRANCH   8  10
ENDBRANCH   5   8
ENDBRANCH   1   2
BRANCH   1  20
ATOM     18  C   UNL     1       4.603   0.135   2.136  0.00  0.00    +0.000 C 
ATOM     19  O   UNL     1       4.836  -0.183   3.300  0.00  0.00    +0.000 OA
ATOM     20  N   UNL     1       3.597   1.009   1.832  0.00  0.00    +0.000 N 
ATOM     21  H   UNL     1       3.442   1.306   0.877  0.00  0.00    +0.000 HD
BRANCH  18  29
ATOM     22  C   UNL     1       4.406   0.416  -1.296  0.00  0.00    +0.000 A 
ATOM     23  N   UNL     1       4.569   0.353  -2.633  0.00  0.00    +0.000 NA
ATOM     24  C   UNL     1       5.575  -0.382  -3.112  0.00  0.00    +0.000 A 
ATOM     25  N   UNL     1       6.459  -1.083  -2.407  0.00  0.00    +0.000 NA
ATOM     26  C   UNL     1       6.267  -0.988  -1.081  0.00  0.00    +0.000 A 
ATOM     27  S   UNL     1       7.303  -1.823  -0.029  0.00  0.00    +0.000 S 
ATOM     28  C   UNL     1       6.467  -1.244   1.331  0.00  0.00    +0.000 A 
ATOM     29  C   UNL     1       5.398  -0.410   1.024  0.00  0.00    +0.000 A 
ATOM     30  C   UNL     1       5.277  -0.260  -0.424  0.00  0.00    +0.000 A 
BRANCH  22  32
ATOM     31  C   UNL     1       2.297   1.328  -1.717  0.00  0.00    +0.000 C 
ATOM     32  O   UNL     1       3.390   1.212  -0.807  0.00  0.00    +0.000 OA
ENDBRANCH  22  32
ENDBRANCH  18  29
ENDBRANCH   1  20
TORSDOF 8
