REMARK  Name = 
REMARK  7 active torsions:
REMARK  status: ('A' for Active; 'I' for Inactive)
REMARK    1  A    between atoms: N_1  and  C_2
REMARK    2  A    between atoms: C_2  and  C_3
REMARK    3  A    between atoms: C_3  and  C_4
REMARK    4  A    between atoms: C_7  and  C_8
REMARK    5  A    between atoms: C_8  and  O_9
REMARK    6  A    between atoms: O_9  and  C_10
REMARK    7  A    between atoms: C_13  and  C_14
REMARK                            x       y       z     vdW  Elec       q    Type
REMARK                         _______ _______ _______ _____ _____    ______ ____
ROOT
ATOM      1  C   UNL     1       8.786  -1.488   0.529  0.00  0.00    +0.000 C 
ENDROOT
BRANCH   1   5
ATOM      2  C   UNL     1       4.582  -1.347   0.545  0.00  0.00    +0.000 A 
ATOM      3  C   UNL     1       5.263  -2.561   0.544  0.00  0.00    +0.000 A 
ATOM      4  N   UNL     1       6.617  -2.646   0.537  0.00  0.00    +0.000 NA
ATOM      5  C   UNL     1       7.282  -1.464   0.525  0.00  0.00    +0.000 A 
ATOM      6  C   UNL     1       6.599  -0.253   0.517  0.00  0.00    +0.000 A 
ATOM      7  N   UNL     1       5.247  -0.167   0.527  0.00  0.00    +0.000 NA
BRANCH   2   8
ATOM      8  C   UNL     1       3.079  -1.311   0.563  0.00  0.00    +0.000 C 
BRANCH   8   9
ATOM      9  C   UNL     1       2.491  -1.315  -0.850  0.00  0.00    +0.000 C 
BRANCH   9  10
ATOM     10  N   UNL     1       1.028  -1.290  -0.804  0.00  0.00    +0.000 NA
ATOM     11  H   UNL     1       0.663  -1.273  -1.757  0.00  0.00    +0.000 HD
ATOM     12  H   UNL     1       0.718  -0.417  -0.375  0.00  0.00    +0.000 HD
ENDBRANCH   9  10
ENDBRANCH   8   9
ENDBRANCH   2   8
ENDBRANCH   1   5
BRANCH   1  13
ATOM     13  O   UNL     1       9.274  -1.489  -0.815  0.00  0.00    +0.000 OA
BRANCH  13  14
ATOM     14  C   UNL     1      10.631  -1.558  -0.955  0.00  0.00    +0.000 A 
ATOM     15  C   UNL     1      11.561  -1.544   0.079  0.00  0.00    +0.000 A 
ATOM     16  C   UNL     1      12.923  -1.632  -0.210  0.00  0.00    +0.000 A 
ATOM     17  C   UNL     1      13.339  -1.732  -1.539  0.00  0.00    +0.000 A 
ATOM     18  N   UNL     1      12.440  -1.733  -2.565  0.00  0.00    +0.000 NA
ATOM     19  C   UNL     1      11.122  -1.650  -2.249  0.00  0.00    +0.000 A 
BRANCH  17  20
ATOM     20  C   UNL     1      14.824  -1.864  -1.854  0.00  0.00    +0.000 C 
ATOM     21  F   UNL     1      15.610  -1.874  -0.734  0.00  0.00    +0.000 F 
ATOM     22  F   UNL     1      15.130  -3.015  -2.518  0.00  0.00    +0.000 F 
ATOM     23  F   UNL     1      15.304  -0.842  -2.620  0.00  0.00    +0.000 F 
ENDBRANCH  17  20
ENDBRANCH  13  14
ENDBRANCH   1  13
TORSDOF 7
