REMARK  Name = 
REMARK  6 active torsions:
REMARK  status: ('A' for Active; 'I' for Inactive)
REMARK    1  A    between atoms: C_1  and  C_2
REMARK    2  A    between atoms: C_2  and  C_3
REMARK    3  A    between atoms: C_2  and  C_18
REMARK    4  A    between atoms: C_3  and  N_4
REMARK    5  A    between atoms: C_8  and  C_9
REMARK    6  A    between atoms: C_12  and  C_13
REMARK                            x       y       z     vdW  Elec       q    Type
REMARK                         _______ _______ _______ _____ _____    ______ ____
ROOT
ATOM      1  N   UNL     1       2.735   2.527  -0.512  0.00  0.00    +0.000 N 
ATOM      2  C   UNL     1       3.293   3.771  -0.279  0.00  0.00    +0.000 A 
ATOM      3  N   UNL     1       2.589   4.829  -0.671  0.00  0.00    +0.000 NA
ATOM      4  C   UNL     1       3.145   6.043  -0.459  0.00  0.00    +0.000 A 
ATOM      5  C   UNL     1       4.371   6.260   0.149  0.00  0.00    +0.000 A 
ATOM      6  C   UNL     1       5.041   5.111   0.519  0.00  0.00    +0.000 A 
ATOM      7  N   UNL     1       4.486   3.872   0.309  0.00  0.00    +0.000 NA
ATOM      8  H   UNL     1       1.741   2.670  -0.635  0.00  0.00    +0.000 HD
ENDROOT
BRANCH   5   9
ATOM      9  C   UNL     1       4.765   7.678   0.287  0.00  0.00    +0.000 C 
ATOM     10  N   UNL     1       5.497   8.092   1.357  0.00  0.00    +0.000 N 
ATOM     11  O   UNL     1       4.379   8.501  -0.536  0.00  0.00    +0.000 OA
ATOM     12  H   UNL     1       6.027   7.490   1.973  0.00  0.00    +0.000 HD
ATOM     13  H   UNL     1       5.777   9.067   1.347  0.00  0.00    +0.000 HD
ENDBRANCH   5   9
BRANCH   6  14
ATOM     14  C   UNL     1       6.417   5.056   1.136  0.00  0.00    +0.000 C 
ATOM     15  F   UNL     1       7.048   6.250   1.305  0.00  0.00    +0.000 F 
ATOM     16  F   UNL     1       6.390   4.503   2.385  0.00  0.00    +0.000 F 
ATOM     17  F   UNL     1       7.292   4.297   0.416  0.00  0.00    +0.000 F 
ENDBRANCH   6  14
BRANCH   1  18
ATOM     18  C   UNL     1       3.097   1.510   0.452  0.00  0.00    +0.000 C 
BRANCH  18  20
ATOM     19  C   UNL     1       2.855  -0.481  -1.160  0.00  0.00    +0.000 C 
ATOM     20  C   UNL     1       2.382   0.246   0.060  0.00  0.00    +0.000 C 
BRANCH  20  21
ATOM     21  C   UNL     1       1.008   0.054   0.544  0.00  0.00    +0.000 A 
ATOM     22  C   UNL     1       0.720   0.056   1.913  0.00  0.00    +0.000 A 
ATOM     23  C   UNL     1      -0.603  -0.006   2.358  0.00  0.00    +0.000 A 
ATOM     24  C   UNL     1      -1.645  -0.069   1.436  0.00  0.00    +0.000 A 
ATOM     25  C   UNL     1      -1.366  -0.108   0.073  0.00  0.00    +0.000 A 
ATOM     26  C   UNL     1      -0.044  -0.060  -0.370  0.00  0.00    +0.000 A 
ENDBRANCH  20  21
ENDBRANCH  18  20
ENDBRANCH   1  18
TORSDOF 5
