REMARK  Name = 
REMARK  10 active torsions:
REMARK  status: ('A' for Active; 'I' for Inactive)
REMARK    1  A    between atoms: C_1  and  C_2
REMARK    2  A    between atoms: C_4  and  O_5
REMARK    3  A    between atoms: O_5  and  C_6
REMARK    4  A    between atoms: C_8  and  C_9
REMARK    5  A    between atoms: C_9  and  C_10
REMARK    6  A    between atoms: C_9  and  C_11
REMARK    7  A    between atoms: C_11  and  N_12
REMARK    8  A    between atoms: C_16  and  C_17
REMARK    9  A    between atoms: C_23  and  C_24
REMARK   10  A    between atoms: C_24  and  C_27
REMARK                            x       y       z     vdW  Elec       q    Type
REMARK                         _______ _______ _______ _____ _____    ______ ____
ROOT
ATOM      1  C   UNL     1       1.984  -0.907  -2.612  0.00  0.00    +0.000 A 
ATOM      2  C   UNL     1       1.790  -2.281  -2.429  0.00  0.00    +0.000 A 
ATOM      3  C   UNL     1       2.471  -3.214  -3.229  0.00  0.00    +0.000 A 
ATOM      4  C   UNL     1       3.331  -2.719  -4.213  0.00  0.00    +0.000 A 
ATOM      5  C   UNL     1       3.501  -1.353  -4.420  0.00  0.00    +0.000 A 
ATOM      6  C   UNL     1       2.836  -0.445  -3.605  0.00  0.00    +0.000 A 
ENDROOT
BRANCH   5   7
ATOM      7  C   UNL     1       4.366  -0.887  -5.543  0.00  0.00    +0.000 C 
ATOM      8  F   UNL     1       4.334  -1.732  -6.619  0.00  0.00    +0.000 F 
ATOM      9  F   UNL     1       3.949   0.319  -6.042  0.00  0.00    +0.000 F 
BRANCH   7  10
ATOM     10  C   UNL     1       5.819  -0.722  -5.131  0.00  0.00    +0.000 C 
ATOM     11  N   UNL     1       7.025  -0.585  -4.789  0.00  0.00    +0.000 NA
ENDBRANCH   7  10
ENDBRANCH   5   7
BRANCH   3  12
ATOM     12  C   UNL     1       2.260  -4.717  -3.061  0.00  0.00    +0.000 C 
ATOM     13  C   UNL     1       0.809  -5.078  -3.411  0.00  0.00    +0.000 C 
BRANCH  12  14
ATOM     14  C   UNL     1       3.202  -5.604  -3.918  0.00  0.00    +0.000 C 
BRANCH  14  15
ATOM     15  N   UNL     1       4.616  -5.397  -3.561  0.00  0.00    +0.000 N 
ATOM     16  C   UNL     1       5.501  -6.122  -4.372  0.00  0.00    +0.000 A 
ATOM     17  C   UNL     1       6.874  -6.000  -4.159  0.00  0.00    +0.000 A 
ATOM     18  C   UNL     1       7.757  -6.738  -4.949  0.00  0.00    +0.000 A 
ATOM     19  C   UNL     1       7.245  -7.574  -5.940  0.00  0.00    +0.000 A 
ATOM     20  C   UNL     1       5.875  -7.622  -6.102  0.00  0.00    +0.000 A 
ATOM     21  N   UNL     1       5.007  -6.903  -5.353  0.00  0.00    +0.000 NA
ATOM     22  H   UNL     1       4.806  -5.601  -2.584  0.00  0.00    +0.000 HD
BRANCH  19  23
ATOM     23  C   UNL     1       8.092  -8.439  -6.793  0.00  0.00    +0.000 C 
ATOM     24  N   UNL     1       9.378  -8.042  -6.982  0.00  0.00    +0.000 N 
ATOM     25  O   UNL     1       7.644  -9.459  -7.310  0.00  0.00    +0.000 OA
ATOM     26  H   UNL     1       9.717  -7.120  -6.752  0.00  0.00    +0.000 HD
ATOM     27  H   UNL     1       9.931  -8.601  -7.626  0.00  0.00    +0.000 HD
ENDBRANCH  19  23
ENDBRANCH  14  15
ENDBRANCH  12  14
ENDBRANCH   3  12
BRANCH   1  28
ATOM     28  O   UNL     1       1.272  -0.058  -1.804  0.00  0.00    +0.000 OA
BRANCH  28  32
ATOM     29  C   UNL     1       1.963   0.386   1.395  0.00  0.00    +0.000 C 
ATOM     30  C   UNL     1       2.273   1.597   0.530  0.00  0.00    +0.000 C 
ATOM     31  C   UNL     1       3.142   1.297  -0.710  0.00  0.00    +0.000 C 
ATOM     32  C   UNL     1       1.841   1.252  -1.554  0.00  0.00    +0.000 C 
ATOM     33  C   UNL     1       1.150   2.047  -0.431  0.00  0.00    +0.000 C 
ENDBRANCH  28  32
ENDBRANCH   1  28
TORSDOF 8
