REMARK  Name = 
REMARK  7 active torsions:
REMARK  status: ('A' for Active; 'I' for Inactive)
REMARK    1  A    between atoms: N_1  and  C_2
REMARK    2  A    between atoms: C_2  and  C_3
REMARK    3  A    between atoms: C_3  and  C_4
REMARK    4  A    between atoms: C_10  and  C_11
REMARK    5  A    between atoms: C_11  and  C_12
REMARK    6  A    between atoms: C_15  and  C_16
REMARK    7  A    between atoms: C_16  and  O_18
REMARK                            x       y       z     vdW  Elec       q    Type
REMARK                         _______ _______ _______ _____ _____    ______ ____
ROOT
ATOM      1  C   UNL     1       4.529  -1.459  -0.469  0.00  0.00    +0.000 A 
ATOM      2  C   UNL     1       5.266  -0.890  -1.527  0.00  0.00    +0.000 A 
ATOM      3  N   UNL     1       6.619  -0.815  -1.580  0.00  0.00    +0.000 NA
ATOM      4  C   UNL     1       7.227  -1.362  -0.518  0.00  0.00    +0.000 A 
ATOM      5  C   UNL     1       8.642  -1.401  -0.227  0.00  0.00    +0.000 C 
ATOM      6  N   UNL     1       8.885  -2.021   0.986  0.00  0.00    +0.000 NA
ATOM      7  C   UNL     1       7.698  -2.355   1.437  0.00  0.00    +0.000 C 
ATOM      8  C   UNL     1       6.602  -1.958   0.552  0.00  0.00    +0.000 A 
ATOM      9  C   UNL     1       5.228  -2.024   0.611  0.00  0.00    +0.000 A 
ENDROOT
BRANCH   1  10
ATOM     10  C   UNL     1       3.024  -1.456  -0.502  0.00  0.00    +0.000 C 
BRANCH  10  11
ATOM     11  C   UNL     1       2.460  -2.692  -1.209  0.00  0.00    +0.000 C 
BRANCH  11  12
ATOM     12  N   UNL     1       1.001  -2.658  -1.230  0.00  0.00    +0.000 NA
ATOM     13  H   UNL     1       0.649  -3.495  -1.696  0.00  0.00    +0.000 HD
ATOM     14  H   UNL     1       0.677  -1.868  -1.787  0.00  0.00    +0.000 HD
ENDBRANCH  11  12
ENDBRANCH  10  11
ENDBRANCH   1  10
BRANCH   7  15
ATOM     15  C   UNL     1       7.460  -3.027   2.759  0.00  0.00    +0.000 C 
BRANCH  15  16
ATOM     16  C   UNL     1       7.272  -2.008   3.853  0.00  0.00    +0.000 A 
ATOM     17  C   UNL     1       8.311  -1.141   4.194  0.00  0.00    +0.000 A 
ATOM     18  C   UNL     1       8.086  -0.149   5.144  0.00  0.00    +0.000 A 
ATOM     19  C   UNL     1       6.828  -0.044   5.736  0.00  0.00    +0.000 A 
ATOM     20  C   UNL     1       5.864  -0.978   5.386  0.00  0.00    +0.000 A 
ATOM     21  N   UNL     1       6.054  -1.945   4.448  0.00  0.00    +0.000 NA
BRANCH  19  22
ATOM     22  C   UNL     1       6.499   0.999   6.729  0.00  0.00    +0.000 C 
ATOM     23  O   UNL     1       5.668   0.838   7.604  0.00  0.00    +0.000 OA
BRANCH  22  24
ATOM     24  O   UNL     1       7.173   2.158   6.558  0.00  0.00    +0.000 OA
ATOM     25  H   UNL     1       7.702   2.237   5.743  0.00  0.00    +0.000 HD
ENDBRANCH  22  24
ENDBRANCH  19  22
ENDBRANCH  15  16
ENDBRANCH   7  15
TORSDOF 7
