REMARK  Name = 
REMARK  6 active torsions:
REMARK  status: ('A' for Active; 'I' for Inactive)
REMARK    1  A    between atoms: C_1  and  C_2
REMARK    2  A    between atoms: C_2  and  C_3
REMARK    3  A    between atoms: C_6  and  C_7
REMARK    4  A    between atoms: C_7  and  N_8
REMARK    5  A    between atoms: N_8  and  C_9
REMARK    6  A    between atoms: C_12  and  C_13
REMARK                            x       y       z     vdW  Elec       q    Type
REMARK                         _______ _______ _______ _____ _____    ______ ____
ROOT
ATOM      1  N   UNL     1       5.243   0.057  -3.981  0.00  0.00    +0.000 N 
ATOM      2  H   UNL     1       5.288   1.026  -3.661  0.00  0.00    +0.000 HD
ENDROOT
BRANCH   1   3
ATOM      3  C   UNL     1       6.475  -0.291  -4.556  0.00  0.00    +0.000 A 
ATOM      4  C   UNL     1       6.759   0.157  -5.846  0.00  0.00    +0.000 A 
ATOM      5  C   UNL     1       7.983  -0.142  -6.441  0.00  0.00    +0.000 A 
ATOM      6  C   UNL     1       8.916  -0.853  -5.698  0.00  0.00    +0.000 A 
ATOM      7  N   UNL     1       8.705  -1.280  -4.423  0.00  0.00    +0.000 NA
ATOM      8  C   UNL     1       7.498  -0.980  -3.893  0.00  0.00    +0.000 A 
BRANCH   6   9
ATOM      9  C   UNL     1      10.257  -1.162  -6.284  0.00  0.00    +0.000 C 
ATOM     10  N   UNL     1      11.111  -1.853  -5.465  0.00  0.00    +0.000 N 
ATOM     11  O   UNL     1      10.584  -0.816  -7.410  0.00  0.00    +0.000 OA
ATOM     12  H   UNL     1      10.809  -2.103  -4.529  0.00  0.00    +0.000 HD
ATOM     13  H   UNL     1      12.046  -2.057  -5.781  0.00  0.00    +0.000 HD
ENDBRANCH   6   9
ENDBRANCH   1   3
BRANCH   1  14
ATOM     14  C   UNL     1       4.755  -0.828  -2.922  0.00  0.00    +0.000 C 
BRANCH  14  20
ATOM     15  C   UNL     1       0.991  -0.023   0.123  0.00  0.00    +0.000 C 
ATOM     16  C   UNL     1       2.530  -0.045   0.030  0.00  0.00    +0.000 C 
ATOM     17  C   UNL     1       3.096   0.306   1.418  0.00  0.00    +0.000 C 
ATOM     18  C   UNL     1       3.020   1.005  -0.993  0.00  0.00    +0.000 C 
ATOM     19  C   UNL     1       2.695   0.631  -2.440  0.00  0.00    +0.000 C 
ATOM     20  C   UNL     1       3.220  -0.759  -2.823  0.00  0.00    +0.000 C 
ATOM     21  C   UNL     1       2.705  -1.812  -1.827  0.00  0.00    +0.000 C 
ATOM     22  C   UNL     1       3.021  -1.455  -0.372  0.00  0.00    +0.000 C 
ENDBRANCH  14  20
ENDBRANCH   1  14
TORSDOF 4
