REMARK  Name = 
REMARK  5 active torsions:
REMARK  status: ('A' for Active; 'I' for Inactive)
REMARK    1  A    between atoms: C_2  and  C_4
REMARK    2  A    between atoms: C_7  and  S_8
REMARK    3  A    between atoms: S_8  and  C_9
REMARK    4  A    between atoms: C_9  and  C_10
REMARK    5  A    between atoms: C_14  and  C_15
REMARK                            x       y       z     vdW  Elec       q    Type
REMARK                         _______ _______ _______ _____ _____    ______ ____
ROOT
ATOM      1  C   UNL     1       5.374  -4.977   3.561  0.00  0.00    +0.000 C 
ENDROOT
BRANCH   1   2
ATOM      2  C   UNL     1       6.214  -5.923   4.377  0.00  0.00    +0.000 A 
ATOM      3  C   UNL     1       6.000  -7.294   4.322  0.00  0.00    +0.000 A 
ATOM      4  N   UNL     1       6.719  -8.197   5.020  0.00  0.00    +0.000 NA
ATOM      5  C   UNL     1       7.694  -7.709   5.826  0.00  0.00    +0.000 A 
ATOM      6  C   UNL     1       8.021  -6.358   5.974  0.00  0.00    +0.000 A 
ATOM      7  C   UNL     1       7.243  -5.466   5.214  0.00  0.00    +0.000 A 
BRANCH   6   8
ATOM      8  C   UNL     1       9.103  -5.900   6.877  0.00  0.00    +0.000 A 
ATOM      9  C   UNL     1      10.249  -6.685   7.123  0.00  0.00    +0.000 A 
ATOM     10  C   UNL     1      11.264  -6.257   7.989  0.00  0.00    +0.000 A 
ATOM     11  C   UNL     1      11.162  -5.024   8.622  0.00  0.00    +0.000 A 
ATOM     12  C   UNL     1      10.046  -4.235   8.387  0.00  0.00    +0.000 A 
ATOM     13  F   UNL     1       9.942  -3.044   8.992  0.00  0.00    +0.000 F 
ATOM     14  C   UNL     1       9.028  -4.660   7.536  0.00  0.00    +0.000 A 
ENDBRANCH   6   8
ENDBRANCH   1   2
BRANCH   1  15
ATOM     15  S   UNL     1       3.906  -4.384   4.472  0.00  0.00    +0.000 S 
BRANCH  15  19
ATOM     16  C   UNL     1       1.937  -1.929   1.195  0.00  0.00    +0.000 A 
ATOM     17  C   UNL     1       1.324  -1.990   2.446  0.00  0.00    +0.000 A 
ATOM     18  C   UNL     1       1.931  -2.741   3.463  0.00  0.00    +0.000 A 
ATOM     19  C   UNL     1       3.130  -3.400   3.200  0.00  0.00    +0.000 A 
ATOM     20  N   UNL     1       3.738  -3.339   1.994  0.00  0.00    +0.000 NA
ATOM     21  C   UNL     1       3.127  -2.619   1.021  0.00  0.00    +0.000 A 
BRANCH  16  23
ATOM     22  N   UNL     1       0.555  -0.141   0.272  0.00  0.00    +0.000 N 
ATOM     23  C   UNL     1       1.377  -1.206   0.031  0.00  0.00    +0.000 C 
ATOM     24  O   UNL     1       1.664  -1.531  -1.114  0.00  0.00    +0.000 OA
ATOM     25  H   UNL     1       0.279   0.399  -0.541  0.00  0.00    +0.000 HD
ATOM     26  H   UNL     1       0.508   0.318   1.170  0.00  0.00    +0.000 HD
ENDBRANCH  16  23
ENDBRANCH  15  19
ENDBRANCH   1  15
TORSDOF 5
