REMARK  Name = 
REMARK  5 active torsions:
REMARK  status: ('A' for Active; 'I' for Inactive)
REMARK    1  A    between atoms: N_1  and  C_2
REMARK    2  A    between atoms: C_2  and  C_3
REMARK    3  A    between atoms: N_6  and  C_7
REMARK    4  A    between atoms: C_7  and  C_8
REMARK    5  A    between atoms: C_14  and  C_15
REMARK                            x       y       z     vdW  Elec       q    Type
REMARK                         _______ _______ _______ _____ _____    ______ ____
ROOT
ATOM      1  C   UNL     1       1.977   5.502   2.486  0.00  0.00    +0.000 A 
ATOM      2  C   UNL     1       2.855   6.508   2.113  0.00  0.00    +0.000 A 
ATOM      3  N   UNL     1       2.125   7.606   1.736  0.00  0.00    +0.000 N 
ATOM      4  C   UNL     1       0.791   7.340   1.866  0.00  0.00    +0.000 A 
ATOM      5  N   UNL     1      -0.193   8.200   1.538  0.00  0.00    +0.000 NA
ATOM      6  C   UNL     1      -1.431   7.680   1.739  0.00  0.00    +0.000 A 
ATOM      7  C   UNL     1      -1.712   6.414   2.247  0.00  0.00    +0.000 A 
ATOM      8  C   UNL     1      -0.647   5.580   2.606  0.00  0.00    +0.000 A 
ATOM      9  C   UNL     1       0.658   6.051   2.372  0.00  0.00    +0.000 A 
ATOM     10  H   UNL     1       2.492   8.481   1.391  0.00  0.00    +0.000 HD
ENDROOT
BRANCH   7  11
ATOM     11  C   UNL     1      -3.126   5.999   2.374  0.00  0.00    +0.000 C 
ATOM     12  N   UNL     1      -3.389   4.657   2.430  0.00  0.00    +0.000 N 
ATOM     13  O   UNL     1      -4.036   6.816   2.387  0.00  0.00    +0.000 OA
ATOM     14  H   UNL     1      -2.709   3.952   2.180  0.00  0.00    +0.000 HD
ATOM     15  H   UNL     1      -4.365   4.391   2.393  0.00  0.00    +0.000 HD
ENDBRANCH   7  11
BRANCH   1  16
ATOM     16  C   UNL     1       2.324   4.099   2.888  0.00  0.00    +0.000 C 
BRANCH  16  20
ATOM     17  C   UNL     1       3.360   1.123  -0.132  0.00  0.00    +0.000 C 
ATOM     18  C   UNL     1       4.171   1.295   1.163  0.00  0.00    +0.000 C 
ATOM     19  C   UNL     1       3.390   2.040   2.248  0.00  0.00    +0.000 C 
ATOM     20  N   UNL     1       2.973   3.370   1.779  0.00  0.00    +0.000 NA
ATOM     21  C   UNL     1       2.106   3.248   0.593  0.00  0.00    +0.000 C 
ATOM     22  C   UNL     1       2.793   2.490  -0.548  0.00  0.00    +0.000 C 
BRANCH  17  23
ATOM     23  C   UNL     1       2.295   0.023   0.038  0.00  0.00    +0.000 C 
BRANCH  23  24
ATOM     24  N   UNL     1       1.538  -0.221  -1.185  0.00  0.00    +0.000 NA
ATOM     25  H   UNL     1       0.853  -0.957  -1.017  0.00  0.00    +0.000 HD
ATOM     26  H   UNL     1       2.163  -0.580  -1.907  0.00  0.00    +0.000 HD
ENDBRANCH  23  24
ENDBRANCH  17  23
ENDBRANCH  16  20
ENDBRANCH   1  16
TORSDOF 5
