REMARK  Name = 
REMARK  4 active torsions:
REMARK  status: ('A' for Active; 'I' for Inactive)
REMARK    1  A    between atoms: C_2  and  C_4
REMARK    2  A    between atoms: N_8  and  C_9
REMARK    3  A    between atoms: C_9  and  C_10
REMARK    4  A    between atoms: C_14  and  C_15
REMARK                            x       y       z     vdW  Elec       q    Type
REMARK                         _______ _______ _______ _____ _____    ______ ____
ROOT
ATOM      1  C   UNL     1       5.228  -5.231  -2.743  0.00  0.00    +0.000 C 
ATOM      2  C   UNL     1       5.339  -4.888  -4.225  0.00  0.00    +0.000 C 
ATOM      3  C   UNL     1       4.036  -5.359  -3.671  0.00  0.00    +0.000 C 
ENDROOT
BRANCH   1   8
ATOM      4  C   UNL     1       3.318  -3.033   1.572  0.00  0.00    +0.000 A 
ATOM      5  C   UNL     1       2.618  -3.597   0.511  0.00  0.00    +0.000 A 
ATOM      6  C   UNL     1       3.316  -3.998  -0.628  0.00  0.00    +0.000 A 
ATOM      7  C   UNL     1       4.691  -3.816  -0.697  0.00  0.00    +0.000 A 
ATOM      8  N   UNL     1       5.444  -4.080  -1.845  0.00  0.00    +0.000 N 
ATOM      9  N   UNL     1       5.381  -3.269   0.327  0.00  0.00    +0.000 NA
ATOM     10  C   UNL     1       4.688  -2.885   1.431  0.00  0.00    +0.000 A 
ATOM     11  H   UNL     1       6.412  -3.928  -1.563  0.00  0.00    +0.000 HD
BRANCH   4  13
ATOM     12  N   UNL     1       1.468  -3.125   3.141  0.00  0.00    +0.000 N 
ATOM     13  C   UNL     1       2.665  -2.551   2.804  0.00  0.00    +0.000 C 
ATOM     14  O   UNL     1       3.178  -1.698   3.509  0.00  0.00    +0.000 OA
ATOM     15  H   UNL     1       1.083  -2.862   4.041  0.00  0.00    +0.000 HD
ATOM     16  H   UNL     1       1.146  -3.991   2.736  0.00  0.00    +0.000 HD
ENDBRANCH   4  13
ENDBRANCH   1   8
BRANCH   1  17
ATOM     17  C   UNL     1       5.876  -6.510  -2.223  0.00  0.00    +0.000 A 
ATOM     18  C   UNL     1       7.180  -6.880  -2.582  0.00  0.00    +0.000 A 
ATOM     19  C   UNL     1       7.808  -7.975  -1.993  0.00  0.00    +0.000 A 
ATOM     20  C   UNL     1       7.146  -8.716  -1.013  0.00  0.00    +0.000 A 
ATOM     21  C   UNL     1       5.841  -8.388  -0.611  0.00  0.00    +0.000 A 
ATOM     22  C   UNL     1       5.221  -7.302  -1.258  0.00  0.00    +0.000 A 
BRANCH  21  23
ATOM     23  C   UNL     1       5.175  -9.092   0.508  0.00  0.00    +0.000 A 
ATOM     24  C   UNL     1       5.899  -9.491   1.641  0.00  0.00    +0.000 A 
ATOM     25  C   UNL     1       5.239 -10.101   2.698  0.00  0.00    +0.000 A 
ATOM     26  N   UNL     1       3.913 -10.338   2.715  0.00  0.00    +0.000 NA
ATOM     27  C   UNL     1       3.222  -9.952   1.624  0.00  0.00    +0.000 A 
ATOM     28  C   UNL     1       3.797  -9.343   0.516  0.00  0.00    +0.000 A 
ENDBRANCH  21  23
ENDBRANCH   1  17
TORSDOF 4
