REMARK  Name = 
REMARK  7 active torsions:
REMARK  status: ('A' for Active; 'I' for Inactive)
REMARK    1  A    between atoms: C_1  and  C_2
REMARK    2  A    between atoms: C_2  and  N_3
REMARK    3  A    between atoms: C_2  and  C_21
REMARK    4  A    between atoms: C_4  and  C_6
REMARK    5  A    between atoms: C_9  and  C_10
REMARK    6  A    between atoms: C_10  and  N_11
REMARK    7  A    between atoms: C_12  and  C_14
REMARK                            x       y       z     vdW  Elec       q    Type
REMARK                         _______ _______ _______ _____ _____    ______ ____
ROOT
ATOM      1  N   UNL     1       2.802   0.930   1.069  0.00  0.00    +0.000 N 
ATOM      2  C   UNL     1       2.547   2.285   0.994  0.00  0.00    +0.000 C 
ATOM      3  O   UNL     1       1.851   2.804   0.129  0.00  0.00    +0.000 OA
ATOM      4  H   UNL     1       3.550   0.606   1.665  0.00  0.00    +0.000 HD
ENDROOT
BRANCH   2   5
ATOM      5  C   UNL     1       3.207   3.139   2.009  0.00  0.00    +0.000 A 
ATOM      6  C   UNL     1       3.531   2.689   3.288  0.00  0.00    +0.000 A 
ATOM      7  C   UNL     1       4.193   3.549   4.167  0.00  0.00    +0.000 A 
ATOM      8  C   UNL     1       4.507   4.845   3.753  0.00  0.00    +0.000 A 
ATOM      9  N   UNL     1       4.166   5.309   2.522  0.00  0.00    +0.000 NA
ATOM     10  C   UNL     1       3.514   4.455   1.689  0.00  0.00    +0.000 A 
BRANCH   8  11
ATOM     11  C   UNL     1       5.260   5.785   4.670  0.00  0.00    +0.000 C 
BRANCH  11  12
ATOM     12  N   UNL     1       6.696   5.705   4.513  0.00  0.00    +0.000 N 
ATOM     13  C   UNL     1       7.474   4.822   5.220  0.00  0.00    +0.000 C 
ATOM     14  O   UNL     1       7.022   4.043   6.057  0.00  0.00    +0.000 OA
ATOM     15  H   UNL     1       7.157   6.266   3.804  0.00  0.00    +0.000 HD
BRANCH  13  16
ATOM     16  C   UNL     1       8.900   4.895   4.888  0.00  0.00    +0.000 A 
ATOM     17  C   UNL     1       9.875   4.128   5.504  0.00  0.00    +0.000 A 
ATOM     18  S   UNL     1      11.419   4.485   4.855  0.00  0.00    +0.000 S 
ATOM     19  C   UNL     1      10.693   5.631   3.807  0.00  0.00    +0.000 A 
ATOM     20  N   UNL     1       9.388   5.769   3.907  0.00  0.00    +0.000 NA
ENDBRANCH  13  16
ENDBRANCH  11  12
ENDBRANCH   8  11
ENDBRANCH   2   5
BRANCH   1  22
ATOM     21  C   UNL     1       0.692  -0.055   0.178  0.00  0.00    +0.000 C 
ATOM     22  C   UNL     1       2.223  -0.014   0.131  0.00  0.00    +0.000 C 
BRANCH  22  23
ATOM     23  C   UNL     1       2.837  -1.390   0.344  0.00  0.00    +0.000 A 
ATOM     24  C   UNL     1       3.567  -2.043  -0.639  0.00  0.00    +0.000 A 
ATOM     25  S   UNL     1       4.036  -3.626  -0.207  0.00  0.00    +0.000 S 
ATOM     26  C   UNL     1       3.305  -3.489   1.323  0.00  0.00    +0.000 A 
ATOM     27  N   UNL     1       3.323  -4.529   2.202  0.00  0.00    +0.000 NA
ATOM     28  C   UNL     1       2.728  -4.286   3.323  0.00  0.00    +0.000 A 
ATOM     29  N   UNL     1       2.131  -3.096   3.649  0.00  0.00    +0.000 N 
ATOM     30  C   UNL     1       2.146  -1.996   2.818  0.00  0.00    +0.000 A 
ATOM     31  O   UNL     1       1.737  -0.904   3.204  0.00  0.00    +0.000 OA
ATOM     32  C   UNL     1       2.741  -2.240   1.516  0.00  0.00    +0.000 A 
ATOM     33  H   UNL     1       1.728  -2.956   4.564  0.00  0.00    +0.000 HD
ENDBRANCH  22  23
ENDBRANCH   1  22
TORSDOF 6
