REMARK  Name = 
REMARK  5 active torsions:
REMARK  status: ('A' for Active; 'I' for Inactive)
REMARK    1  A    between atoms: C_2  and  C_18
REMARK    2  A    between atoms: N_3  and  C_4
REMARK    3  A    between atoms: C_4  and  C_5
REMARK    4  A    between atoms: C_8  and  C_9
REMARK    5  A    between atoms: C_9  and  N_10
REMARK                            x       y       z     vdW  Elec       q    Type
REMARK                         _______ _______ _______ _____ _____    ______ ____
ROOT
ATOM      1  O   UNL     1       1.596  -1.529   3.184  0.00  0.00    +0.000 OA
ATOM      2  C   UNL     1       0.822  -0.577   3.238  0.00  0.00    +0.000 C 
ATOM      3  N   UNL     1       1.121   0.643   2.691  0.00  0.00    +0.000 N 
ATOM      4  H   UNL     1       0.545   1.444   2.929  0.00  0.00    +0.000 HD
ENDROOT
BRANCH   2   5
ATOM      5  C   UNL     1      -0.502  -0.699   3.855  0.00  0.00    +0.000 A 
ATOM      6  C   UNL     1      -1.115  -1.945   3.929  0.00  0.00    +0.000 A 
ATOM      7  S   UNL     1      -2.635  -1.909   4.702  0.00  0.00    +0.000 S 
ATOM      8  C   UNL     1      -2.507  -0.238   5.000  0.00  0.00    +0.000 A 
ATOM      9  N   UNL     1      -3.476   0.426   5.686  0.00  0.00    +0.000 NA
ATOM     10  C   UNL     1      -3.229   1.681   5.872  0.00  0.00    +0.000 A 
ATOM     11  N   UNL     1      -2.114   2.338   5.417  0.00  0.00    +0.000 N 
ATOM     12  C   UNL     1      -1.156   1.723   4.643  0.00  0.00    +0.000 A 
ATOM     13  O   UNL     1      -0.256   2.366   4.113  0.00  0.00    +0.000 OA
ATOM     14  C   UNL     1      -1.346   0.295   4.470  0.00  0.00    +0.000 A 
ATOM     15  H   UNL     1      -2.004   3.329   5.559  0.00  0.00    +0.000 HD
ENDBRANCH   2   5
BRANCH   3  16
ATOM     16  C   UNL     1       2.417   0.935   2.132  0.00  0.00    +0.000 C 
BRANCH  16  17
ATOM     17  C   UNL     1       3.312   1.570   3.154  0.00  0.00    +0.000 A 
ATOM     18  C   UNL     1       3.343   2.952   3.344  0.00  0.00    +0.000 A 
ATOM     19  C   UNL     1       4.163   3.497   4.328  0.00  0.00    +0.000 A 
ATOM     20  C   UNL     1       4.928   2.640   5.115  0.00  0.00    +0.000 A 
ATOM     21  N   UNL     1       4.910   1.293   4.954  0.00  0.00    +0.000 NA
ATOM     22  C   UNL     1       4.104   0.791   3.990  0.00  0.00    +0.000 A 
BRANCH  20  23
ATOM     23  C   UNL     1       5.836   3.200   6.195  0.00  0.00    +0.000 C 
BRANCH  23  24
ATOM     24  N   UNL     1       5.149   3.997   7.248  0.00  0.00    +0.000 NA
ATOM     25  C   UNL     1       4.243   3.128   8.023  0.00  0.00    +0.000 C 
ATOM     26  C   UNL     1       3.641   3.825   9.247  0.00  0.00    +0.000 C 
ATOM     27  C   UNL     1       4.725   4.420  10.132  0.00  0.00    +0.000 C 
ATOM     28  C   UNL     1       5.590   5.360   9.306  0.00  0.00    +0.000 C 
ATOM     29  C   UNL     1       6.172   4.638   8.091  0.00  0.00    +0.000 C 
ENDBRANCH  23  24
ENDBRANCH  20  23
ENDBRANCH  16  17
ENDBRANCH   3  16
TORSDOF 5
