REMARK  Name = 
REMARK  11 active torsions:
REMARK  status: ('A' for Active; 'I' for Inactive)
REMARK    1  A    between atoms: C_2  and  C_24
REMARK    2  A    between atoms: N_3  and  C_4
REMARK    3  A    between atoms: C_4  and  C_5
REMARK    4  A    between atoms: C_8  and  C_9
REMARK    5  A    between atoms: C_9  and  N_10
REMARK    6  A    between atoms: N_10  and  C_11
REMARK    7  A    between atoms: C_11  and  C_12
REMARK    8  A    between atoms: C_15  and  C_16
REMARK    9  A    between atoms: C_31  and  O_32
REMARK   10  A    between atoms: O_32  and  C_33
REMARK   11  A    between atoms: C_33  and  C_34
REMARK                            x       y       z     vdW  Elec       q    Type
REMARK                         _______ _______ _______ _____ _____    ______ ____
ROOT
ATOM      1  C   UNL     1       2.281  -2.338   0.371  0.00  0.00    +0.000 C 
ENDROOT
BRANCH   1   2
ATOM      2  C   UNL     1       3.256  -3.491   0.467  0.00  0.00    +0.000 A 
ATOM      3  C   UNL     1       4.613  -3.253   0.667  0.00  0.00    +0.000 A 
ATOM      4  C   UNL     1       5.479  -4.339   0.801  0.00  0.00    +0.000 A 
ATOM      5  C   UNL     1       4.983  -5.643   0.730  0.00  0.00    +0.000 A 
ATOM      6  C   UNL     1       3.619  -5.783   0.499  0.00  0.00    +0.000 A 
ATOM      7  N   UNL     1       2.752  -4.748   0.360  0.00  0.00    +0.000 NA
BRANCH   5   8
ATOM      8  C   UNL     1       5.886  -6.840   0.882  0.00  0.00    +0.000 C 
BRANCH   8   9
ATOM      9  N   UNL     1       6.559  -6.829   2.181  0.00  0.00    +0.000 NA
ATOM     10  H   UNL     1       5.856  -6.830   2.920  0.00  0.00    +0.000 HD
BRANCH   9  11
ATOM     11  C   UNL     1       7.440  -7.983   2.353  0.00  0.00    +0.000 C 
BRANCH  11  12
ATOM     12  C   UNL     1       8.093  -7.956   3.711  0.00  0.00    +0.000 A 
ATOM     13  C   UNL     1       8.908  -6.893   4.109  0.00  0.00    +0.000 A 
ATOM     14  C   UNL     1       9.473  -6.886   5.384  0.00  0.00    +0.000 A 
ATOM     15  C   UNL     1       9.220  -7.951   6.248  0.00  0.00    +0.000 A 
ATOM     16  N   UNL     1       8.443  -9.008   5.867  0.00  0.00    +0.000 NA
ATOM     17  C   UNL     1       7.906  -8.985   4.625  0.00  0.00    +0.000 A 
BRANCH  15  18
ATOM     18  C   UNL     1       9.806  -7.941   7.655  0.00  0.00    +0.000 C 
ATOM     19  F   UNL     1      10.549  -6.824   7.922  0.00  0.00    +0.000 F 
ATOM     20  F   UNL     1       8.855  -7.980   8.633  0.00  0.00    +0.000 F 
ATOM     21  F   UNL     1      10.640  -8.993   7.897  0.00  0.00    +0.000 F 
ENDBRANCH  15  18
ENDBRANCH  11  12
ENDBRANCH   9  11
ENDBRANCH   8   9
ENDBRANCH   5   8
ENDBRANCH   1   2
BRANCH   1  24
ATOM     22  O   UNL     1       3.697  -0.238  -0.833  0.00  0.00    +0.000 OA
ATOM     23  C   UNL     1       2.860  -0.839  -1.497  0.00  0.00    +0.000 C 
ATOM     24  N   UNL     1       2.096  -1.860  -0.983  0.00  0.00    +0.000 N 
ATOM     25  H   UNL     1       1.566  -2.444  -1.613  0.00  0.00    +0.000 HD
BRANCH  23  26
ATOM     26  C   UNL     1       2.592  -0.531  -2.899  0.00  0.00    +0.000 A 
ATOM     27  C   UNL     1       1.362  -0.620  -3.542  0.00  0.00    +0.000 A 
ATOM     28  N   UNL     1       1.522  -0.209  -4.842  0.00  0.00    +0.000 N 
ATOM     29  C   UNL     1       2.828   0.124  -5.062  0.00  0.00    +0.000 A 
ATOM     30  N   UNL     1       3.322   0.540  -6.238  0.00  0.00    +0.000 NA
ATOM     31  C   UNL     1       4.641   0.791  -6.158  0.00  0.00    +0.000 A 
ATOM     32  N   UNL     1       5.440   0.695  -5.078  0.00  0.00    +0.000 NA
ATOM     33  C   UNL     1       4.879   0.280  -3.921  0.00  0.00    +0.000 A 
ATOM     34  C   UNL     1       3.521  -0.042  -3.874  0.00  0.00    +0.000 A 
ATOM     35  H   UNL     1       0.801  -0.147  -5.547  0.00  0.00    +0.000 HD
BRANCH  33  36
ATOM     36  O   UNL     1       5.667   0.129  -2.805  0.00  0.00    +0.000 OA
BRANCH  36  37
ATOM     37  C   UNL     1       6.847   0.935  -2.834  0.00  0.00    +0.000 C 
BRANCH  37  38
ATOM     38  C   UNL     1       8.038   0.237  -3.476  0.00  0.00    +0.000 C 
ATOM     39  F   UNL     1       7.753  -0.998  -3.944  0.00  0.00    +0.000 F 
ATOM     40  F   UNL     1       8.545   0.961  -4.501  0.00  0.00    +0.000 F 
ATOM     41  F   UNL     1       9.039   0.091  -2.569  0.00  0.00    +0.000 F 
ENDBRANCH  37  38
ENDBRANCH  36  37
ENDBRANCH  33  36
ENDBRANCH  23  26
ENDBRANCH   1  24
TORSDOF 11
