REMARK  Name = 
REMARK  7 active torsions:
REMARK  status: ('A' for Active; 'I' for Inactive)
REMARK    1  A    between atoms: N_1  and  C_2
REMARK    2  A    between atoms: C_2  and  C_3
REMARK    3  A    between atoms: C_7  and  C_8
REMARK    4  A    between atoms: C_8  and  C_20
REMARK    5  A    between atoms: C_9  and  C_10
REMARK    6  A    between atoms: C_13  and  C_14
REMARK    7  A    between atoms: C_18  and  N_19
REMARK                            x       y       z     vdW  Elec       q    Type
REMARK                         _______ _______ _______ _____ _____    ______ ____
ROOT
ATOM      1  C   UNL     1       4.167   2.992   3.440  0.00  0.00    +0.000 C 
ATOM      2  C   UNL     1       4.747   1.962   4.090  0.00  0.00    +0.000 C 
ENDROOT
BRANCH   1   7
ATOM      3  C   UNL     1       1.484   2.255   0.880  0.00  0.00    +0.000 A 
ATOM      4  C   UNL     1       2.185   2.503  -0.309  0.00  0.00    +0.000 A 
ATOM      5  C   UNL     1       3.521   2.905  -0.272  0.00  0.00    +0.000 A 
ATOM      6  C   UNL     1       4.172   3.062   0.952  0.00  0.00    +0.000 A 
ATOM      7  C   UNL     1       3.484   2.837   2.149  0.00  0.00    +0.000 A 
ATOM      8  C   UNL     1       2.138   2.449   2.107  0.00  0.00    +0.000 A 
BRANCH   3   9
ATOM      9  C   UNL     1       0.054   1.782   0.846  0.00  0.00    +0.000 C 
BRANCH   9  10
ATOM     10  N   UNL     1      -0.883   2.894   0.797  0.00  0.00    +0.000 NA
ATOM     11  H   UNL     1      -1.829   2.526   0.708  0.00  0.00    +0.000 HD
ATOM     12  H   UNL     1      -0.708   3.440  -0.045  0.00  0.00    +0.000 HD
ENDBRANCH   9  10
ENDBRANCH   3   9
ENDBRANCH   1   7
BRANCH   2  13
ATOM     13  C   UNL     1       4.873   0.563   3.674  0.00  0.00    +0.000 A 
ATOM     14  N   UNL     1       6.018   0.294   2.992  0.00  0.00    +0.000 NA
ATOM     15  C   UNL     1       6.277  -1.019   2.785  0.00  0.00    +0.000 A 
ATOM     16  C   UNL     1       5.440  -2.020   3.254  0.00  0.00    +0.000 A 
ATOM     17  N   UNL     1       4.274  -1.764   3.922  0.00  0.00    +0.000 NA
ATOM     18  C   UNL     1       4.006  -0.455   4.131  0.00  0.00    +0.000 A 
BRANCH  16  19
ATOM     19  C   UNL     1       5.849  -3.445   3.109  0.00  0.00    +0.000 C 
ATOM     20  N   UNL     1       4.996  -4.369   3.649  0.00  0.00    +0.000 N 
ATOM     21  O   UNL     1       6.897  -3.774   2.568  0.00  0.00    +0.000 OA
ATOM     22  H   UNL     1       4.150  -4.069   4.119  0.00  0.00    +0.000 HD
ATOM     23  H   UNL     1       5.245  -5.348   3.625  0.00  0.00    +0.000 HD
ENDBRANCH  16  19
BRANCH  18  24
ATOM     24  N   UNL     1       2.824  -0.193   4.827  0.00  0.00    +0.000 N 
ATOM     25  H   UNL     1       2.416  -1.078   5.113  0.00  0.00    +0.000 HD
ATOM     26  H   UNL     1       2.960   0.441   5.603  0.00  0.00    +0.000 HD
ENDBRANCH  18  24
ENDBRANCH   2  13
BRANCH   1  27
ATOM     27  C   UNL     1       4.226   4.376   4.019  0.00  0.00    +0.000 C 
ATOM     28  F   UNL     1       3.652   5.335   3.252  0.00  0.00    +0.000 F 
ATOM     29  F   UNL     1       3.610   4.422   5.232  0.00  0.00    +0.000 F 
ATOM     30  F   UNL     1       5.512   4.768   4.233  0.00  0.00    +0.000 F 
ENDBRANCH   1  27
TORSDOF 7
