REMARK  Name = 
REMARK  6 active torsions:
REMARK  status: ('A' for Active; 'I' for Inactive)
REMARK    1  A    between atoms: C_2  and  C_4
REMARK    2  A    between atoms: C_10  and  C_12
REMARK    3  A    between atoms: C_12  and  C_15
REMARK    4  A    between atoms: C_20  and  O_21
REMARK    5  A    between atoms: O_21  and  C_22
REMARK    6  A    between atoms: C_24  and  O_25
REMARK                            x       y       z     vdW  Elec       q    Type
REMARK                         _______ _______ _______ _____ _____    ______ ____
ROOT
ATOM      1  C   UNL     1       0.000   0.000   0.000  0.00  0.00    +0.000 C 
ATOM      2  F   UNL     1       0.000   0.000   0.000  0.00  0.00    +0.000 F 
ATOM      3  F   UNL     1       0.000   0.000   0.000  0.00  0.00    +0.000 F 
ENDROOT
BRANCH   1  10
ATOM      4  C   UNL     1       0.000   0.000   0.000  0.00  0.00    +0.000 C 
ATOM      5  C   UNL     1       0.000   0.000   0.000  0.00  0.00    +0.000 C 
ATOM      6  C   UNL     1       0.000   0.000   0.000  0.00  0.00    +0.000 C 
ATOM      7  C   UNL     1       0.000   0.000   0.000  0.00  0.00    +0.000 C 
ATOM      8  N   UNL     1       0.000   0.000   0.000  0.00  0.00    +0.000 N 
ATOM      9  C   UNL     1       0.000   0.000   0.000  0.00  0.00    +0.000 C 
ATOM     10  C   UNL     1       0.000   0.000   0.000  0.00  0.00    +0.000 C 
ATOM     11  F   UNL     1       0.000   0.000   0.000  0.00  0.00    +0.000 F 
ATOM     12  N   UNL     1       0.000   0.000   0.000  0.00  0.00    +0.000 NA
ATOM     13  C   UNL     1       0.000   0.000   0.000  0.00  0.00    +0.000 C 
ATOM     14  H   UNL     1       0.000   0.000   0.000  0.00  0.00    +0.000 HD
BRANCH   4  16
ATOM     15  N   UNL     1       0.000   0.000   0.000  0.00  0.00    +0.000 N 
ATOM     16  C   UNL     1       0.000   0.000   0.000  0.00  0.00    +0.000 C 
ATOM     17  O   UNL     1       0.000   0.000   0.000  0.00  0.00    +0.000 OA
ATOM     18  H   UNL     1       0.000   0.000   0.000  0.00  0.00    +0.000 HD
ATOM     19  H   UNL     1       0.000   0.000   0.000  0.00  0.00    +0.000 HD
ENDBRANCH   4  16
ENDBRANCH   1  10
BRANCH   1  20
ATOM     20  C   UNL     1       0.000   0.000   0.000  0.00  0.00    +0.000 A 
ATOM     21  C   UNL     1       0.000   0.000   0.000  0.00  0.00    +0.000 A 
ATOM     22  C   UNL     1       0.000   0.000   0.000  0.00  0.00    +0.000 A 
ATOM     23  F   UNL     1       0.000   0.000   0.000  0.00  0.00    +0.000 F 
ATOM     24  C   UNL     1       0.000   0.000   0.000  0.00  0.00    +0.000 A 
ATOM     25  C   UNL     1       0.000   0.000   0.000  0.00  0.00    +0.000 A 
ATOM     26  C   UNL     1       0.000   0.000   0.000  0.00  0.00    +0.000 A 
BRANCH  25  27
ATOM     27  O   UNL     1       0.000   0.000   0.000  0.00  0.00    +0.000 OA
BRANCH  27  28
ATOM     28  C   UNL     1       0.000   0.000   0.000  0.00  0.00    +0.000 C 
ATOM     29  C   UNL     1       0.000   0.000   0.000  0.00  0.00    +0.000 C 
ATOM     30  C   UNL     1       0.000   0.000   0.000  0.00  0.00    +0.000 C 
ATOM     31  C   UNL     1       0.000   0.000   0.000  0.00  0.00    +0.000 C 
BRANCH  30  32
ATOM     32  O   UNL     1       0.000   0.000   0.000  0.00  0.00    +0.000 OA
ATOM     33  H   UNL     1       0.000   0.000   0.000  0.00  0.00    +0.000 HD
ENDBRANCH  30  32
ENDBRANCH  27  28
ENDBRANCH  25  27
ENDBRANCH   1  20
TORSDOF 6
