REMARK  Name = 
REMARK  8 active torsions:
REMARK  status: ('A' for Active; 'I' for Inactive)
REMARK    1  A    between atoms: C_1  and  C_2
REMARK    2  A    between atoms: C_2  and  C_3
REMARK    3  A    between atoms: C_2  and  C_4
REMARK    4  A    between atoms: C_2  and  C_15
REMARK    5  A    between atoms: C_4  and  N_5
REMARK    6  A    between atoms: N_5  and  C_6
REMARK    7  A    between atoms: C_9  and  C_10
REMARK    8  A    between atoms: C_19  and  C_20
REMARK                            x       y       z     vdW  Elec       q    Type
REMARK                         _______ _______ _______ _____ _____    ______ ____
ROOT
ATOM      1  C   UNL     1       1.041  -0.081  -0.091  0.00  0.00    +0.000 C 
ATOM      2  C   UNL     1       2.584  -0.040  -0.116  0.00  0.00    +0.000 C 
ATOM      3  C   UNL     1       3.073  -0.817  -1.363  0.00  0.00    +0.000 C 
ENDROOT
BRANCH   2   4
ATOM      4  C   UNL     1       3.122  -0.650   1.203  0.00  0.00    +0.000 A 
ATOM      5  C   UNL     1       3.890  -1.822   1.235  0.00  0.00    +0.000 A 
ATOM      6  C   UNL     1       4.431  -2.297   2.430  0.00  0.00    +0.000 A 
ATOM      7  C   UNL     1       4.229  -1.598   3.619  0.00  0.00    +0.000 A 
ATOM      8  C   UNL     1       3.472  -0.416   3.643  0.00  0.00    +0.000 A 
ATOM      9  C   UNL     1       2.896   0.011   2.432  0.00  0.00    +0.000 A 
BRANCH   8  10
ATOM     10  C   UNL     1       3.369   0.391   4.873  0.00  0.00    +0.000 A 
ATOM     11  C   UNL     1       4.422   0.518   5.770  0.00  0.00    +0.000 A 
ATOM     12  N   UNL     1       4.400   1.283   6.885  0.00  0.00    +0.000 NA
ATOM     13  C   UNL     1       3.270   1.962   7.096  0.00  0.00    +0.000 A 
ATOM     14  N   UNL     1       2.182   1.940   6.314  0.00  0.00    +0.000 NA
ATOM     15  C   UNL     1       2.262   1.150   5.218  0.00  0.00    +0.000 A 
ENDBRANCH   8  10
ENDBRANCH   2   4
BRANCH   2  16
ATOM     16  C   UNL     1       3.093   1.433  -0.222  0.00  0.00    +0.000 C 
BRANCH  16  17
ATOM     17  N   UNL     1       2.676   2.116  -1.443  0.00  0.00    +0.000 N 
ATOM     18  H   UNL     1       2.040   1.647  -2.076  0.00  0.00    +0.000 HD
BRANCH  17  19
ATOM     19  C   UNL     1       2.979   3.441  -1.702  0.00  0.00    +0.000 A 
ATOM     20  C   UNL     1       3.798   4.215  -0.874  0.00  0.00    +0.000 A 
ATOM     21  C   UNL     1       4.087   5.548  -1.179  0.00  0.00    +0.000 A 
ATOM     22  C   UNL     1       3.568   6.133  -2.335  0.00  0.00    +0.000 A 
ATOM     23  C   UNL     1       2.752   5.378  -3.178  0.00  0.00    +0.000 A 
ATOM     24  C   UNL     1       2.465   4.044  -2.859  0.00  0.00    +0.000 A 
BRANCH  22  25
ATOM     25  C   UNL     1       3.889   7.559  -2.600  0.00  0.00    +0.000 C 
ATOM     26  N   UNL     1       3.867   7.982  -3.900  0.00  0.00    +0.000 N 
ATOM     27  O   UNL     1       4.193   8.328  -1.697  0.00  0.00    +0.000 OA
ATOM     28  H   UNL     1       3.825   7.349  -4.686  0.00  0.00    +0.000 HD
ATOM     29  H   UNL     1       4.180   8.929  -4.068  0.00  0.00    +0.000 HD
ENDBRANCH  22  25
ENDBRANCH  17  19
ENDBRANCH  16  17
ENDBRANCH   2  16
TORSDOF 6
