REMARK  Name = 
REMARK  7 active torsions:
REMARK  status: ('A' for Active; 'I' for Inactive)
REMARK    1  A    between atoms: C_1  and  O_2
REMARK    2  A    between atoms: O_2  and  C_3
REMARK    3  A    between atoms: N_6  and  C_7
REMARK    4  A    between atoms: C_7  and  C_8
REMARK    5  A    between atoms: C_12  and  C_13
REMARK    6  A    between atoms: C_17  and  C_18
REMARK    7  A    between atoms: C_26  and  C_27
REMARK                            x       y       z     vdW  Elec       q    Type
REMARK                         _______ _______ _______ _____ _____    ______ ____
ROOT
ATOM      1  C   UNL     1       6.250  -2.177   4.058  0.00  0.00    +0.000 C 
ENDROOT
BRANCH   1   5
ATOM      2  C   UNL     1       2.963  -1.006   0.753  0.00  0.00    +0.000 A 
ATOM      3  N   UNL     1       3.951  -0.687   1.635  0.00  0.00    +0.000 NA
ATOM      4  C   UNL     1       4.517  -1.672   2.358  0.00  0.00    +0.000 A 
ATOM      5  N   UNL     1       5.479  -1.269   3.248  0.00  0.00    +0.000 N 
ATOM      6  C   UNL     1       4.109  -2.990   2.214  0.00  0.00    +0.000 A 
ATOM      7  C   UNL     1       3.133  -3.313   1.271  0.00  0.00    +0.000 A 
ATOM      8  C   UNL     1       2.542  -2.308   0.504  0.00  0.00    +0.000 A 
ATOM      9  H   UNL     1       5.788  -0.314   3.117  0.00  0.00    +0.000 HD
BRANCH   8  10
ATOM     10  C   UNL     1       1.508  -2.717  -0.482  0.00  0.00    +0.000 C 
ATOM     11  N   UNL     1       0.918  -1.763  -1.258  0.00  0.00    +0.000 N 
ATOM     12  O   UNL     1       1.189  -3.895  -0.614  0.00  0.00    +0.000 OA
ATOM     13  H   UNL     1       1.171  -0.784  -1.200  0.00  0.00    +0.000 HD
ATOM     14  H   UNL     1       0.232  -2.059  -1.939  0.00  0.00    +0.000 HD
ENDBRANCH   8  10
BRANCH   2  16
ATOM     15  C   UNL     1       2.429   1.265   0.791  0.00  0.00    +0.000 C 
ATOM     16  O   UNL     1       2.372   0.038   0.065  0.00  0.00    +0.000 OA
ENDBRANCH   2  16
ENDBRANCH   1   5
BRANCH   1  17
ATOM     17  C   UNL     1       7.287  -1.445   4.870  0.00  0.00    +0.000 A 
ATOM     18  C   UNL     1       6.937  -0.481   5.815  0.00  0.00    +0.000 A 
ATOM     19  C   UNL     1       7.946   0.098   6.569  0.00  0.00    +0.000 A 
ATOM     20  N   UNL     1       9.259  -0.212   6.447  0.00  0.00    +0.000 NA
ATOM     21  C   UNL     1       9.603  -1.136   5.518  0.00  0.00    +0.000 A 
ATOM     22  C   UNL     1       8.641  -1.769   4.727  0.00  0.00    +0.000 A 
BRANCH  21  23
ATOM     23  C   UNL     1      11.040  -1.458   5.406  0.00  0.00    +0.000 A 
ATOM     24  C   UNL     1      11.614  -1.828   4.182  0.00  0.00    +0.000 A 
ATOM     25  C   UNL     1      12.951  -2.180   4.133  0.00  0.00    +0.000 A 
ATOM     26  N   UNL     1      13.760  -2.187   5.208  0.00  0.00    +0.000 NA
ATOM     27  C   UNL     1      13.227  -1.807   6.404  0.00  0.00    +0.000 A 
ATOM     28  C   UNL     1      11.884  -1.433   6.527  0.00  0.00    +0.000 A 
BRANCH  27  29
ATOM     29  C   UNL     1      14.112  -1.812   7.642  0.00  0.00    +0.000 C 
ATOM     30  F   UNL     1      15.388  -2.242   7.420  0.00  0.00    +0.000 F 
ATOM     31  F   UNL     1      14.234  -0.575   8.209  0.00  0.00    +0.000 F 
ATOM     32  F   UNL     1      13.622  -2.619   8.630  0.00  0.00    +0.000 F 
ENDBRANCH  27  29
ENDBRANCH  21  23
ENDBRANCH   1  17
TORSDOF 6
