REMARK  Name = 
REMARK  6 active torsions:
REMARK  status: ('A' for Active; 'I' for Inactive)
REMARK    1  A    between atoms: N_1  and  C_2
REMARK    2  A    between atoms: C_2  and  C_3
REMARK    3  A    between atoms: C_3  and  C_4
REMARK    4  A    between atoms: C_7  and  C_8
REMARK    5  A    between atoms: C_8  and  N_9
REMARK    6  A    between atoms: C_14  and  N_15
REMARK                            x       y       z     vdW  Elec       q    Type
REMARK                         _______ _______ _______ _____ _____    ______ ____
ROOT
ATOM      1  C   UNL     1       8.701  -1.242  -0.789  0.00  0.00    +0.000 C 
ENDROOT
BRANCH   1   2
ATOM      2  N   UNL     1       9.179  -0.545  -1.972  0.00  0.00    +0.000 N 
ATOM      3  C   UNL     1       9.454   0.795  -2.033  0.00  0.00    +0.000 A 
ATOM      4  N   UNL     1      10.036   1.124  -3.163  0.00  0.00    +0.000 NA
ATOM      5  C   UNL     1      10.149  -0.051  -3.867  0.00  0.00    +0.000 A 
ATOM      6  C   UNL     1      10.732  -0.293  -5.110  0.00  0.00    +0.000 A 
ATOM      7  C   UNL     1      10.710  -1.605  -5.556  0.00  0.00    +0.000 A 
ATOM      8  N   UNL     1      10.156  -2.624  -4.870  0.00  0.00    +0.000 NA
ATOM      9  C   UNL     1       9.587  -2.396  -3.663  0.00  0.00    +0.000 A 
ATOM     10  C   UNL     1       9.597  -1.110  -3.152  0.00  0.00    +0.000 A 
BRANCH   7  11
ATOM     11  N   UNL     1      11.342  -1.949  -6.752  0.00  0.00    +0.000 N 
ATOM     12  H   UNL     1      11.030  -1.371  -7.523  0.00  0.00    +0.000 HD
ATOM     13  H   UNL     1      11.161  -2.937  -6.910  0.00  0.00    +0.000 HD
ENDBRANCH   7  11
ENDBRANCH   1   2
BRANCH   1  17
ATOM     14  C   UNL     1       4.376  -1.198  -0.545  0.00  0.00    +0.000 A 
ATOM     15  C   UNL     1       5.042  -2.249  -1.187  0.00  0.00    +0.000 A 
ATOM     16  C   UNL     1       6.438  -2.267  -1.262  0.00  0.00    +0.000 A 
ATOM     17  C   UNL     1       7.198  -1.239  -0.688  0.00  0.00    +0.000 A 
ATOM     18  C   UNL     1       6.529  -0.202  -0.021  0.00  0.00    +0.000 A 
ATOM     19  C   UNL     1       5.133  -0.185   0.053  0.00  0.00    +0.000 A 
BRANCH  14  20
ATOM     20  C   UNL     1       2.867  -1.149  -0.518  0.00  0.00    +0.000 C 
BRANCH  20  21
ATOM     21  C   UNL     1       2.266  -1.882   0.684  0.00  0.00    +0.000 C 
BRANCH  21  22
ATOM     22  N   UNL     1       0.804  -1.831   0.644  0.00  0.00    +0.000 NA
ATOM     23  H   UNL     1       0.424  -2.350   1.435  0.00  0.00    +0.000 HD
ATOM     24  H   UNL     1       0.466  -2.304  -0.194  0.00  0.00    +0.000 HD
ENDBRANCH  21  22
ENDBRANCH  20  21
ENDBRANCH  14  20
ENDBRANCH   1  17
TORSDOF 6
