REMARK  Name = 
REMARK  8 active torsions:
REMARK  status: ('A' for Active; 'I' for Inactive)
REMARK    1  A    between atoms: C_1  and  C_2
REMARK    2  A    between atoms: C_2  and  N_3
REMARK    3  A    between atoms: N_3  and  C_4
REMARK    4  A    between atoms: C_4  and  C_5
REMARK    5  A    between atoms: C_8  and  C_9
REMARK    6  A    between atoms: C_9  and  N_10
REMARK    7  A    between atoms: C_11  and  C_13
REMARK    8  A    between atoms: C_20  and  C_22
REMARK                            x       y       z     vdW  Elec       q    Type
REMARK                         _______ _______ _______ _____ _____    ______ ____
ROOT
ATOM      1  C   UNL     1       1.896   1.682   1.644  0.00  0.00    +0.000 C 
ENDROOT
BRANCH   1   2
ATOM      2  C   UNL     1       0.425   1.330   1.721  0.00  0.00    +0.000 A 
ATOM      3  C   UNL     1      -0.447   1.703   0.704  0.00  0.00    +0.000 A 
ATOM      4  C   UNL     1      -1.820   1.647   0.944  0.00  0.00    +0.000 A 
ATOM      5  C   UNL     1      -2.292   1.227   2.190  0.00  0.00    +0.000 A 
ATOM      6  C   UNL     1      -1.352   0.757   3.098  0.00  0.00    +0.000 A 
ATOM      7  N   UNL     1      -0.017   0.801   2.892  0.00  0.00    +0.000 NA
BRANCH   5   8
ATOM      8  C   UNL     1      -3.734   1.360   2.578  0.00  0.00    +0.000 C 
BRANCH   8   9
ATOM      9  N   UNL     1      -4.521   0.201   2.255  0.00  0.00    +0.000 N 
ATOM     10  C   UNL     1      -5.838   0.135   2.653  0.00  0.00    +0.000 C 
ATOM     11  O   UNL     1      -6.367   1.022   3.319  0.00  0.00    +0.000 OA
ATOM     12  H   UNL     1      -4.163  -0.474   1.599  0.00  0.00    +0.000 HD
BRANCH  10  13
ATOM     13  C   UNL     1      -6.555  -1.044   2.228  0.00  0.00    +0.000 A 
ATOM     14  C   UNL     1      -6.160  -2.175   1.527  0.00  0.00    +0.000 A 
ATOM     15  C   UNL     1      -7.282  -3.028   1.396  0.00  0.00    +0.000 A 
ATOM     16  C   UNL     1      -8.342  -2.409   2.015  0.00  0.00    +0.000 A 
ATOM     17  N   UNL     1      -7.896  -1.216   2.515  0.00  0.00    +0.000 N 
ATOM     18  H   UNL     1      -8.448  -0.540   3.029  0.00  0.00    +0.000 HD
ENDBRANCH  10  13
ENDBRANCH   8   9
ENDBRANCH   5   8
ENDBRANCH   1   2
BRANCH   1  19
ATOM     19  N   UNL     1       2.813   0.831   0.882  0.00  0.00    +0.000 N 
ATOM     20  C   UNL     1       4.099   1.241   0.485  0.00  0.00    +0.000 C 
ATOM     21  O   UNL     1       4.839   0.497  -0.154  0.00  0.00    +0.000 OA
BRANCH  20  22
ATOM     22  C   UNL     1       4.590   2.571   0.867  0.00  0.00    +0.000 A 
ATOM     23  C   UNL     1       4.589   3.069   2.160  0.00  0.00    +0.000 A 
ATOM     24  S   UNL     1       5.347   4.596   2.299  0.00  0.00    +0.000 S 
ATOM     25  C   UNL     1       5.802   4.578   0.657  0.00  0.00    +0.000 A 
ATOM     26  N   UNL     1       6.576   5.567   0.131  0.00  0.00    +0.000 NA
ATOM     27  C   UNL     1       6.894   5.381  -1.108  0.00  0.00    +0.000 A 
ATOM     28  N   UNL     1       6.477   4.322  -1.874  0.00  0.00    +0.000 N 
ATOM     29  C   UNL     1       5.584   3.374  -1.420  0.00  0.00    +0.000 A 
ATOM     30  O   UNL     1       5.045   2.590  -2.190  0.00  0.00    +0.000 OA
ATOM     31  C   UNL     1       5.301   3.475  -0.002  0.00  0.00    +0.000 A 
ATOM     32  H   UNL     1       6.707   4.276  -2.855  0.00  0.00    +0.000 HD
ENDBRANCH  20  22
BRANCH  19  34
ATOM     33  C   UNL     1       2.041  -0.771  -0.831  0.00  0.00    +0.000 C 
ATOM     34  C   UNL     1       2.458  -0.564   0.619  0.00  0.00    +0.000 C 
ENDBRANCH  19  34
ENDBRANCH   1  19
TORSDOF 7
