REMARK  Name = 
REMARK  6 active torsions:
REMARK  status: ('A' for Active; 'I' for Inactive)
REMARK    1  A    between atoms: C_2  and  C_20
REMARK    2  A    between atoms: N_3  and  C_4
REMARK    3  A    between atoms: C_4  and  C_5
REMARK    4  A    between atoms: C_8  and  C_9
REMARK    5  A    between atoms: C_9  and  N_10
REMARK    6  A    between atoms: C_11  and  C_13
REMARK                            x       y       z     vdW  Elec       q    Type
REMARK                         _______ _______ _______ _____ _____    ______ ____
ROOT
ATOM      1  C   UNL     1      11.526 -10.654   1.860  0.00  0.00    +0.000 A 
ATOM      2  C   UNL     1      10.468 -10.304   2.711  0.00  0.00    +0.000 A 
ATOM      3  C   UNL     1      10.481  -9.089   3.409  0.00  0.00    +0.000 A 
ATOM      4  C   UNL     1      11.541  -8.185   3.253  0.00  0.00    +0.000 A 
ATOM      5  C   UNL     1      12.593  -8.531   2.395  0.00  0.00    +0.000 A 
ATOM      6  C   UNL     1      12.579  -9.745   1.696  0.00  0.00    +0.000 A 
ENDROOT
BRANCH   1   7
ATOM      7  C   UNL     1      11.539 -11.985   1.150  0.00  0.00    +0.000 C 
BRANCH   7  10
ATOM      8  O   UNL     1      11.448 -14.093  -0.630  0.00  0.00    +0.000 OA
ATOM      9  C   UNL     1      10.840 -13.066  -0.923  0.00  0.00    +0.000 C 
ATOM     10  N   UNL     1      10.896 -11.937  -0.139  0.00  0.00    +0.000 N 
ATOM     11  H   UNL     1      10.228 -11.190  -0.297  0.00  0.00    +0.000 HD
BRANCH   9  12
ATOM     12  C   UNL     1      10.036 -12.984  -2.149  0.00  0.00    +0.000 A 
ATOM     13  C   UNL     1      10.329 -13.809  -3.229  0.00  0.00    +0.000 A 
ATOM     14  S   UNL     1       9.275 -13.596  -4.554  0.00  0.00    +0.000 S 
ATOM     15  C   UNL     1       8.368 -12.428  -3.716  0.00  0.00    +0.000 A 
ATOM     16  N   UNL     1       7.266 -11.859  -4.275  0.00  0.00    +0.000 NA
ATOM     17  C   UNL     1       6.651 -11.020  -3.508  0.00  0.00    +0.000 A 
ATOM     18  N   UNL     1       7.047 -10.683  -2.242  0.00  0.00    +0.000 N 
ATOM     19  C   UNL     1       8.182 -11.195  -1.656  0.00  0.00    +0.000 A 
ATOM     20  O   UNL     1       8.554 -10.812  -0.549  0.00  0.00    +0.000 OA
ATOM     21  C   UNL     1       8.885 -12.175  -2.455  0.00  0.00    +0.000 A 
ATOM     22  H   UNL     1       6.536 -10.001  -1.701  0.00  0.00    +0.000 HD
ENDBRANCH   9  12
ENDBRANCH   7  10
ENDBRANCH   1   7
BRANCH   4  23
ATOM     23  C   UNL     1      11.546  -6.864   3.980  0.00  0.00    +0.000 C 
BRANCH  23  24
ATOM     24  N   UNL     1      12.209  -6.938   5.262  0.00  0.00    +0.000 N 
ATOM     25  C   UNL     1      12.377  -5.802   6.029  0.00  0.00    +0.000 C 
ATOM     26  O   UNL     1      11.968  -4.698   5.672  0.00  0.00    +0.000 OA
ATOM     27  H   UNL     1      12.386  -7.850   5.666  0.00  0.00    +0.000 HD
BRANCH  25  28
ATOM     28  C   UNL     1      13.101  -6.036   7.377  0.00  0.00    +0.000 C 
ATOM     29  C   UNL     1      14.516  -6.558   7.200  0.00  0.00    +0.000 C 
ATOM     30  C   UNL     1      15.317  -5.300   6.913  0.00  0.00    +0.000 C 
ATOM     31  C   UNL     1      14.573  -4.192   7.642  0.00  0.00    +0.000 C 
ATOM     32  N   UNL     1      13.305  -4.765   8.108  0.00  0.00    +0.000 NA
ATOM     33  H   UNL     1      12.541  -4.126   7.870  0.00  0.00    +0.000 HD
ENDBRANCH  25  28
ENDBRANCH  23  24
ENDBRANCH   4  23
TORSDOF 6
