REMARK  Name = 
REMARK  6 active torsions:
REMARK  status: ('A' for Active; 'I' for Inactive)
REMARK    1  A    between atoms: C_2  and  C_19
REMARK    2  A    between atoms: N_3  and  C_4
REMARK    3  A    between atoms: C_4  and  C_5
REMARK    4  A    between atoms: C_8  and  C_9
REMARK    5  A    between atoms: C_9  and  N_10
REMARK    6  A    between atoms: N_10  and  C_11
REMARK                            x       y       z     vdW  Elec       q    Type
REMARK                         _______ _______ _______ _____ _____    ______ ____
ROOT
ATOM      1  C   UNL     1       2.366  -0.136  -4.926  0.00  0.00    +0.000 C 
ENDROOT
BRANCH   1   2
ATOM      2  C   UNL     1       3.297  -0.132  -3.689  0.00  0.00    +0.000 C 
ATOM      3  C   UNL     1       4.106  -1.418  -3.493  0.00  0.00    +0.000 C 
ATOM      4  C   UNL     1       5.351  -1.534  -4.366  0.00  0.00    +0.000 C 
ATOM      5  C   UNL     1       6.229  -0.276  -4.408  0.00  0.00    +0.000 C 
ATOM      6  C   UNL     1       5.416   1.023  -4.539  0.00  0.00    +0.000 C 
ATOM      7  C   UNL     1       4.225   1.087  -3.594  0.00  0.00    +0.000 C 
BRANCH   5   8
ATOM      8  C   UNL     1       7.252  -0.325  -5.564  0.00  0.00    +0.000 C 
BRANCH   8   9
ATOM      9  N   UNL     1       8.069  -1.536  -5.513  0.00  0.00    +0.000 N 
ATOM     10  H   UNL     1       7.503  -2.380  -5.443  0.00  0.00    +0.000 HD
BRANCH   9  11
ATOM     11  C   UNL     1       9.056  -1.705  -6.499  0.00  0.00    +0.000 A 
ATOM     12  C   UNL     1       9.747  -0.645  -7.084  0.00  0.00    +0.000 A 
ATOM     13  C   UNL     1      10.772  -0.916  -7.978  0.00  0.00    +0.000 A 
ATOM     14  N   UNL     1      11.169  -2.158  -8.318  0.00  0.00    +0.000 NA
ATOM     15  C   UNL     1      10.515  -3.173  -7.720  0.00  0.00    +0.000 A 
ATOM     16  C   UNL     1       9.483  -2.999  -6.810  0.00  0.00    +0.000 A 
ENDBRANCH   9  11
ENDBRANCH   8   9
ENDBRANCH   5   8
ENDBRANCH   1   2
BRANCH   1  19
ATOM     17  O   UNL     1       2.854  -2.527  -6.403  0.00  0.00    +0.000 OA
ATOM     18  C   UNL     1       3.249  -1.452  -6.843  0.00  0.00    +0.000 C 
ATOM     19  N   UNL     1       3.024  -0.255  -6.206  0.00  0.00    +0.000 N 
ATOM     20  H   UNL     1       3.227   0.607  -6.701  0.00  0.00    +0.000 HD
BRANCH  18  21
ATOM     21  C   UNL     1       4.125  -1.381  -8.018  0.00  0.00    +0.000 A 
ATOM     22  C   UNL     1       5.020  -2.406  -8.295  0.00  0.00    +0.000 A 
ATOM     23  S   UNL     1       5.928  -2.146  -9.717  0.00  0.00    +0.000 S 
ATOM     24  C   UNL     1       5.136  -0.669 -10.018  0.00  0.00    +0.000 A 
ATOM     25  N   UNL     1       5.394   0.057 -11.138  0.00  0.00    +0.000 NA
ATOM     26  C   UNL     1       4.693   1.140 -11.241  0.00  0.00    +0.000 A 
ATOM     27  N   UNL     1       3.787   1.576 -10.309  0.00  0.00    +0.000 N 
ATOM     28  C   UNL     1       3.567   0.924  -9.122  0.00  0.00    +0.000 A 
ATOM     29  O   UNL     1       2.902   1.433  -8.225  0.00  0.00    +0.000 OA
ATOM     30  C   UNL     1       4.247  -0.348  -9.008  0.00  0.00    +0.000 A 
ATOM     31  H   UNL     1       3.322   2.465 -10.420  0.00  0.00    +0.000 HD
ENDBRANCH  18  21
ENDBRANCH   1  19
TORSDOF 6
