REMARK  Name = 
REMARK  6 active torsions:
REMARK  status: ('A' for Active; 'I' for Inactive)
REMARK    1  A    between atoms: C_2  and  C_20
REMARK    2  A    between atoms: N_3  and  C_4
REMARK    3  A    between atoms: C_4  and  C_5
REMARK    4  A    between atoms: N_8  and  C_9
REMARK    5  A    between atoms: C_9  and  C_10
REMARK    6  A    between atoms: C_11  and  C_12
REMARK                            x       y       z     vdW  Elec       q    Type
REMARK                         _______ _______ _______ _____ _____    ______ ____
ROOT
ATOM      1  C   UNL     1       2.013   2.309   0.902  0.00  0.00    +0.000 C 
ENDROOT
BRANCH   1   2
ATOM      2  C   UNL     1       3.195   3.300   1.137  0.00  0.00    +0.000 C 
ATOM      3  C   UNL     1       3.140   4.589   0.296  0.00  0.00    +0.000 C 
ATOM      4  C   UNL     1       3.325   4.342  -1.208  0.00  0.00    +0.000 C 
ATOM      5  N   UNL     1       4.497   3.507  -1.552  0.00  0.00    +0.000 NA
ATOM      6  C   UNL     1       4.546   2.290  -0.716  0.00  0.00    +0.000 C 
ATOM      7  C   UNL     1       4.547   2.662   0.771  0.00  0.00    +0.000 C 
BRANCH   5   8
ATOM      8  C   UNL     1       4.441   3.136  -2.979  0.00  0.00    +0.000 C 
BRANCH   8   9
ATOM      9  C   UNL     1       4.506   4.317  -3.914  0.00  0.00    +0.000 C 
ATOM     10  C   UNL     1       3.541   4.632  -4.794  0.00  0.00    +0.000 C 
BRANCH  10  11
ATOM     11  C   UNL     1       3.707   5.735  -5.740  0.00  0.00    +0.000 A 
ATOM     12  C   UNL     1       4.284   5.514  -6.992  0.00  0.00    +0.000 A 
ATOM     13  C   UNL     1       4.431   6.594  -7.849  0.00  0.00    +0.000 A 
ATOM     14  N   UNL     1       4.047   7.852  -7.542  0.00  0.00    +0.000 NA
ATOM     15  C   UNL     1       3.500   8.037  -6.322  0.00  0.00    +0.000 A 
ATOM     16  C   UNL     1       3.310   7.024  -5.396  0.00  0.00    +0.000 A 
ENDBRANCH  10  11
ENDBRANCH   8   9
ENDBRANCH   5   8
ENDBRANCH   1   2
BRANCH   1  19
ATOM     17  O   UNL     1      -0.577   1.667  -0.239  0.00  0.00    +0.000 OA
ATOM     18  C   UNL     1      -0.481   2.488   0.678  0.00  0.00    +0.000 C 
ATOM     19  N   UNL     1       0.718   2.861   1.238  0.00  0.00    +0.000 N 
ATOM     20  H   UNL     1       0.680   3.259   2.166  0.00  0.00    +0.000 HD
BRANCH  18  21
ATOM     21  C   UNL     1      -1.670   3.180   1.234  0.00  0.00    +0.000 A 
ATOM     22  C   UNL     1      -2.833   3.384   0.509  0.00  0.00    +0.000 A 
ATOM     23  S   UNL     1      -4.053   4.204   1.400  0.00  0.00    +0.000 S 
ATOM     24  C   UNL     1      -3.077   4.273   2.790  0.00  0.00    +0.000 A 
ATOM     25  N   UNL     1      -3.530   4.818   3.952  0.00  0.00    +0.000 NA
ATOM     26  C   UNL     1      -2.675   4.784   4.921  0.00  0.00    +0.000 A 
ATOM     27  N   UNL     1      -1.415   4.276   4.846  0.00  0.00    +0.000 N 
ATOM     28  C   UNL     1      -0.885   3.835   3.673  0.00  0.00    +0.000 A 
ATOM     29  O   UNL     1       0.331   3.584   3.596  0.00  0.00    +0.000 OA
ATOM     30  C   UNL     1      -1.816   3.750   2.559  0.00  0.00    +0.000 A 
ATOM     31  H   UNL     1      -0.762   4.351   5.614  0.00  0.00    +0.000 HD
ENDBRANCH  18  21
ENDBRANCH   1  19
TORSDOF 6
