REMARK  Name = 
REMARK  9 active torsions:
REMARK  status: ('A' for Active; 'I' for Inactive)
REMARK    1  A    between atoms: C_1  and  O_2
REMARK    2  A    between atoms: O_2  and  C_3
REMARK    3  A    between atoms: C_10  and  C_11
REMARK    4  A    between atoms: N_13  and  C_14
REMARK    5  A    between atoms: C_14  and  C_15
REMARK    6  A    between atoms: C_18  and  C_19
REMARK    7  A    between atoms: C_19  and  N_20
REMARK    8  A    between atoms: N_20  and  C_21
REMARK    9  A    between atoms: C_21  and  C_22
REMARK                            x       y       z     vdW  Elec       q    Type
REMARK                         _______ _______ _______ _____ _____    ______ ____
ROOT
ATOM      1  C   UNL     1       2.799   1.114  -3.150  0.00  0.00    +0.000 C 
ENDROOT
BRANCH   1   2
ATOM      2  C   UNL     1       1.628   0.163  -3.162  0.00  0.00    +0.000 A 
ATOM      3  C   UNL     1       1.829  -1.223  -3.230  0.00  0.00    +0.000 A 
ATOM      4  C   UNL     1       0.739  -2.101  -3.245  0.00  0.00    +0.000 A 
ATOM      5  C   UNL     1      -0.577  -1.617  -3.198  0.00  0.00    +0.000 A 
ATOM      6  C   UNL     1      -0.776  -0.231  -3.161  0.00  0.00    +0.000 A 
ATOM      7  C   UNL     1       0.313   0.649  -3.150  0.00  0.00    +0.000 A 
BRANCH   5   8
ATOM      8  C   UNL     1      -1.754  -2.570  -3.204  0.00  0.00    +0.000 C 
BRANCH   8   9
ATOM      9  N   UNL     1      -1.701  -3.485  -2.069  0.00  0.00    +0.000 NA
ATOM     10  H   UNL     1      -1.703  -2.953  -1.197  0.00  0.00    +0.000 HD
BRANCH   9  11
ATOM     11  C   UNL     1      -2.868  -4.387  -2.041  0.00  0.00    +0.000 C 
BRANCH  11  12
ATOM     12  C   UNL     1      -2.859  -5.326  -0.841  0.00  0.00    +0.000 A 
ATOM     13  N   UNL     1      -2.870  -4.766   0.391  0.00  0.00    +0.000 NA
ATOM     14  C   UNL     1      -2.830  -5.616   1.434  0.00  0.00    +0.000 A 
ATOM     15  C   UNL     1      -2.791  -6.984   1.301  0.00  0.00    +0.000 A 
ATOM     16  C   UNL     1      -2.801  -7.454   0.010  0.00  0.00    +0.000 A 
ATOM     17  N   UNL     1      -2.840  -6.656  -1.074  0.00  0.00    +0.000 NA
ENDBRANCH  11  12
ENDBRANCH   9  11
ENDBRANCH   8   9
ENDBRANCH   5   8
ENDBRANCH   1   2
BRANCH   1  20
ATOM     18  C   UNL     1       4.287   2.239  -4.760  0.00  0.00    +0.000 C 
ATOM     19  O   UNL     1       4.962   2.729  -3.856  0.00  0.00    +0.000 OA
ATOM     20  N   UNL     1       3.209   1.447  -4.491  0.00  0.00    +0.000 N 
ATOM     21  H   UNL     1       2.621   1.118  -5.246  0.00  0.00    +0.000 HD
BRANCH  18  29
ATOM     22  C   UNL     1       2.935   1.108  -7.718  0.00  0.00    +0.000 A 
ATOM     23  N   UNL     1       2.632   0.797  -8.995  0.00  0.00    +0.000 NA
ATOM     24  C   UNL     1       3.390   1.317  -9.964  0.00  0.00    +0.000 A 
ATOM     25  N   UNL     1       4.430   2.133  -9.817  0.00  0.00    +0.000 NA
ATOM     26  C   UNL     1       4.695   2.420  -8.530  0.00  0.00    +0.000 A 
ATOM     27  S   UNL     1       5.987   3.455  -8.152  0.00  0.00    +0.000 S 
ATOM     28  C   UNL     1       5.687   3.306  -6.486  0.00  0.00    +0.000 A 
ATOM     29  C   UNL     1       4.614   2.476  -6.178  0.00  0.00    +0.000 A 
ATOM     30  C   UNL     1       4.011   1.959  -7.409  0.00  0.00    +0.000 A 
BRANCH  22  32
ATOM     31  C   UNL     1       1.439  -0.579  -7.090  0.00  0.00    +0.000 C 
ATOM     32  O   UNL     1       2.114   0.621  -6.723  0.00  0.00    +0.000 OA
ENDBRANCH  22  32
ENDBRANCH  18  29
ENDBRANCH   1  20
TORSDOF 8
