REMARK  Name = 
REMARK  6 active torsions:
REMARK  status: ('A' for Active; 'I' for Inactive)
REMARK    1  A    between atoms: N_1  and  C_2
REMARK    2  A    between atoms: C_2  and  C_3
REMARK    3  A    between atoms: C_3  and  C_4
REMARK    4  A    between atoms: C_7  and  C_8
REMARK    5  A    between atoms: C_8  and  O_9
REMARK    6  A    between atoms: O_9  and  C_10
REMARK                            x       y       z     vdW  Elec       q    Type
REMARK                         _______ _______ _______ _____ _____    ______ ____
ROOT
ATOM      1  C   UNL     1       4.462  -0.562   1.317  0.00  0.00    +0.000 A 
ATOM      2  C   UNL     1       5.126  -1.173   2.388  0.00  0.00    +0.000 A 
ATOM      3  C   UNL     1       6.523  -1.256   2.407  0.00  0.00    +0.000 A 
ATOM      4  C   UNL     1       7.283  -0.717   1.361  0.00  0.00    +0.000 A 
ATOM      5  C   UNL     1       6.617  -0.113   0.286  0.00  0.00    +0.000 A 
ATOM      6  C   UNL     1       5.221  -0.029   0.268  0.00  0.00    +0.000 A 
ENDROOT
BRANCH   1   7
ATOM      7  C   UNL     1       2.953  -0.497   1.287  0.00  0.00    +0.000 C 
BRANCH   7   8
ATOM      8  C   UNL     1       2.392   0.758   1.965  0.00  0.00    +0.000 C 
BRANCH   8   9
ATOM      9  N   UNL     1       0.928   0.754   1.942  0.00  0.00    +0.000 NA
ATOM     10  H   UNL     1       0.579   1.586   2.417  0.00  0.00    +0.000 HD
ATOM     11  H   UNL     1       0.579  -0.043   2.473  0.00  0.00    +0.000 HD
ENDBRANCH   8   9
ENDBRANCH   7   8
ENDBRANCH   1   7
BRANCH   4  12
ATOM     12  C   UNL     1       8.791  -0.770   1.398  0.00  0.00    +0.000 C 
BRANCH  12  13
ATOM     13  O   UNL     1       9.258  -1.976   0.793  0.00  0.00    +0.000 OA
BRANCH  13  14
ATOM     14  C   UNL     1      10.614  -2.156   0.772  0.00  0.00    +0.000 A 
ATOM     15  C   UNL     1      11.569  -1.262   1.241  0.00  0.00    +0.000 A 
ATOM     16  C   UNL     1      12.902  -1.618   1.141  0.00  0.00    +0.000 A 
ATOM     17  N   UNL     1      13.312  -2.786   0.610  0.00  0.00    +0.000 NA
ATOM     18  N   UNL     1      12.386  -3.663   0.146  0.00  0.00    +0.000 NA
ATOM     19  C   UNL     1      11.075  -3.345   0.229  0.00  0.00    +0.000 A 
ENDBRANCH  13  14
ENDBRANCH  12  13
ENDBRANCH   4  12
TORSDOF 6
