REMARK  Name = 
REMARK  5 active torsions:
REMARK  status: ('A' for Active; 'I' for Inactive)
REMARK    1  A    between atoms: C_2  and  C_4
REMARK    2  A    between atoms: C_7  and  N_8
REMARK    3  A    between atoms: N_8  and  C_9
REMARK    4  A    between atoms: C_9  and  C_10
REMARK    5  A    between atoms: C_12  and  C_13
REMARK                            x       y       z     vdW  Elec       q    Type
REMARK                         _______ _______ _______ _____ _____    ______ ____
ROOT
ATOM      1  N   UNL     1       5.554  -0.208  -4.772  0.00  0.00    +0.000 N 
ATOM      2  H   UNL     1       5.904  -1.164  -4.834  0.00  0.00    +0.000 HD
ENDROOT
BRANCH   1   6
ATOM      3  C   UNL     1       3.560   0.516  -1.121  0.00  0.00    +0.000 A 
ATOM      4  C   UNL     1       2.972   0.927  -2.318  0.00  0.00    +0.000 A 
ATOM      5  C   UNL     1       3.615   0.682  -3.534  0.00  0.00    +0.000 A 
ATOM      6  C   UNL     1       4.837   0.003  -3.591  0.00  0.00    +0.000 A 
ATOM      7  C   UNL     1       5.421  -0.395  -2.378  0.00  0.00    +0.000 A 
ATOM      8  C   UNL     1       4.795  -0.135  -1.152  0.00  0.00    +0.000 A 
BRANCH   3  10
ATOM      9  N   UNL     1       1.561   0.901   0.213  0.00  0.00    +0.000 N 
ATOM     10  C   UNL     1       2.925   0.800   0.191  0.00  0.00    +0.000 C 
ATOM     11  O   UNL     1       3.584   0.907   1.217  0.00  0.00    +0.000 OA
ATOM     12  H   UNL     1       1.133   0.999   1.125  0.00  0.00    +0.000 HD
ATOM     13  H   UNL     1       0.980   0.575  -0.546  0.00  0.00    +0.000 HD
ENDBRANCH   3  10
ENDBRANCH   1   6
BRANCH   1  14
ATOM     14  C   UNL     1       4.999   0.269  -6.041  0.00  0.00    +0.000 C 
BRANCH  14  15
ATOM     15  C   UNL     1       5.926  -0.021  -7.203  0.00  0.00    +0.000 A 
ATOM     16  C   UNL     1       7.228   0.477  -7.196  0.00  0.00    +0.000 A 
ATOM     17  C   UNL     1       8.084   0.241  -8.283  0.00  0.00    +0.000 A 
ATOM     18  C   UNL     1       7.555  -0.489  -9.355  0.00  0.00    +0.000 A 
ATOM     19  C   UNL     1       6.247  -0.944  -9.290  0.00  0.00    +0.000 A 
ATOM     20  N   UNL     1       5.427  -0.732  -8.241  0.00  0.00    +0.000 NA
BRANCH  17  21
ATOM     21  C   UNL     1       9.472   0.745  -8.281  0.00  0.00    +0.000 A 
ATOM     22  C   UNL     1      10.224   0.842  -7.100  0.00  0.00    +0.000 A 
ATOM     23  C   UNL     1      11.521   1.350  -7.115  0.00  0.00    +0.000 A 
ATOM     24  C   UNL     1      12.056   1.743  -8.328  0.00  0.00    +0.000 A 
ATOM     25  N   UNL     1      11.388   1.660  -9.496  0.00  0.00    +0.000 NA
ATOM     26  C   UNL     1      10.123   1.173  -9.442  0.00  0.00    +0.000 A 
ENDBRANCH  17  21
ENDBRANCH  14  15
ENDBRANCH   1  14
TORSDOF 5
