REMARK  Name = 
REMARK  10 active torsions:
REMARK  status: ('A' for Active; 'I' for Inactive)
REMARK    1  A    between atoms: C_1  and  C_2
REMARK    2  A    between atoms: C_2  and  C_3
REMARK    3  A    between atoms: C_5  and  N_6
REMARK    4  A    between atoms: C_9  and  C_10
REMARK    5  A    between atoms: C_10  and  C_11
REMARK    6  A    between atoms: C_10  and  C_12
REMARK    7  A    between atoms: C_10  and  C_13
REMARK    8  A    between atoms: C_13  and  N_14
REMARK    9  A    between atoms: N_14  and  C_15
REMARK   10  A    between atoms: C_20  and  C_21
REMARK                            x       y       z     vdW  Elec       q    Type
REMARK                         _______ _______ _______ _____ _____    ______ ____
ROOT
ATOM      1  C   UNL     1      -4.469   0.399   4.698  0.00  0.00    +0.000 C 
ATOM      2  C   UNL     1      -3.502  -0.774   5.002  0.00  0.00    +0.000 C 
ATOM      3  C   UNL     1      -3.802   1.707   5.184  0.00  0.00    +0.000 C 
ENDROOT
BRANCH   1   7
ATOM      4  N   UNL     1      -2.818   0.902   0.027  0.00  0.00    +0.000 N 
ATOM      5  C   UNL     1      -3.910   0.745   0.905  0.00  0.00    +0.000 A 
ATOM      6  C   UNL     1      -3.665   0.697   2.278  0.00  0.00    +0.000 A 
ATOM      7  C   UNL     1      -4.717   0.451   3.174  0.00  0.00    +0.000 A 
ATOM      8  C   UNL     1      -5.979   0.248   2.598  0.00  0.00    +0.000 A 
ATOM      9  C   UNL     1      -6.152   0.404   1.235  0.00  0.00    +0.000 A 
ATOM     10  N   UNL     1      -5.144   0.639   0.384  0.00  0.00    +0.000 NA
ATOM     11  H   UNL     1      -2.540   1.879   0.083  0.00  0.00    +0.000 HD
BRANCH   4  16
ATOM     12  C   UNL     1      -2.607  -1.013  -3.973  0.00  0.00    +0.000 C 
ATOM     13  C   UNL     1      -2.034  -1.093  -2.558  0.00  0.00    +0.000 C 
ATOM     14  C   UNL     1      -1.027  -2.231  -2.424  0.00  0.00    +0.000 C 
ATOM     15  C   UNL     1      -3.117  -1.078  -1.446  0.00  0.00    +0.000 C 
ATOM     16  C   UNL     1      -2.920   0.457  -1.334  0.00  0.00    +0.000 C 
ATOM     17  C   UNL     1      -1.533   0.267  -1.985  0.00  0.00    +0.000 C 
ENDBRANCH   4  16
ENDBRANCH   1   7
BRANCH   1  18
ATOM     18  C   UNL     1      -5.770   0.192   5.549  0.00  0.00    +0.000 C 
BRANCH  18  19
ATOM     19  N   UNL     1      -6.752   1.290   5.345  0.00  0.00    +0.000 N 
ATOM     20  H   UNL     1      -6.656   1.697   4.417  0.00  0.00    +0.000 HD
BRANCH  19  21
ATOM     21  C   UNL     1      -8.086   0.861   5.527  0.00  0.00    +0.000 A 
ATOM     22  N   UNL     1      -8.290  -0.143   6.412  0.00  0.00    +0.000 NA
ATOM     23  C   UNL     1      -9.547  -0.592   6.617  0.00  0.00    +0.000 A 
ATOM     24  C   UNL     1     -10.653  -0.081   5.969  0.00  0.00    +0.000 A 
ATOM     25  C   UNL     1     -10.460   0.958   5.076  0.00  0.00    +0.000 A 
ATOM     26  C   UNL     1      -9.169   1.461   4.850  0.00  0.00    +0.000 A 
BRANCH  26  27
ATOM     27  C   UNL     1      -9.053   2.540   3.836  0.00  0.00    +0.000 C 
ATOM     28  N   UNL     1      -8.015   3.423   3.959  0.00  0.00    +0.000 N 
ATOM     29  O   UNL     1      -9.871   2.669   2.938  0.00  0.00    +0.000 OA
ATOM     30  H   UNL     1      -7.484   3.483   4.824  0.00  0.00    +0.000 HD
ATOM     31  H   UNL     1      -8.054   4.244   3.373  0.00  0.00    +0.000 HD
ENDBRANCH  26  27
ENDBRANCH  19  21
ENDBRANCH  18  19
ENDBRANCH   1  18
TORSDOF 6
