REMARK  Name = 
REMARK  4 active torsions:
REMARK  status: ('A' for Active; 'I' for Inactive)
REMARK    1  A    between atoms: C_2  and  C_4
REMARK    2  A    between atoms: C_7  and  N_8
REMARK    3  A    between atoms: N_8  and  C_9
REMARK    4  A    between atoms: C_9  and  C_10
REMARK                            x       y       z     vdW  Elec       q    Type
REMARK                         _______ _______ _______ _____ _____    ______ ____
ROOT
ATOM      1  C   UNL     1       3.253   1.337  -0.297  0.00  0.00    +0.000 A 
ATOM      2  C   UNL     1       2.783   2.529   0.230  0.00  0.00    +0.000 A 
ATOM      3  C   UNL     1       3.439   3.709  -0.123  0.00  0.00    +0.000 A 
ATOM      4  C   UNL     1       4.557   3.681  -0.961  0.00  0.00    +0.000 A 
ATOM      5  C   UNL     1       4.929   2.425  -1.448  0.00  0.00    +0.000 A 
ATOM      6  N   UNL     1       4.317   1.252  -1.141  0.00  0.00    +0.000 NA
ENDROOT
BRANCH   1   8
ATOM      7  N   UNL     1       3.130  -1.077  -0.488  0.00  0.00    +0.000 N 
ATOM      8  C   UNL     1       2.573   0.050   0.055  0.00  0.00    +0.000 C 
ATOM      9  O   UNL     1       1.586  -0.004   0.778  0.00  0.00    +0.000 OA
ATOM     10  H   UNL     1       2.723  -1.979  -0.292  0.00  0.00    +0.000 HD
ATOM     11  H   UNL     1       3.950  -0.993  -1.078  0.00  0.00    +0.000 HD
ENDBRANCH   1   8
BRANCH   4  12
ATOM     12  N   UNL     1       5.156   4.896  -1.293  0.00  0.00    +0.000 N 
ATOM     13  H   UNL     1       4.566   5.451  -1.919  0.00  0.00    +0.000 HD
BRANCH  12  14
ATOM     14  C   UNL     1       6.547   4.915  -1.774  0.00  0.00    +0.000 C 
BRANCH  14  15
ATOM     15  C   UNL     1       6.973   6.301  -2.243  0.00  0.00    +0.000 A 
ATOM     16  N   UNL     1       8.251   6.674  -2.019  0.00  0.00    +0.000 NA
ATOM     17  C   UNL     1       8.617   7.878  -2.495  0.00  0.00    +0.000 A 
ATOM     18  C   UNL     1       7.772   8.710  -3.190  0.00  0.00    +0.000 A 
ATOM     19  C   UNL     1       6.498   8.235  -3.382  0.00  0.00    +0.000 A 
ATOM     20  N   UNL     1       6.072   7.039  -2.934  0.00  0.00    +0.000 NA
ENDBRANCH  14  15
ENDBRANCH  12  14
ENDBRANCH   4  12
TORSDOF 4
