REMARK  Name = 
REMARK  4 active torsions:
REMARK  status: ('A' for Active; 'I' for Inactive)
REMARK    1  A    between atoms: C_2  and  C_5
REMARK    2  A    between atoms: C_7  and  O_8
REMARK    3  A    between atoms: O_8  and  C_9
REMARK    4  A    between atoms: C_9  and  C_10
REMARK                            x       y       z     vdW  Elec       q    Type
REMARK                         _______ _______ _______ _____ _____    ______ ____
ROOT
ATOM      1  C   UNL     1       2.831  -1.364  -0.304  0.00  0.00    +0.000 A 
ATOM      2  C   UNL     1       2.033  -2.459   0.008  0.00  0.00    +0.000 A 
ATOM      3  C   UNL     1       2.492  -3.713  -0.344  0.00  0.00    +0.000 A 
ATOM      4  N   UNL     1       3.679  -3.942  -0.947  0.00  0.00    +0.000 NA
ATOM      5  C   UNL     1       4.490  -2.894  -1.208  0.00  0.00    +0.000 A 
ATOM      6  N   UNL     1       5.709  -3.115  -1.816  0.00  0.00    +0.000 N 
ATOM      7  C   UNL     1       5.894  -4.294  -2.660  0.00  0.00    +0.000 C 
ATOM      8  C   UNL     1       6.955  -5.227  -2.082  0.00  0.00    +0.000 C 
ATOM      9  C   UNL     1       8.245  -4.474  -1.763  0.00  0.00    +0.000 C 
ATOM     10  C   UNL     1       7.958  -3.292  -0.843  0.00  0.00    +0.000 C 
ATOM     11  C   UNL     1       6.903  -2.361  -1.442  0.00  0.00    +0.000 C 
ATOM     12  C   UNL     1       4.075  -1.598  -0.904  0.00  0.00    +0.000 A 
ENDROOT
BRANCH   1  14
ATOM     13  F   UNL     1       1.157   0.134   0.534  0.00  0.00    +0.000 F 
ATOM     14  C   UNL     1       2.385   0.046  -0.045  0.00  0.00    +0.000 C 
ATOM     15  F   UNL     1       2.311   0.782  -1.190  0.00  0.00    +0.000 F 
ATOM     16  F   UNL     1       3.236   0.720   0.776  0.00  0.00    +0.000 F 
ENDBRANCH   1  14
BRANCH   3  17
ATOM     17  O   UNL     1       1.672  -4.774  -0.010  0.00  0.00    +0.000 OA
BRANCH  17  18
ATOM     18  C   UNL     1       1.956  -5.944  -0.779  0.00  0.00    +0.000 C 
BRANCH  18  19
ATOM     19  C   UNL     1       1.066  -7.085  -0.338  0.00  0.00    +0.000 A 
ATOM     20  C   UNL     1       0.602  -8.017  -1.272  0.00  0.00    +0.000 A 
ATOM     21  C   UNL     1      -0.157  -9.090  -0.828  0.00  0.00    +0.000 A 
ATOM     22  N   UNL     1      -0.479  -9.299   0.465  0.00  0.00    +0.000 NA
ATOM     23  C   UNL     1      -0.014  -8.396   1.354  0.00  0.00    +0.000 A 
ATOM     24  C   UNL     1       0.755  -7.294   1.010  0.00  0.00    +0.000 A 
ENDBRANCH  18  19
ENDBRANCH  17  18
ENDBRANCH   3  17
TORSDOF 4
