REMARK  Name = 
REMARK  10 active torsions:
REMARK  status: ('A' for Active; 'I' for Inactive)
REMARK    1  A    between atoms: C_1  and  C_2
REMARK    2  A    between atoms: C_2  and  C_3
REMARK    3  A    between atoms: C_2  and  C_4
REMARK    4  A    between atoms: C_2  and  C_5
REMARK    5  A    between atoms: N_7  and  C_8
REMARK    6  A    between atoms: C_8  and  C_9
REMARK    7  A    between atoms: C_12  and  C_13
REMARK    8  A    between atoms: C_13  and  C_14
REMARK    9  A    between atoms: C_14  and  N_15
REMARK   10  A    between atoms: C_22  and  C_23
REMARK                            x       y       z     vdW  Elec       q    Type
REMARK                         _______ _______ _______ _____ _____    ______ ____
ROOT
ATOM      1  C   UNL     1       3.056  -0.465  -1.243  0.00  0.00    +0.000 A 
ATOM      2  C   UNL     1       3.525   0.210  -2.365  0.00  0.00    +0.000 A 
ATOM      3  N   UNL     1       3.723  -0.677  -3.380  0.00  0.00    +0.000 N 
ATOM      4  C   UNL     1       3.394  -1.935  -2.963  0.00  0.00    +0.000 A 
ATOM      5  N   UNL     1       3.521  -3.021  -3.755  0.00  0.00    +0.000 NA
ATOM      6  C   UNL     1       3.097  -4.162  -3.197  0.00  0.00    +0.000 A 
ATOM      7  C   UNL     1       2.575  -4.270  -1.928  0.00  0.00    +0.000 A 
ATOM      8  C   UNL     1       2.474  -3.124  -1.118  0.00  0.00    +0.000 A 
ATOM      9  C   UNL     1       2.915  -1.869  -1.642  0.00  0.00    +0.000 A 
ENDROOT
BRANCH   8  10
ATOM     10  C   UNL     1       1.834  -3.316   0.208  0.00  0.00    +0.000 C 
ATOM     11  N   UNL     1       2.112  -4.490   0.872  0.00  0.00    +0.000 N 
ATOM     12  O   UNL     1       1.066  -2.513   0.711  0.00  0.00    +0.000 OA
ATOM     13  H   UNL     1       2.772  -5.184   0.556  0.00  0.00    +0.000 HD
ATOM     14  H   UNL     1       1.691  -4.611   1.783  0.00  0.00    +0.000 HD
ENDBRANCH   8  10
BRANCH   1  16
ATOM     15  C   UNL     1       1.186   0.499   0.105  0.00  0.00    +0.000 C 
ATOM     16  C   UNL     1       2.710   0.255   0.071  0.00  0.00    +0.000 C 
ATOM     17  C   UNL     1       3.368   1.665   0.165  0.00  0.00    +0.000 C 
ATOM     18  C   UNL     1       3.244  -0.482   1.315  0.00  0.00    +0.000 C 
ENDBRANCH   1  16
BRANCH   3  19
ATOM     19  C   UNL     1       4.322  -0.349  -4.668  0.00  0.00    +0.000 C 
BRANCH  19  20
ATOM     20  C   UNL     1       3.313   0.005  -5.724  0.00  0.00    +0.000 A 
ATOM     21  C   UNL     1       2.833   1.306  -5.887  0.00  0.00    +0.000 A 
ATOM     22  C   UNL     1       1.983   1.604  -6.955  0.00  0.00    +0.000 A 
ATOM     23  C   UNL     1       1.623   0.593  -7.834  0.00  0.00    +0.000 A 
ATOM     24  N   UNL     1       2.044  -0.685  -7.674  0.00  0.00    +0.000 NA
ATOM     25  C   UNL     1       2.865  -0.951  -6.627  0.00  0.00    +0.000 A 
BRANCH  23  26
ATOM     26  C   UNL     1       0.791   0.898  -9.061  0.00  0.00    +0.000 C 
BRANCH  26  27
ATOM     27  C   UNL     1      -0.510   0.096  -9.091  0.00  0.00    +0.000 C 
BRANCH  27  28
ATOM     28  N   UNL     1      -1.323   0.443 -10.262  0.00  0.00    +0.000 NA
ATOM     29  H   UNL     1      -1.617   1.416 -10.202  0.00  0.00    +0.000 HD
ATOM     30  H   UNL     1      -2.176  -0.115 -10.247  0.00  0.00    +0.000 HD
ENDBRANCH  27  28
ENDBRANCH  26  27
ENDBRANCH  23  26
ENDBRANCH  19  20
ENDBRANCH   3  19
TORSDOF 7
