REMARK  Name = 
REMARK  7 active torsions:
REMARK  status: ('A' for Active; 'I' for Inactive)
REMARK    1  A    between atoms: C_2  and  C_3
REMARK    2  A    between atoms: C_3  and  N_4
REMARK    3  A    between atoms: C_3  and  C_21
REMARK    4  A    between atoms: C_5  and  C_7
REMARK    5  A    between atoms: C_10  and  C_11
REMARK    6  A    between atoms: C_11  and  N_12
REMARK    7  A    between atoms: C_13  and  C_15
REMARK                            x       y       z     vdW  Elec       q    Type
REMARK                         _______ _______ _______ _____ _____    ______ ____
ROOT
ATOM      1  N   UNL     1       2.188  -1.751  -1.153  0.00  0.00    +0.000 N 
ATOM      2  C   UNL     1       1.575  -0.525  -1.196  0.00  0.00    +0.000 C 
ATOM      3  O   UNL     1       2.210   0.526  -1.235  0.00  0.00    +0.000 OA
ATOM      4  H   UNL     1       1.653  -2.611  -1.233  0.00  0.00    +0.000 HD
ENDROOT
BRANCH   2   5
ATOM      5  C   UNL     1       0.056  -0.524  -1.173  0.00  0.00    +0.000 C 
ATOM      6  C   UNL     1      -0.534  -1.147   0.085  0.00  0.00    +0.000 C 
ATOM      7  C   UNL     1      -1.935  -1.611  -0.310  0.00  0.00    +0.000 C 
ATOM      8  C   UNL     1      -1.995  -1.622  -1.850  0.00  0.00    +0.000 C 
ATOM      9  C   UNL     1      -0.561  -1.337  -2.305  0.00  0.00    +0.000 C 
BRANCH   8  10
ATOM     10  C   UNL     1      -3.006  -0.594  -2.381  0.00  0.00    +0.000 C 
BRANCH  10  11
ATOM     11  N   UNL     1      -3.111  -0.607  -3.828  0.00  0.00    +0.000 N 
ATOM     12  C   UNL     1      -3.955  -1.464  -4.497  0.00  0.00    +0.000 C 
ATOM     13  O   UNL     1      -4.681  -2.265  -3.915  0.00  0.00    +0.000 OA
ATOM     14  H   UNL     1      -2.557   0.050  -4.356  0.00  0.00    +0.000 HD
BRANCH  12  15
ATOM     15  C   UNL     1      -3.928  -1.366  -5.933  0.00  0.00    +0.000 A 
ATOM     16  C   UNL     1      -3.215  -0.592  -6.829  0.00  0.00    +0.000 A 
ATOM     17  C   UNL     1      -3.653  -1.004  -8.102  0.00  0.00    +0.000 A 
ATOM     18  N   UNL     1      -4.576  -1.963  -8.034  0.00  0.00    +0.000 NA
ATOM     19  N   UNL     1      -4.727  -2.162  -6.713  0.00  0.00    +0.000 N 
ATOM     20  H   UNL     1      -5.388  -2.863  -6.391  0.00  0.00    +0.000 HD
ENDBRANCH  12  15
ENDBRANCH  10  11
ENDBRANCH   8  10
ENDBRANCH   2   5
BRANCH   1  21
ATOM     21  C   UNL     1       3.630  -1.865  -1.207  0.00  0.00    +0.000 C 
BRANCH  21  22
ATOM     22  C   UNL     1       4.081  -1.932  -2.652  0.00  0.00    +0.000 A 
ATOM     23  C   UNL     1       4.946  -1.001  -3.208  0.00  0.00    +0.000 A 
ATOM     24  S   UNL     1       5.342  -1.328  -4.836  0.00  0.00    +0.000 S 
ATOM     25  C   UNL     1       4.368  -2.723  -4.856  0.00  0.00    +0.000 A 
ATOM     26  N   UNL     1       4.280  -3.506  -5.963  0.00  0.00    +0.000 NA
ATOM     27  C   UNL     1       3.536  -4.553  -5.816  0.00  0.00    +0.000 A 
ATOM     28  N   UNL     1       2.850  -4.871  -4.669  0.00  0.00    +0.000 N 
ATOM     29  C   UNL     1       2.832  -4.057  -3.558  0.00  0.00    +0.000 A 
ATOM     30  O   UNL     1       2.095  -4.258  -2.598  0.00  0.00    +0.000 OA
ATOM     31  C   UNL     1       3.727  -2.917  -3.648  0.00  0.00    +0.000 A 
ATOM     32  H   UNL     1       2.258  -5.690  -4.641  0.00  0.00    +0.000 HD
ENDBRANCH  21  22
BRANCH  21  34
ATOM     33  N   UNL     1       4.540  -3.905   0.204  0.00  0.00    +0.000 NA
ATOM     34  C   UNL     1       4.138  -3.019  -0.427  0.00  0.00    +0.000 C 
ENDBRANCH  21  34
ENDBRANCH   1  21
TORSDOF 7
