REMARK  Name = 
REMARK  6 active torsions:
REMARK  status: ('A' for Active; 'I' for Inactive)
REMARK    1  A    between atoms: C_2  and  C_19
REMARK    2  A    between atoms: N_3  and  C_4
REMARK    3  A    between atoms: C_4  and  C_5
REMARK    4  A    between atoms: C_8  and  C_9
REMARK    5  A    between atoms: C_9  and  O_10
REMARK    6  A    between atoms: O_10  and  C_11
REMARK                            x       y       z     vdW  Elec       q    Type
REMARK                         _______ _______ _______ _____ _____    ______ ____
ROOT
ATOM      1  O   UNL     1       0.198  -0.330  -0.638  0.00  0.00    +0.000 OA
ATOM      2  C   UNL     1       0.075  -0.887  -1.722  0.00  0.00    +0.000 C 
ATOM      3  N   UNL     1       1.055  -1.641  -2.326  0.00  0.00    +0.000 N 
ATOM      4  H   UNL     1       0.789  -2.245  -3.089  0.00  0.00    +0.000 HD
ENDROOT
BRANCH   2   5
ATOM      5  C   UNL     1      -1.192  -1.006  -2.429  0.00  0.00    +0.000 A 
ATOM      6  C   UNL     1      -2.394  -1.235  -1.785  0.00  0.00    +0.000 A 
ATOM      7  S   UNL     1      -3.571  -1.877  -2.861  0.00  0.00    +0.000 S 
ATOM      8  C   UNL     1      -2.524  -1.710  -4.197  0.00  0.00    +0.000 A 
ATOM      9  N   UNL     1      -2.817  -2.207  -5.428  0.00  0.00    +0.000 NA
ATOM     10  C   UNL     1      -1.927  -1.945  -6.331  0.00  0.00    +0.000 A 
ATOM     11  N   UNL     1      -0.800  -1.184  -6.129  0.00  0.00    +0.000 N 
ATOM     12  C   UNL     1      -0.478  -0.640  -4.911  0.00  0.00    +0.000 A 
ATOM     13  O   UNL     1       0.473   0.122  -4.769  0.00  0.00    +0.000 OA
ATOM     14  C   UNL     1      -1.374  -1.036  -3.848  0.00  0.00    +0.000 A 
ATOM     15  H   UNL     1      -0.195  -0.934  -6.898  0.00  0.00    +0.000 HD
ENDBRANCH   2   5
BRANCH   3  16
ATOM     16  C   UNL     1       2.276  -2.017  -1.648  0.00  0.00    +0.000 C 
BRANCH  16  17
ATOM     17  C   UNL     1       3.211  -2.775  -2.569  0.00  0.00    +0.000 A 
ATOM     18  N   UNL     1       4.140  -2.076  -3.249  0.00  0.00    +0.000 NA
ATOM     19  C   UNL     1       4.929  -2.774  -4.090  0.00  0.00    +0.000 A 
ATOM     20  C   UNL     1       4.816  -4.131  -4.301  0.00  0.00    +0.000 A 
ATOM     21  C   UNL     1       3.824  -4.750  -3.571  0.00  0.00    +0.000 A 
ATOM     22  N   UNL     1       2.995  -4.100  -2.727  0.00  0.00    +0.000 NA
BRANCH  20  23
ATOM     23  C   UNL     1       5.720  -4.882  -5.228  0.00  0.00    +0.000 C 
BRANCH  23  24
ATOM     24  O   UNL     1       6.873  -5.295  -4.506  0.00  0.00    +0.000 OA
BRANCH  24  25
ATOM     25  C   UNL     1       7.785  -5.914  -5.334  0.00  0.00    +0.000 A 
ATOM     26  N   UNL     1       9.058  -5.862  -4.920  0.00  0.00    +0.000 NA
ATOM     27  C   UNL     1       9.960  -6.461  -5.718  0.00  0.00    +0.000 A 
ATOM     28  C   UNL     1       9.633  -7.109  -6.886  0.00  0.00    +0.000 A 
ATOM     29  C   UNL     1       8.298  -7.116  -7.205  0.00  0.00    +0.000 A 
ATOM     30  N   UNL     1       7.350  -6.521  -6.453  0.00  0.00    +0.000 NA
ENDBRANCH  24  25
ENDBRANCH  23  24
ENDBRANCH  20  23
ENDBRANCH  16  17
ENDBRANCH   3  16
TORSDOF 6
