REMARK  Name = 
REMARK  10 active torsions:
REMARK  status: ('A' for Active; 'I' for Inactive)
REMARK    1  A    between atoms: N_1  and  C_2
REMARK    2  A    between atoms: C_2  and  C_3
REMARK    3  A    between atoms: C_2  and  C_20
REMARK    4  A    between atoms: C_3  and  C_4
REMARK    5  A    between atoms: C_7  and  C_8
REMARK    6  A    between atoms: C_8  and  O_9
REMARK    7  A    between atoms: C_8  and  C_10
REMARK    8  A    between atoms: C_10  and  C_11
REMARK    9  A    between atoms: C_11  and  C_12
REMARK   10  A    between atoms: C_20  and  C_22
REMARK                            x       y       z     vdW  Elec       q    Type
REMARK                         _______ _______ _______ _____ _____    ______ ____
ROOT
ATOM      1  C   UNL     1       0.989   0.059   0.023  0.00  0.00    +0.000 C 
ENDROOT
BRANCH   1   2
ATOM      2  C   UNL     1       0.478  -1.332   0.321  0.00  0.00    +0.000 A 
ATOM      3  C   UNL     1       1.378  -2.352   0.639  0.00  0.00    +0.000 A 
ATOM      4  C   UNL     1       0.928  -3.658   0.839  0.00  0.00    +0.000 A 
ATOM      5  C   UNL     1      -0.433  -3.978   0.723  0.00  0.00    +0.000 A 
ATOM      6  C   UNL     1      -1.338  -2.945   0.435  0.00  0.00    +0.000 A 
ATOM      7  C   UNL     1      -0.887  -1.636   0.235  0.00  0.00    +0.000 A 
BRANCH   5   8
ATOM      8  C   UNL     1      -0.875  -5.418   0.898  0.00  0.00    +0.000 C 
BRANCH   8   9
ATOM      9  O   UNL     1      -1.716  -5.535   2.048  0.00  0.00    +0.000 OA
ATOM     10  H   UNL     1      -2.296  -4.757   2.078  0.00  0.00    +0.000 HD
ENDBRANCH   8   9
BRANCH   8  11
ATOM     11  C   UNL     1      -1.636  -6.006  -0.297  0.00  0.00    +0.000 C 
BRANCH  11  12
ATOM     12  C   UNL     1      -0.810  -6.068  -1.585  0.00  0.00    +0.000 C 
BRANCH  12  13
ATOM     13  C   UNL     1      -1.549  -6.623  -2.784  0.00  0.00    +0.000 A 
ATOM     14  C   UNL     1      -1.190  -6.183  -4.058  0.00  0.00    +0.000 A 
ATOM     15  C   UNL     1      -1.861  -6.661  -5.174  0.00  0.00    +0.000 A 
ATOM     16  N   UNL     1      -2.847  -7.573  -5.110  0.00  0.00    +0.000 NA
ATOM     17  C   UNL     1      -3.152  -8.032  -3.877  0.00  0.00    +0.000 A 
ATOM     18  C   UNL     1      -2.541  -7.599  -2.705  0.00  0.00    +0.000 A 
ENDBRANCH  12  13
ENDBRANCH  11  12
ENDBRANCH   8  11
ENDBRANCH   5   8
ENDBRANCH   1   2
BRANCH   1  19
ATOM     19  C   UNL     1       1.156   0.304  -1.487  0.00  0.00    +0.000 C 
BRANCH  19  20
ATOM     20  N   UNL     1       1.545   1.715  -1.728  0.00  0.00    +0.000 NA
ATOM     21  H   UNL     1       1.455   1.899  -2.731  0.00  0.00    +0.000 HD
ATOM     22  H   UNL     1       2.547   1.801  -1.527  0.00  0.00    +0.000 HD
ENDBRANCH  19  20
BRANCH  19  23
ATOM     23  C   UNL     1       2.241  -0.615  -2.092  0.00  0.00    +0.000 C 
ATOM     24  O   UNL     1       3.417  -0.483  -1.732  0.00  0.00    +0.000 OA
BRANCH  23  25
ATOM     25  C   UNL     1       1.888  -1.673  -3.050  0.00  0.00    +0.000 A 
ATOM     26  C   UNL     1       2.656  -2.825  -3.134  0.00  0.00    +0.000 A 
ATOM     27  S   UNL     1       2.059  -3.959  -4.258  0.00  0.00    +0.000 S 
ATOM     28  C   UNL     1       0.736  -2.958  -4.646  0.00  0.00    +0.000 A 
ATOM     29  N   UNL     1      -0.245  -3.370  -5.495  0.00  0.00    +0.000 NA
ATOM     30  C   UNL     1      -1.217  -2.535  -5.636  0.00  0.00    +0.000 A 
ATOM     31  N   UNL     1      -1.261  -1.286  -5.067  0.00  0.00    +0.000 N 
ATOM     32  C   UNL     1      -0.191  -0.761  -4.386  0.00  0.00    +0.000 A 
ATOM     33  O   UNL     1      -0.082   0.443  -4.185  0.00  0.00    +0.000 OA
ATOM     34  C   UNL     1       0.809  -1.737  -4.003  0.00  0.00    +0.000 A 
ATOM     35  H   UNL     1      -1.989  -0.635  -5.325  0.00  0.00    +0.000 HD
ENDBRANCH  23  25
ENDBRANCH  19  23
ENDBRANCH   1  19
TORSDOF 10
