REMARK  Name = 
REMARK  6 active torsions:
REMARK  status: ('A' for Active; 'I' for Inactive)
REMARK    1  A    between atoms: C_1  and  O_2
REMARK    2  A    between atoms: O_2  and  C_3
REMARK    3  A    between atoms: C_5  and  C_6
REMARK    4  A    between atoms: N_11  and  C_12
REMARK    5  A    between atoms: C_12  and  C_13
REMARK    6  A    between atoms: C_17  and  C_18
REMARK                            x       y       z     vdW  Elec       q    Type
REMARK                         _______ _______ _______ _____ _____    ______ ____
ROOT
ATOM      1  C   UNL     1       3.324   0.778   0.943  0.00  0.00    +0.000 A 
ATOM      2  C   UNL     1       2.589   1.181   2.020  0.00  0.00    +0.000 A 
ATOM      3  C   UNL     1       3.107   2.265   2.677  0.00  0.00    +0.000 A 
ATOM      4  N   UNL     1       4.245   2.913   2.317  0.00  0.00    +0.000 NA
ATOM      5  C   UNL     1       4.870   2.443   1.234  0.00  0.00    +0.000 A 
ATOM      6  N   UNL     1       6.008   3.068   0.750  0.00  0.00    +0.000 N 
ATOM      7  N   UNL     1       4.455   1.383   0.537  0.00  0.00    +0.000 NA
ATOM      8  H   UNL     1       6.459   2.420   0.113  0.00  0.00    +0.000 HD
ENDROOT
BRANCH   3   9
ATOM      9  C   UNL     1       2.391   2.801   3.875  0.00  0.00    +0.000 C 
ATOM     10  N   UNL     1       2.982   3.874   4.483  0.00  0.00    +0.000 N 
ATOM     11  O   UNL     1       1.348   2.317   4.293  0.00  0.00    +0.000 OA
ATOM     12  H   UNL     1       3.821   4.280   4.089  0.00  0.00    +0.000 HD
ATOM     13  H   UNL     1       2.531   4.306   5.278  0.00  0.00    +0.000 HD
ENDBRANCH   3   9
BRANCH   1  15
ATOM     14  C   UNL     1       3.675  -0.681  -0.852  0.00  0.00    +0.000 C 
ATOM     15  O   UNL     1       2.848  -0.318   0.251  0.00  0.00    +0.000 OA
ENDBRANCH   1  15
BRANCH   6  16
ATOM     16  C   UNL     1       6.875   3.628   1.761  0.00  0.00    +0.000 C 
BRANCH  16  17
ATOM     17  C   UNL     1       8.098   4.239   1.112  0.00  0.00    +0.000 A 
ATOM     18  C   UNL     1       8.023   5.519   0.547  0.00  0.00    +0.000 A 
ATOM     19  C   UNL     1       9.155   6.117   0.002  0.00  0.00    +0.000 A 
ATOM     20  C   UNL     1      10.379   5.448   0.031  0.00  0.00    +0.000 A 
ATOM     21  C   UNL     1      10.503   4.167   0.600  0.00  0.00    +0.000 A 
ATOM     22  C   UNL     1       9.331   3.560   1.097  0.00  0.00    +0.000 A 
BRANCH  21  23
ATOM     23  C   UNL     1      11.819   3.513   0.737  0.00  0.00    +0.000 A 
ATOM     24  C   UNL     1      12.988   4.234   1.003  0.00  0.00    +0.000 A 
ATOM     25  N   UNL     1      14.207   3.663   1.172  0.00  0.00    +0.000 NA
ATOM     26  C   UNL     1      14.223   2.319   1.072  0.00  0.00    +0.000 A 
ATOM     27  C   UNL     1      13.078   1.585   0.816  0.00  0.00    +0.000 A 
ATOM     28  N   UNL     1      11.859   2.157   0.651  0.00  0.00    +0.000 NA
ENDBRANCH  21  23
ENDBRANCH  16  17
ENDBRANCH   6  16
TORSDOF 5
