REMARK  Name = 
REMARK  6 active torsions:
REMARK  status: ('A' for Active; 'I' for Inactive)
REMARK    1  A    between atoms: C_1  and  C_2
REMARK    2  A    between atoms: C_2  and  C_3
REMARK    3  A    between atoms: C_2  and  C_4
REMARK    4  A    between atoms: C_2  and  C_18
REMARK    5  A    between atoms: C_4  and  N_5
REMARK    6  A    between atoms: C_8  and  N_9
REMARK                            x       y       z     vdW  Elec       q    Type
REMARK                         _______ _______ _______ _____ _____    ______ ____
ROOT
ATOM      1  N   UNL     1       2.511  -1.932   1.587  0.00  0.00    +0.000 N 
ATOM      2  C   UNL     1       2.876  -3.281   1.782  0.00  0.00    +0.000 A 
ATOM      3  C   UNL     1       2.191  -4.016   2.748  0.00  0.00    +0.000 A 
ATOM      4  C   UNL     1       2.502  -5.358   2.998  0.00  0.00    +0.000 A 
ATOM      5  C   UNL     1       3.581  -5.884   2.293  0.00  0.00    +0.000 A 
ATOM      6  C   UNL     1       4.248  -5.086   1.378  0.00  0.00    +0.000 A 
ATOM      7  N   UNL     1       3.911  -3.810   1.104  0.00  0.00    +0.000 NA
ATOM      8  H   UNL     1       1.506  -1.833   1.708  0.00  0.00    +0.000 HD
ENDROOT
BRANCH   4   9
ATOM      9  N   UNL     1       1.778  -6.106   3.899  0.00  0.00    +0.000 N 
ATOM     10  C   UNL     1       0.327  -5.944   4.079  0.00  0.00    +0.000 C 
ATOM     11  C   UNL     1       0.022  -5.763   5.571  0.00  0.00    +0.000 C 
ATOM     12  O   UNL     1       0.537  -6.863   6.344  0.00  0.00    +0.000 OA
ATOM     13  C   UNL     1       1.963  -6.967   6.180  0.00  0.00    +0.000 C 
ATOM     14  C   UNL     1       2.361  -7.184   4.708  0.00  0.00    +0.000 C 
ENDBRANCH   4   9
BRANCH   1  15
ATOM     15  C   UNL     1       2.917  -1.423   0.272  0.00  0.00    +0.000 C 
BRANCH  15  17
ATOM     16  C   UNL     1       3.419   0.918   1.041  0.00  0.00    +0.000 C 
ATOM     17  C   UNL     1       2.536   0.079   0.085  0.00  0.00    +0.000 C 
ATOM     18  C   UNL     1       2.935   0.482  -1.357  0.00  0.00    +0.000 C 
BRANCH  17  19
ATOM     19  C   UNL     1       1.024   0.333   0.269  0.00  0.00    +0.000 A 
ATOM     20  C   UNL     1       0.524   1.243   1.217  0.00  0.00    +0.000 A 
ATOM     21  C   UNL     1      -0.846   1.484   1.350  0.00  0.00    +0.000 A 
ATOM     22  C   UNL     1      -1.754   0.815   0.537  0.00  0.00    +0.000 A 
ATOM     23  C   UNL     1      -1.291  -0.099  -0.403  0.00  0.00    +0.000 A 
ATOM     24  C   UNL     1       0.081  -0.342  -0.533  0.00  0.00    +0.000 A 
ENDBRANCH  17  19
ENDBRANCH  15  17
ENDBRANCH   1  15
TORSDOF 4
