REMARK  Name = 
REMARK  3 active torsions:
REMARK  status: ('A' for Active; 'I' for Inactive)
REMARK    1  A    between atoms: C_2  and  C_4
REMARK    2  A    between atoms: N_8  and  C_9
REMARK    3  A    between atoms: C_9  and  C_10
REMARK                            x       y       z     vdW  Elec       q    Type
REMARK                         _______ _______ _______ _____ _____    ______ ____
ROOT
ATOM      1  C   UNL     1       2.977   1.480   0.130  0.00  0.00    +0.000 A 
ATOM      2  C   UNL     1       4.273   1.316  -0.346  0.00  0.00    +0.000 A 
ATOM      3  C   UNL     1       5.071   2.443  -0.531  0.00  0.00    +0.000 A 
ATOM      4  C   UNL     1       4.574   3.709  -0.218  0.00  0.00    +0.000 A 
ATOM      5  N   UNL     1       5.462   4.772  -0.267  0.00  0.00    +0.000 N 
ATOM      6  N   UNL     1       3.310   3.879   0.215  0.00  0.00    +0.000 NA
ATOM      7  C   UNL     1       2.533   2.773   0.360  0.00  0.00    +0.000 A 
ATOM      8  H   UNL     1       5.941   4.853  -1.155  0.00  0.00    +0.000 HD
ENDROOT
BRANCH   1  10
ATOM      9  N   UNL     1       2.658  -0.840   0.765  0.00  0.00    +0.000 N 
ATOM     10  C   UNL     1       2.075   0.346   0.410  0.00  0.00    +0.000 C 
ATOM     11  O   UNL     1       0.859   0.473   0.377  0.00  0.00    +0.000 OA
ATOM     12  H   UNL     1       2.030  -1.572   1.074  0.00  0.00    +0.000 HD
ATOM     13  H   UNL     1       3.623  -0.904   1.058  0.00  0.00    +0.000 HD
ENDBRANCH   1  10
BRANCH   5  14
ATOM     14  C   UNL     1       5.086   6.040   0.325  0.00  0.00    +0.000 C 
BRANCH  14  15
ATOM     15  C   UNL     1       6.276   6.506   1.129  0.00  0.00    +0.000 A 
ATOM     16  C   UNL     1       7.218   7.392   0.603  0.00  0.00    +0.000 A 
ATOM     17  C   UNL     1       8.331   7.704   1.371  0.00  0.00    +0.000 A 
ATOM     18  N   UNL     1       8.566   7.201   2.602  0.00  0.00    +0.000 NA
ATOM     19  C   UNL     1       7.648   6.340   3.088  0.00  0.00    +0.000 A 
ATOM     20  C   UNL     1       6.506   5.967   2.401  0.00  0.00    +0.000 A 
ENDBRANCH  14  15
ENDBRANCH   5  14
TORSDOF 3
