REMARK  Name = 
REMARK  4 active torsions:
REMARK  status: ('A' for Active; 'I' for Inactive)
REMARK    1  A    between atoms: C_2  and  C_4
REMARK    2  A    between atoms: C_7  and  C_8
REMARK    3  A    between atoms: C_12  and  C_13
REMARK    4  A    between atoms: C_13  and  N_14
REMARK                            x       y       z     vdW  Elec       q    Type
REMARK                         _______ _______ _______ _____ _____    ______ ____
ROOT
ATOM      1  C   UNL     1       5.578  -3.864   2.813  0.00  0.00    +0.000 A 
ATOM      2  N   UNL     1       5.761  -3.747   4.140  0.00  0.00    +0.000 NA
ATOM      3  C   UNL     1       6.569  -4.659   4.709  0.00  0.00    +0.000 A 
ATOM      4  C   UNL     1       7.211  -5.653   4.007  0.00  0.00    +0.000 A 
ATOM      5  C   UNL     1       6.997  -5.687   2.641  0.00  0.00    +0.000 A 
ATOM      6  N   UNL     1       6.155  -4.807   2.053  0.00  0.00    +0.000 NA
ENDROOT
BRANCH   1  10
ATOM      7  C   UNL     1       3.186  -1.077   0.712  0.00  0.00    +0.000 A 
ATOM      8  C   UNL     1       3.430  -0.834   2.055  0.00  0.00    +0.000 A 
ATOM      9  C   UNL     1       4.210  -1.751   2.762  0.00  0.00    +0.000 A 
ATOM     10  C   UNL     1       4.736  -2.883   2.123  0.00  0.00    +0.000 A 
ATOM     11  C   UNL     1       4.425  -3.018   0.764  0.00  0.00    +0.000 A 
ATOM     12  N   UNL     1       3.663  -2.157   0.040  0.00  0.00    +0.000 NA
BRANCH   7  14
ATOM     13  N   UNL     1       2.101  -0.477  -1.371  0.00  0.00    +0.000 N 
ATOM     14  C   UNL     1       2.341  -0.121  -0.074  0.00  0.00    +0.000 C 
ATOM     15  O   UNL     1       1.883   0.907   0.410  0.00  0.00    +0.000 OA
ATOM     16  H   UNL     1       1.514   0.109  -1.946  0.00  0.00    +0.000 HD
ATOM     17  H   UNL     1       2.469  -1.352  -1.728  0.00  0.00    +0.000 HD
ENDBRANCH   7  14
ENDBRANCH   1  10
BRANCH   5  18
ATOM     18  C   UNL     1       7.726  -6.679   1.726  0.00  0.00    +0.000 C 
ATOM     19  C   UNL     1       9.206  -6.458   1.479  0.00  0.00    +0.000 C 
ATOM     20  C   UNL     1       8.238  -6.106   0.402  0.00  0.00    +0.000 C 
BRANCH  18  21
ATOM     21  N   UNL     1       7.058  -7.988   1.592  0.00  0.00    +0.000 N 
ATOM     22  C   UNL     1       7.227  -9.048   2.485  0.00  0.00    +0.000 A 
ATOM     23  C   UNL     1       8.465  -9.408   3.010  0.00  0.00    +0.000 A 
ATOM     24  C   UNL     1       8.570 -10.552   3.802  0.00  0.00    +0.000 A 
ATOM     25  C   UNL     1       7.432 -11.297   4.051  0.00  0.00    +0.000 A 
ATOM     26  F   UNL     1       7.498 -12.409   4.793  0.00  0.00    +0.000 F 
ATOM     27  C   UNL     1       6.235 -10.874   3.512  0.00  0.00    +0.000 A 
ATOM     28  N   UNL     1       6.112  -9.770   2.735  0.00  0.00    +0.000 NA
ATOM     29  H   UNL     1       6.056  -7.938   1.403  0.00  0.00    +0.000 HD
ENDBRANCH  18  21
ENDBRANCH   5  18
TORSDOF 4
