REMARK  Name = 
REMARK  6 active torsions:
REMARK  status: ('A' for Active; 'I' for Inactive)
REMARK    1  A    between atoms: C_2  and  C_25
REMARK    2  A    between atoms: N_3  and  C_4
REMARK    3  A    between atoms: C_4  and  C_5
REMARK    4  A    between atoms: C_8  and  C_9
REMARK    5  A    between atoms: C_9  and  N_10
REMARK    6  A    between atoms: C_11  and  C_13
REMARK                            x       y       z     vdW  Elec       q    Type
REMARK                         _______ _______ _______ _____ _____    ______ ____
ROOT
ATOM      1  C   UNL     1       3.258  -0.465   3.698  0.00  0.00    +0.000 A 
ATOM      2  C   UNL     1       3.747   0.708   4.286  0.00  0.00    +0.000 A 
ATOM      3  C   UNL     1       4.580   0.657   5.413  0.00  0.00    +0.000 A 
ATOM      4  C   UNL     1       4.964  -0.571   5.973  0.00  0.00    +0.000 A 
ATOM      5  C   UNL     1       4.464  -1.743   5.385  0.00  0.00    +0.000 A 
ATOM      6  C   UNL     1       3.637  -1.693   4.252  0.00  0.00    +0.000 A 
ENDROOT
BRANCH   1   7
ATOM      7  C   UNL     1       2.319  -0.387   2.521  0.00  0.00    +0.000 C 
BRANCH   7  10
ATOM      8  O   UNL     1       1.055  -0.251   0.048  0.00  0.00    +0.000 OA
ATOM      9  C   UNL     1       2.280  -0.294   0.082  0.00  0.00    +0.000 C 
ATOM     10  N   UNL     1       3.007  -0.375   1.253  0.00  0.00    +0.000 N 
ATOM     11  H   UNL     1       4.000  -0.180   1.240  0.00  0.00    +0.000 HD
BRANCH   9  12
ATOM     12  C   UNL     1       3.068  -0.213  -1.175  0.00  0.00    +0.000 A 
ATOM     13  C   UNL     1       2.544   0.519  -2.248  0.00  0.00    +0.000 A 
ATOM     14  C   UNL     1       3.270   0.639  -3.434  0.00  0.00    +0.000 A 
ATOM     15  C   UNL     1       4.514   0.020  -3.554  0.00  0.00    +0.000 A 
ATOM     16  C   UNL     1       5.027  -0.734  -2.498  0.00  0.00    +0.000 A 
ATOM     17  C   UNL     1       4.302  -0.860  -1.311  0.00  0.00    +0.000 A 
ENDBRANCH   9  12
ENDBRANCH   7  10
ENDBRANCH   1   7
BRANCH   4  18
ATOM     18  C   UNL     1       5.914  -0.666   7.152  0.00  0.00    +0.000 C 
BRANCH  18  19
ATOM     19  N   UNL     1       5.257  -0.683   8.433  0.00  0.00    +0.000 N 
ATOM     20  C   UNL     1       5.969  -0.758   9.627  0.00  0.00    +0.000 C 
ATOM     21  O   UNL     1       7.186  -0.841   9.655  0.00  0.00    +0.000 OA
ATOM     22  H   UNL     1       4.256  -0.824   8.503  0.00  0.00    +0.000 HD
BRANCH  20  23
ATOM     23  C   UNL     1       5.114  -0.730  10.839  0.00  0.00    +0.000 A 
ATOM     24  N   UNL     1       3.765  -0.615  10.753  0.00  0.00    +0.000 NA
ATOM     25  N   UNL     1       3.345  -0.598  12.040  0.00  0.00    +0.000 N 
ATOM     26  C   UNL     1       4.357  -0.697  12.939  0.00  0.00    +0.000 A 
ATOM     27  N   UNL     1       4.220  -0.696  14.291  0.00  0.00    +0.000 NA
ATOM     28  C   UNL     1       5.361  -0.770  14.908  0.00  0.00    +0.000 A 
ATOM     29  N   UNL     1       6.591  -0.855  14.286  0.00  0.00    +0.000 N 
ATOM     30  C   UNL     1       6.755  -0.910  12.910  0.00  0.00    +0.000 A 
ATOM     31  O   UNL     1       7.853  -1.055  12.400  0.00  0.00    +0.000 OA
ATOM     32  C   UNL     1       5.511  -0.790  12.199  0.00  0.00    +0.000 A 
ATOM     33  H   UNL     1       2.355  -0.512  12.237  0.00  0.00    +0.000 HD
ATOM     34  H   UNL     1       7.439  -0.930  14.827  0.00  0.00    +0.000 HD
ENDBRANCH  20  23
ENDBRANCH  18  19
ENDBRANCH   4  18
TORSDOF 6
