REMARK  Name = 
REMARK  11 active torsions:
REMARK  status: ('A' for Active; 'I' for Inactive)
REMARK    1  A    between atoms: N_1  and  C_2
REMARK    2  A    between atoms: C_2  and  C_3
REMARK    3  A    between atoms: C_3  and  C_4
REMARK    4  A    between atoms: C_4  and  N_5
REMARK    5  A    between atoms: C_4  and  C_23
REMARK    6  A    between atoms: N_5  and  C_6
REMARK    7  A    between atoms: C_6  and  C_7
REMARK    8  A    between atoms: C_10  and  C_11
REMARK    9  A    between atoms: C_11  and  O_12
REMARK   10  A    between atoms: C_11  and  C_13
REMARK   11  A    between atoms: C_13  and  N_14
REMARK                            x       y       z     vdW  Elec       q    Type
REMARK                         _______ _______ _______ _____ _____    ______ ____
ROOT
ATOM      1  N   UNL     1       3.487   1.599   1.311  0.00  0.00    +0.000 NA
ATOM      2  H   UNL     1       3.361   1.502   0.302  0.00  0.00    +0.000 HD
ENDROOT
BRANCH   1   3
ATOM      3  C   UNL     1       4.920   1.389   1.627  0.00  0.00    +0.000 C 
BRANCH   3   4
ATOM      4  C   UNL     1       5.742   2.596   1.168  0.00  0.00    +0.000 A 
ATOM      5  C   UNL     1       6.619   3.241   2.031  0.00  0.00    +0.000 A 
ATOM      6  S   UNL     1       7.460   4.544   1.325  0.00  0.00    +0.000 S 
ATOM      7  C   UNL     1       6.634   4.348  -0.147  0.00  0.00    +0.000 A 
ATOM      8  N   UNL     1       6.828   5.222  -1.168  0.00  0.00    +0.000 NA
ATOM      9  C   UNL     1       6.136   4.959  -2.228  0.00  0.00    +0.000 A 
ATOM     10  N   UNL     1       5.305   3.876  -2.369  0.00  0.00    +0.000 N 
ATOM     11  C   UNL     1       5.118   2.933  -1.376  0.00  0.00    +0.000 A 
ATOM     12  O   UNL     1       4.445   1.922  -1.567  0.00  0.00    +0.000 OA
ATOM     13  C   UNL     1       5.800   3.239  -0.131  0.00  0.00    +0.000 A 
ATOM     14  H   UNL     1       4.836   3.707  -3.245  0.00  0.00    +0.000 HD
ENDBRANCH   3   4
BRANCH   3  15
ATOM     15  C   UNL     1       5.499   0.045   1.124  0.00  0.00    +0.000 C 
BRANCH  15  16
ATOM     16  C   UNL     1       6.917  -0.220   1.641  0.00  0.00    +0.000 C 
BRANCH  16  17
ATOM     17  N   UNL     1       7.354  -1.561   1.259  0.00  0.00    +0.000 NA
ATOM     18  H   UNL     1       8.290  -1.731   1.628  0.00  0.00    +0.000 HD
ATOM     19  H   UNL     1       7.435  -1.620   0.244  0.00  0.00    +0.000 HD
ENDBRANCH  16  17
ENDBRANCH  15  16
ENDBRANCH   3  15
ENDBRANCH   1   3
BRANCH   1  20
ATOM     20  C   UNL     1       2.637   0.604   2.013  0.00  0.00    +0.000 C 
BRANCH  20  21
ATOM     21  C   UNL     1       1.127   0.750   1.859  0.00  0.00    +0.000 A 
ATOM     22  C   UNL     1       0.523   0.609   0.615  0.00  0.00    +0.000 A 
ATOM     23  C   UNL     1      -0.874   0.633   0.522  0.00  0.00    +0.000 A 
ATOM     24  C   UNL     1      -1.664   0.795   1.666  0.00  0.00    +0.000 A 
ATOM     25  C   UNL     1      -0.971   0.888   2.870  0.00  0.00    +0.000 A 
ATOM     26  N   UNL     1       0.383   0.868   2.990  0.00  0.00    +0.000 NA
BRANCH  24  27
ATOM     27  C   UNL     1      -3.183   0.876   1.658  0.00  0.00    +0.000 C 
BRANCH  27  28
ATOM     28  O   UNL     1      -3.574   2.144   2.211  0.00  0.00    +0.000 OA
ATOM     29  H   UNL     1      -3.021   2.826   1.793  0.00  0.00    +0.000 HD
ENDBRANCH  27  28
BRANCH  27  30
ATOM     30  C   UNL     1      -3.829   0.729   0.258  0.00  0.00    +0.000 C 
BRANCH  30  31
ATOM     31  N   UNL     1      -5.288   0.834   0.293  0.00  0.00    +0.000 N 
ATOM     32  C   UNL     1      -5.852   0.761  -0.974  0.00  0.00    +0.000 A 
ATOM     33  N   UNL     1      -5.282  -0.018  -1.911  0.00  0.00    +0.000 NA
ATOM     34  C   UNL     1      -5.850  -0.045  -3.131  0.00  0.00    +0.000 A 
ATOM     35  C   UNL     1      -6.961   0.683  -3.456  0.00  0.00    +0.000 A 
ATOM     36  C   UNL     1      -7.475   1.453  -2.439  0.00  0.00    +0.000 A 
ATOM     37  N   UNL     1      -6.938   1.519  -1.200  0.00  0.00    +0.000 NA
ATOM     38  H   UNL     1      -5.641   1.678   0.740  0.00  0.00    +0.000 HD
ENDBRANCH  30  31
ENDBRANCH  27  30
ENDBRANCH  24  27
ENDBRANCH  20  21
ENDBRANCH   1  20
TORSDOF 11
