REMARK  Name = 
REMARK  5 active torsions:
REMARK  status: ('A' for Active; 'I' for Inactive)
REMARK    1  A    between atoms: C_2  and  C_3
REMARK    2  A    between atoms: N_7  and  C_8
REMARK    3  A    between atoms: C_8  and  C_9
REMARK    4  A    between atoms: C_9  and  O_10
REMARK    5  A    between atoms: C_9  and  C_11
REMARK                            x       y       z     vdW  Elec       q    Type
REMARK                         _______ _______ _______ _____ _____    ______ ____
ROOT
ATOM      1  C   UNL     1       0.293  -0.120  -1.465  0.00  0.00    +0.000 A 
ATOM      2  C   UNL     1      -0.470  -1.283  -1.478  0.00  0.00    +0.000 A 
ATOM      3  C   UNL     1      -1.796  -1.226  -1.053  0.00  0.00    +0.000 A 
ATOM      4  C   UNL     1      -2.344  -0.008  -0.656  0.00  0.00    +0.000 A 
ATOM      5  N   UNL     1      -3.707   0.029  -0.386  0.00  0.00    +0.000 N 
ATOM      6  N   UNL     1      -1.608   1.121  -0.627  0.00  0.00    +0.000 NA
ATOM      7  C   UNL     1      -0.312   1.043  -1.019  0.00  0.00    +0.000 A 
ATOM      8  H   UNL     1      -3.976  -0.615   0.354  0.00  0.00    +0.000 HD
ENDROOT
BRANCH   1  10
ATOM      9  N   UNL     1       2.745  -0.107  -2.292  0.00  0.00    +0.000 NA
ATOM     10  C   UNL     1       1.645  -0.113  -1.916  0.00  0.00    +0.000 C 
ENDBRANCH   1  10
BRANCH   5  11
ATOM     11  C   UNL     1      -4.321   1.350  -0.235  0.00  0.00    +0.000 C 
BRANCH  11  12
ATOM     12  C   UNL     1      -5.858   1.177  -0.261  0.00  0.00    +0.000 C 
BRANCH  12  13
ATOM     13  C   UNL     1      -6.608   2.489  -0.366  0.00  0.00    +0.000 A 
ATOM     14  C   UNL     1      -7.412   2.736  -1.492  0.00  0.00    +0.000 A 
ATOM     15  C   UNL     1      -8.124   3.930  -1.614  0.00  0.00    +0.000 A 
ATOM     16  C   UNL     1      -8.046   4.893  -0.612  0.00  0.00    +0.000 A 
ATOM     17  C   UNL     1      -7.246   4.667   0.507  0.00  0.00    +0.000 A 
ATOM     18  C   UNL     1      -6.526   3.477   0.628  0.00  0.00    +0.000 A 
ENDBRANCH  12  13
BRANCH  12  19
ATOM     19  O   UNL     1      -6.275   0.446   0.903  0.00  0.00    +0.000 OA
ATOM     20  H   UNL     1      -6.324   1.073   1.642  0.00  0.00    +0.000 HD
ENDBRANCH  12  19
ENDBRANCH  11  12
ENDBRANCH   5  11
TORSDOF 5
