REMARK  Name = 
REMARK  6 active torsions:
REMARK  status: ('A' for Active; 'I' for Inactive)
REMARK    1  A    between atoms: C_1  and  C_2
REMARK    2  A    between atoms: C_2  and  N_3
REMARK    3  A    between atoms: C_2  and  C_4
REMARK    4  A    between atoms: C_7  and  C_8
REMARK    5  A    between atoms: C_8  and  N_9
REMARK    6  A    between atoms: C_14  and  C_15
REMARK                            x       y       z     vdW  Elec       q    Type
REMARK                         _______ _______ _______ _____ _____    ______ ____
ROOT
ATOM      1  C   UNL     1       3.934  -4.988   2.660  0.00  0.00    +0.000 C 
ENDROOT
BRANCH   1   2
ATOM      2  N   UNL     1       4.680  -4.872   3.914  0.00  0.00    +0.000 N 
ATOM      3  C   UNL     1       4.098  -4.568   5.123  0.00  0.00    +0.000 A 
ATOM      4  C   UNL     1       5.062  -4.661   6.099  0.00  0.00    +0.000 A 
ATOM      5  C   UNL     1       6.280  -5.036   5.472  0.00  0.00    +0.000 A 
ATOM      6  C   UNL     1       7.577  -5.296   5.956  0.00  0.00    +0.000 A 
ATOM      7  C   UNL     1       8.588  -5.674   5.063  0.00  0.00    +0.000 A 
ATOM      8  C   UNL     1       8.314  -5.782   3.697  0.00  0.00    +0.000 A 
ATOM      9  C   UNL     1       7.030  -5.527   3.194  0.00  0.00    +0.000 A 
ATOM     10  C   UNL     1       6.022  -5.160   4.100  0.00  0.00    +0.000 A 
BRANCH   7  11
ATOM     11  C   UNL     1       9.908  -5.957   5.552  0.00  0.00    +0.000 C 
ATOM     12  N   UNL     1      10.974  -6.186   5.942  0.00  0.00    +0.000 NA
ENDBRANCH   7  11
ENDBRANCH   1   2
BRANCH   1  16
ATOM     13  C   UNL     1       3.315  -1.167   0.830  0.00  0.00    +0.000 A 
ATOM     14  C   UNL     1       4.614  -1.668   0.953  0.00  0.00    +0.000 A 
ATOM     15  C   UNL     1       4.831  -2.920   1.521  0.00  0.00    +0.000 A 
ATOM     16  C   UNL     1       3.742  -3.657   1.975  0.00  0.00    +0.000 A 
ATOM     17  N   UNL     1       2.466  -3.225   1.808  0.00  0.00    +0.000 NA
ATOM     18  C   UNL     1       2.284  -2.006   1.239  0.00  0.00    +0.000 A 
BRANCH  13  20
ATOM     19  C   UNL     1       3.663   1.269   1.293  0.00  0.00    +0.000 C 
ATOM     20  C   UNL     1       3.032   0.237   0.351  0.00  0.00    +0.000 C 
BRANCH  20  21
ATOM     21  N   UNL     1       3.502   0.448  -1.018  0.00  0.00    +0.000 NA
ATOM     22  H   UNL     1       4.516   0.358  -1.050  0.00  0.00    +0.000 HD
ATOM     23  H   UNL     1       3.305   1.410  -1.295  0.00  0.00    +0.000 HD
ENDBRANCH  20  21
ENDBRANCH  13  20
ENDBRANCH   1  16
TORSDOF 5
