REMARK  Name = 
REMARK  5 active torsions:
REMARK  status: ('A' for Active; 'I' for Inactive)
REMARK    1  A    between atoms: C_1  and  C_2
REMARK    2  A    between atoms: C_5  and  O_6
REMARK    3  A    between atoms: O_6  and  C_7
REMARK    4  A    between atoms: C_7  and  C_8
REMARK    5  A    between atoms: C_11  and  C_12
REMARK                            x       y       z     vdW  Elec       q    Type
REMARK                         _______ _______ _______ _____ _____    ______ ____
ROOT
ATOM      1  C   UNL     1      -3.195  -2.333   0.443  0.00  0.00    +0.000 A 
ATOM      2  N   UNL     1      -3.399  -2.752   1.727  0.00  0.00    +0.000 NA
ATOM      3  C   UNL     1      -3.101  -4.043   2.020  0.00  0.00    +0.000 A 
ATOM      4  C   UNL     1      -2.634  -4.952   1.080  0.00  0.00    +0.000 A 
ATOM      5  C   UNL     1      -2.347  -4.490  -0.202  0.00  0.00    +0.000 A 
ATOM      6  C   UNL     1      -2.622  -3.163  -0.527  0.00  0.00    +0.000 A 
ATOM      7 CL   UNL     1      -2.301  -2.644  -2.139  0.00  0.00    +0.000 Cl
ENDROOT
BRANCH   4   8
ATOM      8  C   UNL     1      -2.515  -6.372   1.455  0.00  0.00    +0.000 C 
ATOM      9  N   UNL     1      -2.720  -7.295   0.464  0.00  0.00    +0.000 N 
ATOM     10  O   UNL     1      -2.314  -6.712   2.615  0.00  0.00    +0.000 OA
ATOM     11  H   UNL     1      -3.128  -7.056  -0.432  0.00  0.00    +0.000 HD
ATOM     12  H   UNL     1      -2.786  -8.262   0.755  0.00  0.00    +0.000 HD
ENDBRANCH   4   8
BRANCH   1  13
ATOM     13  C   UNL     1      -3.734  -0.964   0.094  0.00  0.00    +0.000 C 
BRANCH  13  14
ATOM     14  O   UNL     1      -2.687  -0.066  -0.282  0.00  0.00    +0.000 OA
BRANCH  14  19
ATOM     15  C   UNL     1      -2.019   4.752   2.509  0.00  0.00    +0.000 C 
ATOM     16  C   UNL     1      -2.195   3.433   1.818  0.00  0.00    +0.000 A 
ATOM     17  C   UNL     1      -2.546   2.299   2.544  0.00  0.00    +0.000 A 
ATOM     18  C   UNL     1      -2.723   1.091   1.868  0.00  0.00    +0.000 A 
ATOM     19  C   UNL     1      -2.548   1.047   0.491  0.00  0.00    +0.000 A 
ATOM     20  C   UNL     1      -2.138   2.212  -0.141  0.00  0.00    +0.000 A 
ATOM     21  N   UNL     1      -1.965   3.401   0.485  0.00  0.00    +0.000 NA
ENDBRANCH  14  19
ENDBRANCH  13  14
ENDBRANCH   1  13
TORSDOF 4
