REMARK  Name = 
REMARK  7 active torsions:
REMARK  status: ('A' for Active; 'I' for Inactive)
REMARK    1  A    between atoms: C_1  and  C_2
REMARK    2  A    between atoms: C_2  and  C_3
REMARK    3  A    between atoms: C_2  and  C_4
REMARK    4  A    between atoms: C_2  and  C_5
REMARK    5  A    between atoms: C_9  and  C_10
REMARK    6  A    between atoms: N_16  and  C_17
REMARK    7  A    between atoms: C_17  and  C_18
REMARK                            x       y       z     vdW  Elec       q    Type
REMARK                         _______ _______ _______ _____ _____    ______ ____
ROOT
ATOM      1  C   UNL     1       3.042  -1.200  -0.707  0.00  0.00    +0.000 A 
ATOM      2  N   UNL     1       3.808  -1.214  -1.795  0.00  0.00    +0.000 NA
ATOM      3  C   UNL     1       3.904  -2.516  -2.201  0.00  0.00    +0.000 A 
ATOM      4  C   UNL     1       4.591  -3.105  -3.271  0.00  0.00    +0.000 A 
ATOM      5  C   UNL     1       4.480  -4.495  -3.414  0.00  0.00    +0.000 A 
ATOM      6  C   UNL     1       3.695  -5.200  -2.496  0.00  0.00    +0.000 A 
ATOM      7  N   UNL     1       3.019  -4.668  -1.442  0.00  0.00    +0.000 NA
ATOM      8  C   UNL     1       3.172  -3.332  -1.361  0.00  0.00    +0.000 A 
ATOM      9  N   UNL     1       2.660  -2.498  -0.393  0.00  0.00    +0.000 N 
ENDROOT
BRANCH   5  10
ATOM     10  C   UNL     1       5.152  -5.276  -4.480  0.00  0.00    +0.000 C 
ATOM     11  N   UNL     1       5.944  -4.620  -5.380  0.00  0.00    +0.000 N 
ATOM     12  O   UNL     1       5.011  -6.491  -4.560  0.00  0.00    +0.000 OA
ATOM     13  H   UNL     1       6.138  -3.632  -5.377  0.00  0.00    +0.000 HD
ATOM     14  H   UNL     1       6.401  -5.187  -6.085  0.00  0.00    +0.000 HD
ENDBRANCH   5  10
BRANCH   1  16
ATOM     15  C   UNL     1       1.306   0.599  -0.624  0.00  0.00    +0.000 C 
ATOM     16  C   UNL     1       2.631   0.103  -0.017  0.00  0.00    +0.000 C 
ATOM     17  C   UNL     1       3.715   1.176  -0.287  0.00  0.00    +0.000 C 
ATOM     18  C   UNL     1       2.494   0.012   1.508  0.00  0.00    +0.000 C 
ENDBRANCH   1  16
BRANCH   9  19
ATOM     19  C   UNL     1       1.851  -3.008   0.703  0.00  0.00    +0.000 C 
BRANCH  19  20
ATOM     20  C   UNL     1       2.641  -3.308   1.953  0.00  0.00    +0.000 A 
ATOM     21  C   UNL     1       2.080  -3.102   3.215  0.00  0.00    +0.000 A 
ATOM     22  C   UNL     1       2.811  -3.454   4.336  0.00  0.00    +0.000 A 
ATOM     23  N   UNL     1       4.043  -3.992   4.261  0.00  0.00    +0.000 NA
ATOM     24  N   UNL     1       4.597  -4.210   3.043  0.00  0.00    +0.000 NA
ATOM     25  C   UNL     1       3.905  -3.886   1.927  0.00  0.00    +0.000 A 
ENDBRANCH  19  20
ENDBRANCH   9  19
TORSDOF 4
