REMARK  Name = 
REMARK  6 active torsions:
REMARK  status: ('A' for Active; 'I' for Inactive)
REMARK    1  A    between atoms: C_2  and  C_4
REMARK    2  A    between atoms: C_7  and  N_8
REMARK    3  A    between atoms: N_8  and  C_9
REMARK    4  A    between atoms: C_9  and  C_10
REMARK    5  A    between atoms: C_10  and  C_11
REMARK    6  A    between atoms: C_14  and  C_15
REMARK                            x       y       z     vdW  Elec       q    Type
REMARK                         _______ _______ _______ _____ _____    ______ ____
ROOT
ATOM      1  C   UNL     1       5.366  -4.454   3.956  0.00  0.00    +0.000 C 
ATOM      2  C   UNL     1       5.074  -5.741   3.185  0.00  0.00    +0.000 C 
ATOM      3  C   UNL     1       3.974  -5.092   3.960  0.00  0.00    +0.000 C 
ENDROOT
BRANCH   1   4
ATOM      4  N   UNL     1       5.613  -3.229   3.142  0.00  0.00    +0.000 N 
ATOM      5  H   UNL     1       4.782  -2.687   2.903  0.00  0.00    +0.000 HD
BRANCH   4   9
ATOM      6  C   UNL     1       8.620  -2.623   0.291  0.00  0.00    +0.000 A 
ATOM      7  C   UNL     1       8.832  -3.604   1.250  0.00  0.00    +0.000 A 
ATOM      8  C   UNL     1       7.848  -3.812   2.231  0.00  0.00    +0.000 A 
ATOM      9  C   UNL     1       6.661  -3.090   2.196  0.00  0.00    +0.000 A 
ATOM     10  C   UNL     1       6.564  -2.117   1.193  0.00  0.00    +0.000 A 
ATOM     11  N   UNL     1       7.502  -1.858   0.238  0.00  0.00    +0.000 NA
BRANCH   6  13
ATOM     12  N   UNL     1       9.460  -1.320  -1.599  0.00  0.00    +0.000 N 
ATOM     13  C   UNL     1       9.698  -2.323  -0.700  0.00  0.00    +0.000 C 
ATOM     14  O   UNL     1      10.769  -2.934  -0.706  0.00  0.00    +0.000 OA
ATOM     15  H   UNL     1      10.207  -1.060  -2.229  0.00  0.00    +0.000 HD
ATOM     16  H   UNL     1       8.667  -0.706  -1.475  0.00  0.00    +0.000 HD
ENDBRANCH   6  13
ENDBRANCH   4   9
ENDBRANCH   1   4
BRANCH   1  17
ATOM     17  C   UNL     1       6.143  -4.530   5.269  0.00  0.00    +0.000 C 
BRANCH  17  18
ATOM     18  C   UNL     1       5.901  -3.365   6.202  0.00  0.00    +0.000 A 
ATOM     19  C   UNL     1       6.715  -2.228   6.175  0.00  0.00    +0.000 A 
ATOM     20  C   UNL     1       6.532  -1.236   7.138  0.00  0.00    +0.000 A 
ATOM     21  C   UNL     1       5.523  -1.408   8.066  0.00  0.00    +0.000 A 
ATOM     22  N   UNL     1       4.726  -2.503   8.071  0.00  0.00    +0.000 NA
ATOM     23  N   UNL     1       4.929  -3.491   7.134  0.00  0.00    +0.000 NA
BRANCH  21  24
ATOM     24  C   UNL     1       5.266  -0.377   9.113  0.00  0.00    +0.000 C 
ATOM     25  N   UNL     1       4.243  -0.638   9.985  0.00  0.00    +0.000 N 
ATOM     26  O   UNL     1       5.929   0.651   9.196  0.00  0.00    +0.000 OA
ATOM     27  H   UNL     1       3.694  -1.486   9.906  0.00  0.00    +0.000 HD
ATOM     28  H   UNL     1       4.026   0.038  10.703  0.00  0.00    +0.000 HD
ENDBRANCH  21  24
ENDBRANCH  17  18
ENDBRANCH   1  17
TORSDOF 6
