REMARK  Name = 
REMARK  11 active torsions:
REMARK  status: ('A' for Active; 'I' for Inactive)
REMARK    1  A    between atoms: N_1  and  C_2
REMARK    2  A    between atoms: C_2  and  C_3
REMARK    3  A    between atoms: C_3  and  N_4
REMARK    4  A    between atoms: C_3  and  C_20
REMARK    5  A    between atoms: C_5  and  C_7
REMARK    6  A    between atoms: N_13  and  C_14
REMARK    7  A    between atoms: C_14  and  C_15
REMARK    8  A    between atoms: C_15  and  O_16
REMARK    9  A    between atoms: C_23  and  C_24
REMARK   10  A    between atoms: C_24  and  N_25
REMARK   11  A    between atoms: C_26  and  C_28
REMARK                            x       y       z     vdW  Elec       q    Type
REMARK                         _______ _______ _______ _____ _____    ______ ____
ROOT
ATOM      1  C   UNL     1       3.002   1.263   0.489  0.00  0.00    +0.000 C 
ENDROOT
BRANCH   1   2
ATOM      2  C   UNL     1       4.532   1.294   0.563  0.00  0.00    +0.000 A 
ATOM      3  C   UNL     1       5.256   2.282  -0.119  0.00  0.00    +0.000 A 
ATOM      4  C   UNL     1       6.656   2.320  -0.055  0.00  0.00    +0.000 A 
ATOM      5  C   UNL     1       7.369   1.371   0.690  0.00  0.00    +0.000 A 
ATOM      6  C   UNL     1       6.649   0.398   1.393  0.00  0.00    +0.000 A 
ATOM      7  C   UNL     1       5.251   0.357   1.326  0.00  0.00    +0.000 A 
BRANCH   5   8
ATOM      8  C   UNL     1       8.876   1.405   0.745  0.00  0.00    +0.000 C 
BRANCH   8   9
ATOM      9  N   UNL     1       9.357   2.253   1.811  0.00  0.00    +0.000 N 
ATOM     10  C   UNL     1      10.705   2.381   2.063  0.00  0.00    +0.000 C 
ATOM     11  O   UNL     1      11.554   1.758   1.434  0.00  0.00    +0.000 OA
ATOM     12  H   UNL     1       8.693   2.839   2.294  0.00  0.00    +0.000 HD
BRANCH  10  13
ATOM     13  C   UNL     1      11.057   3.303   3.114  0.00  0.00    +0.000 A 
ATOM     14  C   UNL     1      10.317   4.084   3.973  0.00  0.00    +0.000 A 
ATOM     15  N   UNL     1      11.123   4.809   4.816  0.00  0.00    +0.000 NA
ATOM     16  C   UNL     1      12.350   4.480   4.486  0.00  0.00    +0.000 A 
ATOM     17  N   UNL     1      12.362   3.571   3.468  0.00  0.00    +0.000 N 
ATOM     18  H   UNL     1      13.180   3.159   3.038  0.00  0.00    +0.000 HD
ENDBRANCH  10  13
ENDBRANCH   8   9
ENDBRANCH   5   8
ENDBRANCH   1   2
BRANCH   1  19
ATOM     19  N   UNL     1       2.470   1.580   1.807  0.00  0.00    +0.000 N 
ATOM     20  C   UNL     1       1.147   1.837   2.060  0.00  0.00    +0.000 C 
ATOM     21  O   UNL     1       0.299   1.850   1.176  0.00  0.00    +0.000 OA
ATOM     22  H   UNL     1       3.110   1.487   2.585  0.00  0.00    +0.000 HD
BRANCH  20  23
ATOM     23  C   UNL     1       0.802   2.139   3.458  0.00  0.00    +0.000 A 
ATOM     24  C   UNL     1      -0.369   2.830   3.739  0.00  0.00    +0.000 A 
ATOM     25  S   UNL     1      -0.615   3.109   5.403  0.00  0.00    +0.000 S 
ATOM     26  C   UNL     1       0.814   2.282   5.810  0.00  0.00    +0.000 A 
ATOM     27  N   UNL     1       1.184   2.129   7.106  0.00  0.00    +0.000 NA
ATOM     28  C   UNL     1       2.263   1.438   7.283  0.00  0.00    +0.000 A 
ATOM     29  N   UNL     1       3.035   0.892   6.277  0.00  0.00    +0.000 N 
ATOM     30  C   UNL     1       2.717   1.086   4.937  0.00  0.00    +0.000 A 
ATOM     31  O   UNL     1       3.443   0.695   4.027  0.00  0.00    +0.000 OA
ATOM     32  C   UNL     1       1.484   1.818   4.695  0.00  0.00    +0.000 A 
BRANCH  29  33
ATOM     33  C   UNL     1       4.251   0.152   6.605  0.00  0.00    +0.000 C 
BRANCH  33  34
ATOM     34  C   UNL     1       5.494   1.043   6.609  0.00  0.00    +0.000 C 
BRANCH  34  35
ATOM     35  O   UNL     1       5.400   2.020   7.641  0.00  0.00    +0.000 OA
ATOM     36  H   UNL     1       4.872   2.764   7.299  0.00  0.00    +0.000 HD
ENDBRANCH  34  35
ENDBRANCH  33  34
ENDBRANCH  29  33
ENDBRANCH  20  23
ENDBRANCH   1  19
BRANCH   1  37
ATOM     37  C   UNL     1       2.459  -0.096  -0.050  0.00  0.00    +0.000 C 
BRANCH  37  38
ATOM     38  N   UNL     1       2.951  -0.460  -1.386  0.00  0.00    +0.000 NA
ATOM     39  H   UNL     1       2.689  -1.424  -1.584  0.00  0.00    +0.000 HD
ATOM     40  H   UNL     1       3.971  -0.429  -1.394  0.00  0.00    +0.000 HD
ENDBRANCH  37  38
ENDBRANCH   1  37
TORSDOF 11
