REMARK  Name = 
REMARK  10 active torsions:
REMARK  status: ('A' for Active; 'I' for Inactive)
REMARK    1  A    between atoms: N_1  and  C_2
REMARK    2  A    between atoms: C_2  and  C_3
REMARK    3  A    between atoms: C_3  and  C_4
REMARK    4  A    between atoms: C_4  and  N_5
REMARK    5  A    between atoms: N_5  and  C_6
REMARK    6  A    between atoms: C_6  and  C_7
REMARK    7  A    between atoms: C_10  and  C_11
REMARK    8  A    between atoms: C_11  and  N_12
REMARK    9  A    between atoms: N_12  and  C_13
REMARK   10  A    between atoms: C_20  and  C_22
REMARK                            x       y       z     vdW  Elec       q    Type
REMARK                         _______ _______ _______ _____ _____    ______ ____
ROOT
ATOM      1  N   UNL     1      -6.021  -5.336  -7.755  0.00  0.00    +0.000 N 
ATOM      2  C   UNL     1      -5.617  -5.539  -9.113  0.00  0.00    +0.000 C 
ATOM      3  O   UNL     1      -5.869  -6.605  -9.674  0.00  0.00    +0.000 OA
ENDROOT
BRANCH   2   4
ATOM      4  C   UNL     1      -4.856  -4.502  -9.864  0.00  0.00    +0.000 A 
ATOM      5  C   UNL     1      -3.877  -3.690  -9.327  0.00  0.00    +0.000 A 
ATOM      6  S   UNL     1      -3.068  -2.678 -10.427  0.00  0.00    +0.000 S 
ATOM      7  C   UNL     1      -3.941  -3.333 -11.719  0.00  0.00    +0.000 A 
ATOM      8  N   UNL     1      -3.670  -2.934 -12.989  0.00  0.00    +0.000 NA
ATOM      9  C   UNL     1      -4.372  -3.534 -13.888  0.00  0.00    +0.000 A 
ATOM     10  N   UNL     1      -5.344  -4.465 -13.626  0.00  0.00    +0.000 N 
ATOM     11  C   UNL     1      -5.734  -4.809 -12.341  0.00  0.00    +0.000 A 
ATOM     12  O   UNL     1      -6.755  -5.462 -12.154  0.00  0.00    +0.000 OA
ATOM     13  C   UNL     1      -4.890  -4.254 -11.301  0.00  0.00    +0.000 A 
ATOM     14  H   UNL     1      -5.912  -4.836 -14.372  0.00  0.00    +0.000 HD
ENDBRANCH   2   4
BRANCH   1  15
ATOM     15  C   UNL     1      -6.980  -6.321  -7.212  0.00  0.00    +0.000 C 
BRANCH  15  16
ATOM     16  C   UNL     1      -6.429  -7.678  -6.771  0.00  0.00    +0.000 C 
BRANCH  16  17
ATOM     17  C   UNL     1      -5.575  -7.617  -5.508  0.00  0.00    +0.000 C 
BRANCH  17  18
ATOM     18  N   UNL     1      -5.200  -8.977  -5.119  0.00  0.00    +0.000 NA
ATOM     19  H   UNL     1      -4.599  -8.952  -4.297  0.00  0.00    +0.000 HD
ATOM     20  H   UNL     1      -4.649  -9.404  -5.865  0.00  0.00    +0.000 HD
ENDBRANCH  17  18
ENDBRANCH  16  17
ENDBRANCH  15  16
ENDBRANCH   1  15
BRANCH   1  21
ATOM     21  C   UNL     1      -6.156  -4.001  -7.174  0.00  0.00    +0.000 C 
BRANCH  21  22
ATOM     22  C   UNL     1      -5.284  -3.644  -5.978  0.00  0.00    +0.000 A 
ATOM     23  C   UNL     1      -3.899  -3.844  -5.960  0.00  0.00    +0.000 A 
ATOM     24  C   UNL     1      -3.068  -2.955  -5.263  0.00  0.00    +0.000 A 
ATOM     25  C   UNL     1      -3.616  -1.944  -4.465  0.00  0.00    +0.000 A 
ATOM     26  C   UNL     1      -5.000  -1.940  -4.263  0.00  0.00    +0.000 A 
ATOM     27  C   UNL     1      -5.826  -2.777  -5.017  0.00  0.00    +0.000 A 
BRANCH  25  28
ATOM     28  C   UNL     1      -2.760  -0.803  -3.948  0.00  0.00    +0.000 C 
BRANCH  28  29
ATOM     29  N   UNL     1      -2.402   0.080  -5.058  0.00  0.00    +0.000 NA
ATOM     30  H   UNL     1      -3.232   0.349  -5.576  0.00  0.00    +0.000 HD
BRANCH  29  31
ATOM     31  C   UNL     1      -1.625   1.249  -4.707  0.00  0.00    +0.000 C 
ATOM     32  C   UNL     1      -1.190   2.024  -5.951  0.00  0.00    +0.000 C 
ATOM     33  C   UNL     1      -2.432   2.801  -6.356  0.00  0.00    +0.000 C 
ATOM     34  C   UNL     1      -3.170   3.017  -5.043  0.00  0.00    +0.000 C 
ATOM     35  N   UNL     1      -2.463   2.222  -4.039  0.00  0.00    +0.000 NA
ATOM     36  H   UNL     1      -3.099   1.798  -3.376  0.00  0.00    +0.000 HD
ENDBRANCH  29  31
ENDBRANCH  28  29
ENDBRANCH  25  28
ENDBRANCH  21  22
ENDBRANCH   1  21
TORSDOF 10
