REMARK  Name = 
REMARK  8 active torsions:
REMARK  status: ('A' for Active; 'I' for Inactive)
REMARK    1  A    between atoms: N_1  and  C_2
REMARK    2  A    between atoms: C_2  and  C_3
REMARK    3  A    between atoms: C_3  and  C_4
REMARK    4  A    between atoms: C_4  and  N_5
REMARK    5  A    between atoms: C_4  and  C_18
REMARK    6  A    between atoms: C_6  and  C_8
REMARK    7  A    between atoms: C_21  and  O_22
REMARK    8  A    between atoms: O_22  and  C_23
REMARK                            x       y       z     vdW  Elec       q    Type
REMARK                         _______ _______ _______ _____ _____    ______ ____
ROOT
ATOM      1  C   UNL     1       4.569  -1.547   0.310  0.00  0.00    +0.000 C 
ENDROOT
BRANCH   1   2
ATOM      2  C   UNL     1       5.097  -2.967   0.464  0.00  0.00    +0.000 A 
ATOM      3  C   UNL     1       5.473  -3.664  -0.696  0.00  0.00    +0.000 A 
ATOM      4  C   UNL     1       6.058  -4.928  -0.619  0.00  0.00    +0.000 A 
ATOM      5  C   UNL     1       6.305  -5.510   0.624  0.00  0.00    +0.000 A 
ATOM      6  C   UNL     1       5.824  -4.888   1.777  0.00  0.00    +0.000 A 
ATOM      7  C   UNL     1       5.214  -3.627   1.697  0.00  0.00    +0.000 A 
BRANCH   5   8
ATOM      8  O   UNL     1       6.962  -6.713   0.770  0.00  0.00    +0.000 OA
BRANCH   8   9
ATOM      9  C   UNL     1       8.084  -6.937  -0.029  0.00  0.00    +0.000 A 
ATOM     10  C   UNL     1       8.429  -8.260  -0.261  0.00  0.00    +0.000 A 
ATOM     11  C   UNL     1       9.512  -8.524  -1.099  0.00  0.00    +0.000 A 
ATOM     12  C   UNL     1      10.212  -7.464  -1.665  0.00  0.00    +0.000 A 
ATOM     13  C   UNL     1       9.816  -6.176  -1.349  0.00  0.00    +0.000 A 
ATOM     14  N   UNL     1       8.781  -5.891  -0.533  0.00  0.00    +0.000 NA
ENDBRANCH   8   9
ENDBRANCH   5   8
ENDBRANCH   1   2
BRANCH   1  15
ATOM     15  N   UNL     1       3.120  -1.602   0.155  0.00  0.00    +0.000 N 
ATOM     16  C   UNL     1       2.432  -0.658  -0.566  0.00  0.00    +0.000 C 
ATOM     17  O   UNL     1       2.997   0.227  -1.203  0.00  0.00    +0.000 OA
ATOM     18  H   UNL     1       2.617  -2.215   0.788  0.00  0.00    +0.000 HD
BRANCH  16  19
ATOM     19  C   UNL     1       0.970  -0.772  -0.572  0.00  0.00    +0.000 A 
ATOM     20  C   UNL     1       0.246  -0.259  -1.639  0.00  0.00    +0.000 A 
ATOM     21  S   UNL     1      -1.440  -0.445  -1.474  0.00  0.00    +0.000 S 
ATOM     22  C   UNL     1      -1.263  -1.174   0.055  0.00  0.00    +0.000 A 
ATOM     23  N   UNL     1      -2.353  -1.533   0.784  0.00  0.00    +0.000 NA
ATOM     24  C   UNL     1      -2.075  -2.039   1.938  0.00  0.00    +0.000 A 
ATOM     25  N   UNL     1      -0.807  -2.238   2.420  0.00  0.00    +0.000 N 
ATOM     26  C   UNL     1       0.325  -1.939   1.696  0.00  0.00    +0.000 A 
ATOM     27  O   UNL     1       1.444  -2.212   2.120  0.00  0.00    +0.000 OA
ATOM     28  C   UNL     1       0.066  -1.320   0.411  0.00  0.00    +0.000 A 
ATOM     29  H   UNL     1      -0.660  -2.667   3.322  0.00  0.00    +0.000 HD
ENDBRANCH  16  19
ENDBRANCH   1  15
BRANCH   1  30
ATOM     30  C   UNL     1       4.936  -0.555   1.435  0.00  0.00    +0.000 C 
BRANCH  30  31
ATOM     31  C   UNL     1       6.435  -0.319   1.646  0.00  0.00    +0.000 C 
BRANCH  31  32
ATOM     32  N   UNL     1       7.087   0.278   0.487  0.00  0.00    +0.000 NA
ATOM     33  H   UNL     1       8.075   0.425   0.693  0.00  0.00    +0.000 HD
ATOM     34  H   UNL     1       6.694   1.201   0.302  0.00  0.00    +0.000 HD
ENDBRANCH  31  32
ENDBRANCH  30  31
ENDBRANCH   1  30
TORSDOF 8
