REMARK  Name = 
REMARK  8 active torsions:
REMARK  status: ('A' for Active; 'I' for Inactive)
REMARK    1  A    between atoms: C_2  and  C_20
REMARK    2  A    between atoms: N_3  and  C_4
REMARK    3  A    between atoms: C_4  and  C_5
REMARK    4  A    between atoms: C_8  and  C_9
REMARK    5  A    between atoms: C_9  and  O_10
REMARK    6  A    between atoms: C_9  and  C_11
REMARK    7  A    between atoms: C_11  and  C_12
REMARK    8  A    between atoms: C_12  and  N_13
REMARK                            x       y       z     vdW  Elec       q    Type
REMARK                         _______ _______ _______ _____ _____    ______ ____
ROOT
ATOM      1  C   UNL     1       2.204  -2.282   1.004  0.00  0.00    +0.000 C 
ENDROOT
BRANCH   1   2
ATOM      2  C   UNL     1       3.153  -3.332   1.535  0.00  0.00    +0.000 A 
ATOM      3  C   UNL     1       4.333  -2.950   2.159  0.00  0.00    +0.000 A 
ATOM      4  C   UNL     1       5.195  -3.935   2.619  0.00  0.00    +0.000 A 
ATOM      5  C   UNL     1       4.858  -5.287   2.492  0.00  0.00    +0.000 A 
ATOM      6  C   UNL     1       3.656  -5.574   1.852  0.00  0.00    +0.000 A 
ATOM      7  N   UNL     1       2.807  -4.635   1.366  0.00  0.00    +0.000 NA
BRANCH   5   8
ATOM      8  C   UNL     1       5.732  -6.400   3.016  0.00  0.00    +0.000 C 
BRANCH   8   9
ATOM      9  O   UNL     1       6.626  -6.793   1.971  0.00  0.00    +0.000 OA
ATOM     10  H   UNL     1       7.131  -6.005   1.705  0.00  0.00    +0.000 HD
ENDBRANCH   8   9
BRANCH   8  11
ATOM     11  C   UNL     1       6.572  -6.029   4.250  0.00  0.00    +0.000 C 
BRANCH  11  12
ATOM     12  C   UNL     1       5.734  -5.593   5.460  0.00  0.00    +0.000 C 
BRANCH  12  13
ATOM     13  N   UNL     1       6.543  -5.240   6.642  0.00  0.00    +0.000 NA
ATOM     14  C   UNL     1       5.672  -4.836   7.760  0.00  0.00    +0.000 C 
ATOM     15  C   UNL     1       5.482  -3.341   7.578  0.00  0.00    +0.000 C 
ATOM     16  C   UNL     1       6.859  -2.885   7.146  0.00  0.00    +0.000 C 
ATOM     17  C   UNL     1       7.476  -4.109   6.472  0.00  0.00    +0.000 C 
ENDBRANCH  12  13
ENDBRANCH  11  12
ENDBRANCH   8  11
ENDBRANCH   5   8
ENDBRANCH   1   2
BRANCH   1  20
ATOM     18  O   UNL     1       3.837  -0.156   0.337  0.00  0.00    +0.000 OA
ATOM     19  C   UNL     1       3.346  -0.812  -0.581  0.00  0.00    +0.000 C 
ATOM     20  N   UNL     1       2.501  -1.868  -0.353  0.00  0.00    +0.000 N 
ATOM     21  H   UNL     1       2.230  -2.484  -1.107  0.00  0.00    +0.000 HD
BRANCH  19  22
ATOM     22  C   UNL     1       3.592  -0.483  -1.983  0.00  0.00    +0.000 A 
ATOM     23  C   UNL     1       2.657  -0.652  -2.994  0.00  0.00    +0.000 A 
ATOM     24  S   UNL     1       3.195  -0.051  -4.504  0.00  0.00    +0.000 S 
ATOM     25  C   UNL     1       4.684   0.449  -3.843  0.00  0.00    +0.000 A 
ATOM     26  N   UNL     1       5.625   1.068  -4.611  0.00  0.00    +0.000 NA
ATOM     27  C   UNL     1       6.692   1.403  -3.964  0.00  0.00    +0.000 A 
ATOM     28  N   UNL     1       6.910   1.172  -2.630  0.00  0.00    +0.000 N 
ATOM     29  C   UNL     1       6.031   0.470  -1.837  0.00  0.00    +0.000 A 
ATOM     30  O   UNL     1       6.353   0.121  -0.710  0.00  0.00    +0.000 OA
ATOM     31  C   UNL     1       4.778   0.138  -2.502  0.00  0.00    +0.000 A 
ATOM     32  H   UNL     1       7.788   1.408  -2.195  0.00  0.00    +0.000 HD
ENDBRANCH  19  22
ENDBRANCH   1  20
TORSDOF 8
