REMARK  Name = 
REMARK  11 active torsions:
REMARK  status: ('A' for Active; 'I' for Inactive)
REMARK    1  A    between atoms: C_1  and  O_2
REMARK    2  A    between atoms: O_2  and  C_3
REMARK    3  A    between atoms: C_10  and  C_11
REMARK    4  A    between atoms: N_13  and  C_14
REMARK    5  A    between atoms: C_14  and  C_15
REMARK    6  A    between atoms: C_18  and  N_19
REMARK    7  A    between atoms: N_19  and  C_20
REMARK    8  A    between atoms: N_19  and  C_21
REMARK    9  A    between atoms: C_21  and  C_22
REMARK   10  A    between atoms: C_22  and  O_23
REMARK   11  A    between atoms: C_22  and  C_24
REMARK                            x       y       z     vdW  Elec       q    Type
REMARK                         _______ _______ _______ _____ _____    ______ ____
ROOT
ATOM      1  C   UNL     1       1.620  -0.455  -3.172  0.00  0.00    +0.000 A 
ATOM      2  C   UNL     1       1.713  -1.848  -3.224  0.00  0.00    +0.000 A 
ATOM      3  C   UNL     1       0.569  -2.645  -3.094  0.00  0.00    +0.000 A 
ATOM      4  C   UNL     1      -0.713  -2.096  -2.917  0.00  0.00    +0.000 A 
ATOM      5  C   UNL     1      -0.787  -0.695  -2.896  0.00  0.00    +0.000 A 
ATOM      6  C   UNL     1       0.353   0.115  -3.028  0.00  0.00    +0.000 A 
ENDROOT
BRANCH   4   7
ATOM      7  N   UNL     1      -1.827  -2.899  -2.726  0.00  0.00    +0.000 N 
ATOM      8  C   UNL     1      -2.967  -2.424  -1.952  0.00  0.00    +0.000 C 
BRANCH   7   9
ATOM      9  C   UNL     1      -2.009  -4.158  -3.482  0.00  0.00    +0.000 C 
BRANCH   9  10
ATOM     10  C   UNL     1      -2.821  -3.982  -4.796  0.00  0.00    +0.000 C 
BRANCH  10  11
ATOM     11  C   UNL     1      -3.038  -5.321  -5.486  0.00  0.00    +0.000 A 
ATOM     12  C   UNL     1      -4.136  -5.509  -6.324  0.00  0.00    +0.000 A 
ATOM     13  C   UNL     1      -4.308  -6.742  -6.949  0.00  0.00    +0.000 A 
ATOM     14  C   UNL     1      -3.376  -7.752  -6.733  0.00  0.00    +0.000 A 
ATOM     15  C   UNL     1      -2.299  -7.480  -5.911  0.00  0.00    +0.000 A 
ATOM     16  N   UNL     1      -2.109  -6.293  -5.293  0.00  0.00    +0.000 NA
ENDBRANCH  10  11
BRANCH  10  17
ATOM     17  O   UNL     1      -2.177  -3.103  -5.730  0.00  0.00    +0.000 OA
ATOM     18  H   UNL     1      -1.225  -3.286  -5.647  0.00  0.00    +0.000 HD
ENDBRANCH  10  17
ENDBRANCH   9  10
ENDBRANCH   7   9
ENDBRANCH   4   7
BRANCH   1  19
ATOM     19  C   UNL     1       2.848   0.405  -3.300  0.00  0.00    +0.000 C 
BRANCH  19  22
ATOM     20  C   UNL     1       4.239   1.416  -5.056  0.00  0.00    +0.000 C 
ATOM     21  O   UNL     1       4.997   1.901  -4.218  0.00  0.00    +0.000 OA
ATOM     22  N   UNL     1       3.152   0.675  -4.683  0.00  0.00    +0.000 N 
ATOM     23  H   UNL     1       2.524   0.300  -5.382  0.00  0.00    +0.000 HD
BRANCH  20  31
ATOM     24  C   UNL     1       2.593   0.338  -7.890  0.00  0.00    +0.000 A 
ATOM     25  N   UNL     1       2.198   0.015  -9.139  0.00  0.00    +0.000 NA
ATOM     26  C   UNL     1       2.928   0.459 -10.166  0.00  0.00    +0.000 A 
ATOM     27  N   UNL     1       4.023   1.209 -10.104  0.00  0.00    +0.000 NA
ATOM     28  C   UNL     1       4.388   1.503  -8.845  0.00  0.00    +0.000 A 
ATOM     29  S   UNL     1       5.763   2.463  -8.578  0.00  0.00    +0.000 S 
ATOM     30  C   UNL     1       5.569   2.358  -6.894  0.00  0.00    +0.000 A 
ATOM     31  C   UNL     1       4.474   1.599  -6.499  0.00  0.00    +0.000 A 
ATOM     32  C   UNL     1       3.752   1.106  -7.672  0.00  0.00    +0.000 A 
BRANCH  24  34
ATOM     33  C   UNL     1       0.636  -0.778  -7.210  0.00  0.00    +0.000 C 
ATOM     34  O   UNL     1       1.833  -0.103  -6.827  0.00  0.00    +0.000 OA
ENDBRANCH  24  34
ENDBRANCH  20  31
ENDBRANCH  19  22
ENDBRANCH   1  19
TORSDOF 9
