REMARK  Name = 
REMARK  6 active torsions:
REMARK  status: ('A' for Active; 'I' for Inactive)
REMARK    1  A    between atoms: C_1  and  O_2
REMARK    2  A    between atoms: O_2  and  C_3
REMARK    3  A    between atoms: C_5  and  C_6
REMARK    4  A    between atoms: N_11  and  C_12
REMARK    5  A    between atoms: C_12  and  C_13
REMARK    6  A    between atoms: C_18  and  C_19
REMARK                            x       y       z     vdW  Elec       q    Type
REMARK                         _______ _______ _______ _____ _____    ______ ____
ROOT
ATOM      1  C   UNL     1       3.158  -1.261   0.770  0.00  0.00    +0.000 A 
ATOM      2  C   UNL     1       2.976  -2.485   0.201  0.00  0.00    +0.000 A 
ATOM      3  C   UNL     1       3.991  -3.373   0.454  0.00  0.00    +0.000 A 
ATOM      4  N   UNL     1       5.098  -3.093   1.193  0.00  0.00    +0.000 NA
ATOM      5  C   UNL     1       5.175  -1.852   1.678  0.00  0.00    +0.000 A 
ATOM      6  N   UNL     1       6.295  -1.410   2.359  0.00  0.00    +0.000 N 
ATOM      7  N   UNL     1       4.230  -0.928   1.508  0.00  0.00    +0.000 NA
ATOM      8  H   UNL     1       6.035  -0.549   2.826  0.00  0.00    +0.000 HD
ENDROOT
BRANCH   3   9
ATOM      9  C   UNL     1       3.908  -4.747  -0.130  0.00  0.00    +0.000 C 
ATOM     10  N   UNL     1       4.962  -5.572   0.152  0.00  0.00    +0.000 N 
ATOM     11  O   UNL     1       2.967  -5.116  -0.820  0.00  0.00    +0.000 OA
ATOM     12  H   UNL     1       5.745  -5.222   0.692  0.00  0.00    +0.000 HD
ATOM     13  H   UNL     1       4.988  -6.498  -0.249  0.00  0.00    +0.000 HD
ENDBRANCH   3   9
BRANCH   1  15
ATOM     14  C   UNL     1       2.434   0.925   1.191  0.00  0.00    +0.000 C 
ATOM     15  O   UNL     1       2.173  -0.318   0.539  0.00  0.00    +0.000 OA
ENDBRANCH   1  15
BRANCH   6  16
ATOM     16  C   UNL     1       6.973  -2.373   3.192  0.00  0.00    +0.000 C 
BRANCH  16  17
ATOM     17  C   UNL     1       8.154  -1.695   3.860  0.00  0.00    +0.000 A 
ATOM     18  C   UNL     1       9.368  -1.590   3.176  0.00  0.00    +0.000 A 
ATOM     19  C   UNL     1      10.473  -1.023   3.802  0.00  0.00    +0.000 A 
ATOM     20  C   UNL     1      10.382  -0.523   5.110  0.00  0.00    +0.000 A 
ATOM     21 CL   UNL     1      11.885  -0.002   5.800  0.00  0.00    +0.000 Cl
ATOM     22  C   UNL     1       9.153  -0.522   5.810  0.00  0.00    +0.000 A 
ATOM     23  C   UNL     1       8.057  -1.141   5.152  0.00  0.00    +0.000 A 
BRANCH  22  24
ATOM     24  C   UNL     1       8.947   0.064   7.162  0.00  0.00    +0.000 A 
ATOM     25  C   UNL     1       9.588   1.217   7.621  0.00  0.00    +0.000 A 
ATOM     26  C   UNL     1       9.341   1.688   8.911  0.00  0.00    +0.000 A 
ATOM     27  C   UNL     1       8.417   1.031   9.707  0.00  0.00    +0.000 A 
ATOM     28  C   UNL     1       7.783  -0.076   9.176  0.00  0.00    +0.000 A 
ATOM     29  N   UNL     1       8.027  -0.570   7.939  0.00  0.00    +0.000 NA
ENDBRANCH  22  24
ENDBRANCH  16  17
ENDBRANCH   6  16
TORSDOF 5
