REMARK  Name = 
REMARK  11 active torsions:
REMARK  status: ('A' for Active; 'I' for Inactive)
REMARK    1  A    between atoms: C_1  and  O_2
REMARK    2  A    between atoms: O_2  and  C_3
REMARK    3  A    between atoms: C_3  and  C_5
REMARK    4  A    between atoms: C_6  and  C_7
REMARK    5  A    between atoms: C_10  and  C_11
REMARK    6  A    between atoms: C_11  and  C_12
REMARK    7  A    between atoms: C_11  and  C_13
REMARK    8  A    between atoms: C_11  and  C_14
REMARK    9  A    between atoms: C_14  and  O_15
REMARK   10  A    between atoms: O_15  and  C_16
REMARK   11  A    between atoms: C_19  and  C_20
REMARK                            x       y       z     vdW  Elec       q    Type
REMARK                         _______ _______ _______ _____ _____    ______ ____
ROOT
ATOM      1  C   UNL     1      11.210  -1.268  -2.180  0.00  0.00    +0.000 C 
ATOM      2  C   UNL     1      11.721  -2.277  -3.223  0.00  0.00    +0.000 C 
ATOM      3  C   UNL     1      11.738   0.146  -2.537  0.00  0.00    +0.000 C 
ENDROOT
BRANCH   1   7
ATOM      4  C   UNL     1       6.823  -1.036  -2.127  0.00  0.00    +0.000 A 
ATOM      5  C   UNL     1       7.527  -1.448  -0.997  0.00  0.00    +0.000 A 
ATOM      6  C   UNL     1       8.919  -1.528  -1.013  0.00  0.00    +0.000 A 
ATOM      7  C   UNL     1       9.667  -1.226  -2.163  0.00  0.00    +0.000 A 
ATOM      8  C   UNL     1       8.945  -0.850  -3.308  0.00  0.00    +0.000 A 
ATOM      9  C   UNL     1       7.545  -0.755  -3.290  0.00  0.00    +0.000 A 
BRANCH   4  11
ATOM     10  C   UNL     1       4.616  -0.714  -1.044  0.00  0.00    +0.000 C 
ATOM     11  C   UNL     1       5.357  -0.968  -2.134  0.00  0.00    +0.000 C 
BRANCH  10  12
ATOM     12  C   UNL     1       3.143  -0.728  -1.144  0.00  0.00    +0.000 C 
ATOM     13  O   UNL     1       2.514  -0.938  -2.165  0.00  0.00    +0.000 OA
BRANCH  12  15
ATOM     14  C   UNL     1       1.204  -0.508   0.114  0.00  0.00    +0.000 C 
ATOM     15  O   UNL     1       2.631  -0.487   0.088  0.00  0.00    +0.000 OA
ENDBRANCH  12  15
ENDBRANCH  10  12
ENDBRANCH   4  11
ENDBRANCH   1   7
BRANCH   1  16
ATOM     16  C   UNL     1      11.830  -1.619  -0.796  0.00  0.00    +0.000 C 
BRANCH  16  17
ATOM     17  O   UNL     1      11.478  -2.933  -0.353  0.00  0.00    +0.000 OA
BRANCH  17  18
ATOM     18  C   UNL     1      11.884  -3.322   0.895  0.00  0.00    +0.000 A 
ATOM     19  C   UNL     1      12.048  -4.705   1.031  0.00  0.00    +0.000 A 
ATOM     20  N   UNL     1      12.434  -5.341   2.168  0.00  0.00    +0.000 NA
ATOM     21  C   UNL     1      12.663  -4.546   3.243  0.00  0.00    +0.000 A 
ATOM     22  C   UNL     1      12.510  -3.175   3.227  0.00  0.00    +0.000 A 
ATOM     23  C   UNL     1      12.096  -2.560   2.048  0.00  0.00    +0.000 A 
ATOM     24 CL   UNL     1      11.811  -0.864   2.227  0.00  0.00    +0.000 Cl
BRANCH  21  25
ATOM     25  C   UNL     1      13.065  -5.196   4.529  0.00  0.00    +0.000 C 
ATOM     26  N   UNL     1      13.160  -6.557   4.511  0.00  0.00    +0.000 N 
ATOM     27  O   UNL     1      13.282  -4.548   5.545  0.00  0.00    +0.000 OA
ATOM     28  H   UNL     1      12.956  -7.069   3.661  0.00  0.00    +0.000 HD
ATOM     29  H   UNL     1      13.402  -7.041   5.365  0.00  0.00    +0.000 HD
ENDBRANCH  21  25
ENDBRANCH  17  18
ENDBRANCH  16  17
ENDBRANCH   1  16
TORSDOF 8
