REMARK  Name = 
REMARK  2 active torsions:
REMARK  status: ('A' for Active; 'I' for Inactive)
REMARK    1  A    between atoms: N_11  and  C_12
REMARK    2  A    between atoms: C_12  and  C_13
REMARK                            x       y       z     vdW  Elec       q    Type
REMARK                         _______ _______ _______ _____ _____    ______ ____
ROOT
ATOM      1  N   UNL     1       1.087   0.153  -0.208  0.00  0.00    +0.000 NA
ATOM      2  C   UNL     1       2.340  -0.103  -0.066  0.00  0.00    +0.000 C 
ATOM      3  N   UNL     1       3.033   0.380   0.988  0.00  0.00    +0.000 N 
ATOM      4  N   UNL     1       3.069  -0.808  -0.971  0.00  0.00    +0.000 N 
ATOM      5  C   UNL     1       2.677  -0.858  -2.393  0.00  0.00    +0.000 C 
ATOM      6  C   UNL     1       3.733  -0.123  -3.263  0.00  0.00    +0.000 C 
ATOM      7  C   UNL     1       5.113  -0.567  -2.871  0.00  0.00    +0.000 A 
ATOM      8  C   UNL     1       5.394  -1.225  -1.684  0.00  0.00    +0.000 A 
ATOM      9  C   UNL     1       6.781  -1.484  -1.663  0.00  0.00    +0.000 A 
ATOM     10  C   UNL     1       7.310  -0.940  -2.815  0.00  0.00    +0.000 A 
ATOM     11  N   UNL     1       6.289  -0.367  -3.545  0.00  0.00    +0.000 N 
ATOM     12  C   UNL     1       4.316  -1.539  -0.686  0.00  0.00    +0.000 C 
ATOM     13  H   UNL     1       0.750   0.672   0.602  0.00  0.00    +0.000 HD
ATOM     14  H   UNL     1       2.558   1.113   1.496  0.00  0.00    +0.000 HD
ATOM     15  H   UNL     1       3.958   0.693   0.714  0.00  0.00    +0.000 HD
ENDROOT
BRANCH  11  16
ATOM     16  C   UNL     1       6.490   0.424  -4.756  0.00  0.00    +0.000 C 
BRANCH  16  17
ATOM     17  C   UNL     1       6.477  -0.430  -5.999  0.00  0.00    +0.000 A 
ATOM     18  C   UNL     1       5.299  -0.587  -6.743  0.00  0.00    +0.000 A 
ATOM     19  C   UNL     1       5.274  -1.406  -7.873  0.00  0.00    +0.000 A 
ATOM     20  C   UNL     1       6.431  -2.067  -8.279  0.00  0.00    +0.000 A 
ATOM     21  C   UNL     1       7.613  -1.907  -7.559  0.00  0.00    +0.000 A 
ATOM     22  C   UNL     1       7.638  -1.092  -6.426  0.00  0.00    +0.000 A 
ENDBRANCH  16  17
ENDBRANCH  11  16
TORSDOF 2
