REMARK  Name = 
REMARK  8 active torsions:
REMARK  status: ('A' for Active; 'I' for Inactive)
REMARK    1  A    between atoms: C_1  and  O_2
REMARK    2  A    between atoms: O_2  and  C_3
REMARK    3  A    between atoms: N_7  and  C_8
REMARK    4  A    between atoms: C_8  and  C_9
REMARK    5  A    between atoms: C_9  and  C_10
REMARK    6  A    between atoms: C_9  and  C_11
REMARK    7  A    between atoms: C_14  and  C_15
REMARK    8  A    between atoms: C_16  and  C_17
REMARK                            x       y       z     vdW  Elec       q    Type
REMARK                         _______ _______ _______ _____ _____    ______ ____
ROOT
ATOM      1  C   UNL     1       5.209  -6.841   2.652  0.00  0.00    +0.000 C 
ATOM      2  C   UNL     1       6.710  -6.798   2.332  0.00  0.00    +0.000 C 
ENDROOT
BRANCH   1   3
ATOM      3  C   UNL     1       4.642  -8.213   2.316  0.00  0.00    +0.000 A 
ATOM      4  C   UNL     1       4.568  -8.671   1.003  0.00  0.00    +0.000 A 
ATOM      5  C   UNL     1       4.039  -9.928   0.728  0.00  0.00    +0.000 A 
ATOM      6  C   UNL     1       3.552 -10.765   1.752  0.00  0.00    +0.000 A 
ATOM      7  C   UNL     1       2.965 -12.080   1.304  0.00  0.00    +0.000 C 
ATOM      8  C   UNL     1       3.635 -10.348   3.106  0.00  0.00    +0.000 A 
ATOM      9  C   UNL     1       4.196  -9.065   3.344  0.00  0.00    +0.000 A 
BRANCH   8  10
ATOM     10  C   UNL     1       3.158 -11.148   4.274  0.00  0.00    +0.000 A 
ATOM     11  C   UNL     1       3.273 -12.542   4.368  0.00  0.00    +0.000 A 
ATOM     12  C   UNL     1       2.788 -13.240   5.477  0.00  0.00    +0.000 A 
ATOM     13  C   UNL     1       2.235 -12.520   6.517  0.00  0.00    +0.000 A 
ATOM     14  N   UNL     1       2.125 -11.180   6.507  0.00  0.00    +0.000 NA
ATOM     15  C   UNL     1       2.572 -10.540   5.394  0.00  0.00    +0.000 A 
ENDBRANCH   8  10
ENDBRANCH   1   3
BRANCH   1  16
ATOM     16  C   UNL     1       4.509  -5.684   1.907  0.00  0.00    +0.000 C 
BRANCH  16  21
ATOM     17  C   UNL     1       0.545  -2.843   0.501  0.00  0.00    +0.000 A 
ATOM     18  C   UNL     1       1.883  -2.729   0.202  0.00  0.00    +0.000 A 
ATOM     19  C   UNL     1       2.769  -3.622   0.798  0.00  0.00    +0.000 A 
ATOM     20  C   UNL     1       2.298  -4.613   1.655  0.00  0.00    +0.000 A 
ATOM     21  N   UNL     1       3.125  -5.491   2.321  0.00  0.00    +0.000 N 
ATOM     22  N   UNL     1       0.975  -4.696   1.896  0.00  0.00    +0.000 NA
ATOM     23  N   UNL     1       0.085  -3.807   1.324  0.00  0.00    +0.000 NA
ATOM     24  H   UNL     1       2.619  -6.272   2.724  0.00  0.00    +0.000 HD
BRANCH  17  26
ATOM     25  C   UNL     1      -1.657  -2.097   0.330  0.00  0.00    +0.000 C 
ATOM     26  O   UNL     1      -0.303  -1.922  -0.070  0.00  0.00    +0.000 OA
ENDBRANCH  17  26
ENDBRANCH  16  21
ENDBRANCH   1  16
TORSDOF 5
