REMARK  Name = 
REMARK  9 active torsions:
REMARK  status: ('A' for Active; 'I' for Inactive)
REMARK    1  A    between atoms: C_1  and  C_2
REMARK    2  A    between atoms: C_2  and  C_3
REMARK    3  A    between atoms: C_7  and  C_8
REMARK    4  A    between atoms: C_8  and  C_9
REMARK    5  A    between atoms: C_9  and  N_10
REMARK    6  A    between atoms: N_10  and  C_11
REMARK    7  A    between atoms: C_14  and  C_15
REMARK    8  A    between atoms: N_23  and  C_24
REMARK    9  A    between atoms: C_24  and  C_25
REMARK                            x       y       z     vdW  Elec       q    Type
REMARK                         _______ _______ _______ _____ _____    ______ ____
ROOT
ATOM      1  C   UNL     1       2.986   0.399   1.501  0.00  0.00    +0.000 A 
ATOM      2  C   UNL     1       2.760   1.681   2.024  0.00  0.00    +0.000 A 
ATOM      3  C   UNL     1       3.099   1.989   3.345  0.00  0.00    +0.000 A 
ATOM      4  C   UNL     1       3.662   1.020   4.179  0.00  0.00    +0.000 A 
ATOM      5  C   UNL     1       3.909  -0.265   3.694  0.00  0.00    +0.000 A 
ATOM      6  C   UNL     1       3.590  -0.536   2.351  0.00  0.00    +0.000 A 
ENDROOT
BRANCH   1   8
ATOM      7  C   UNL     1       0.948   0.094   0.127  0.00  0.00    +0.000 C 
ATOM      8  C   UNL     1       2.492  -0.004   0.092  0.00  0.00    +0.000 C 
ATOM      9  C   UNL     1       3.081   0.968  -0.963  0.00  0.00    +0.000 C 
ATOM     10  C   UNL     1       2.765   0.551  -2.405  0.00  0.00    +0.000 C 
ATOM     11  N   UNL     1       3.202  -0.810  -2.745  0.00  0.00    +0.000 NA
ATOM     12  C   UNL     1       2.617  -1.774  -1.800  0.00  0.00    +0.000 C 
ATOM     13  C   UNL     1       2.897  -1.453  -0.327  0.00  0.00    +0.000 C 
ATOM     14  F   UNL     1       2.232  -2.367   0.441  0.00  0.00    +0.000 F 
BRANCH  11  15
ATOM     15  C   UNL     1       4.683  -0.953  -2.835  0.00  0.00    +0.000 C 
BRANCH  15  16
ATOM     16  C   UNL     1       5.473  -0.110  -3.865  0.00  0.00    +0.000 C 
ATOM     17  F   UNL     1       4.692   0.677  -4.633  0.00  0.00    +0.000 F 
ATOM     18  F   UNL     1       6.357   0.697  -3.228  0.00  0.00    +0.000 F 
ATOM     19  F   UNL     1       6.184  -0.908  -4.695  0.00  0.00    +0.000 F 
ENDBRANCH  15  16
ENDBRANCH  11  15
ENDBRANCH   1   8
BRANCH   5  20
ATOM     20  C   UNL     1       4.444  -1.347   4.621  0.00  0.00    +0.000 C 
BRANCH  20  21
ATOM     21  C   UNL     1       4.680  -2.688   3.912  0.00  0.00    +0.000 C 
BRANCH  21  22
ATOM     22  N   UNL     1       5.154  -3.751   4.795  0.00  0.00    +0.000 N 
ATOM     23  H   UNL     1       4.564  -3.853   5.620  0.00  0.00    +0.000 HD
BRANCH  22  24
ATOM     24  C   UNL     1       5.353  -4.997   4.157  0.00  0.00    +0.000 A 
ATOM     25  C   UNL     1       5.780  -5.118   2.827  0.00  0.00    +0.000 A 
ATOM     26  C   UNL     1       6.039  -6.369   2.270  0.00  0.00    +0.000 A 
ATOM     27  C   UNL     1       5.896  -7.482   3.073  0.00  0.00    +0.000 A 
ATOM     28  N   UNL     1       5.513  -7.434   4.380  0.00  0.00    +0.000 NA
ATOM     29  C   UNL     1       5.271  -6.192   4.879  0.00  0.00    +0.000 A 
BRANCH  27  30
ATOM     30  C   UNL     1       6.214  -8.833   2.508  0.00  0.00    +0.000 C 
ATOM     31  N   UNL     1       6.049  -9.879   3.374  0.00  0.00    +0.000 N 
ATOM     32  O   UNL     1       6.603  -8.998   1.361  0.00  0.00    +0.000 OA
ATOM     33  H   UNL     1       5.765  -9.692   4.329  0.00  0.00    +0.000 HD
ATOM     34  H   UNL     1       6.298 -10.811   3.081  0.00  0.00    +0.000 HD
ENDBRANCH  27  30
ENDBRANCH  22  24
ENDBRANCH  21  22
ENDBRANCH  20  21
ENDBRANCH   5  20
TORSDOF 8
