REMARK  Name = 
REMARK  5 active torsions:
REMARK  status: ('A' for Active; 'I' for Inactive)
REMARK    1  A    between atoms: C_2  and  C_4
REMARK    2  A    between atoms: C_7  and  O_8
REMARK    3  A    between atoms: O_8  and  C_9
REMARK    4  A    between atoms: C_9  and  C_10
REMARK    5  A    between atoms: C_14  and  C_15
REMARK                            x       y       z     vdW  Elec       q    Type
REMARK                         _______ _______ _______ _____ _____    ______ ____
ROOT
ATOM      1  C   UNL     1       5.040   1.194  -5.796  0.00  0.00    +0.000 C 
ATOM      2  C   UNL     1       5.040   2.714  -5.912  0.00  0.00    +0.000 C 
ATOM      3  C   UNL     1       3.770   1.957  -6.114  0.00  0.00    +0.000 C 
ENDROOT
BRANCH   1   4
ATOM      4  C   UNL     1       5.710   0.368  -6.883  0.00  0.00    +0.000 A 
ATOM      5  C   UNL     1       7.103   0.348  -7.035  0.00  0.00    +0.000 A 
ATOM      6  C   UNL     1       7.712  -0.458  -7.998  0.00  0.00    +0.000 A 
ATOM      7  C   UNL     1       6.936  -1.268  -8.830  0.00  0.00    +0.000 A 
ATOM      8  C   UNL     1       5.538  -1.299  -8.714  0.00  0.00    +0.000 A 
ATOM      9  C   UNL     1       4.957  -0.462  -7.741  0.00  0.00    +0.000 A 
BRANCH   8  10
ATOM     10  C   UNL     1       4.708  -2.212  -9.528  0.00  0.00    +0.000 A 
ATOM     11  C   UNL     1       3.430  -1.864  -9.991  0.00  0.00    +0.000 A 
ATOM     12  C   UNL     1       2.656  -2.779 -10.707  0.00  0.00    +0.000 A 
ATOM     13  C   UNL     1       3.187  -4.031 -10.962  0.00  0.00    +0.000 A 
ATOM     14  N   UNL     1       4.412  -4.415 -10.558  0.00  0.00    +0.000 NA
ATOM     15  C   UNL     1       5.130  -3.506  -9.851  0.00  0.00    +0.000 A 
ENDBRANCH   8  10
ENDBRANCH   1   4
BRANCH   1  16
ATOM     16  O   UNL     1       5.303   0.816  -4.424  0.00  0.00    +0.000 OA
BRANCH  16  20
ATOM     17  C   UNL     1       3.517  -2.505  -2.778  0.00  0.00    +0.000 A 
ATOM     18  C   UNL     1       4.487  -1.803  -2.063  0.00  0.00    +0.000 A 
ATOM     19  C   UNL     1       5.081  -0.692  -2.652  0.00  0.00    +0.000 A 
ATOM     20  C   UNL     1       4.682  -0.315  -3.928  0.00  0.00    +0.000 A 
ATOM     21  N   UNL     1       3.744  -0.965  -4.646  0.00  0.00    +0.000 NA
ATOM     22  C   UNL     1       3.197  -2.065  -4.058  0.00  0.00    +0.000 A 
BRANCH  17  24
ATOM     23  N   UNL     1       2.754  -3.821  -0.878  0.00  0.00    +0.000 N 
ATOM     24  C   UNL     1       2.838  -3.706  -2.239  0.00  0.00    +0.000 C 
ATOM     25  O   UNL     1       2.349  -4.546  -2.977  0.00  0.00    +0.000 OA
ATOM     26  H   UNL     1       2.217  -4.605  -0.528  0.00  0.00    +0.000 HD
ATOM     27  H   UNL     1       2.916  -3.051  -0.249  0.00  0.00    +0.000 HD
ENDBRANCH  17  24
ENDBRANCH  16  20
ENDBRANCH   1  16
TORSDOF 5
