REMARK  Name = 
REMARK  6 active torsions:
REMARK  status: ('A' for Active; 'I' for Inactive)
REMARK    1  A    between atoms: C_1  and  C_2
REMARK    2  A    between atoms: C_2  and  N_3
REMARK    3  A    between atoms: C_2  and  C_16
REMARK    4  A    between atoms: C_4  and  C_6
REMARK    5  A    between atoms: C_19  and  O_20
REMARK    6  A    between atoms: O_20  and  C_21
REMARK                            x       y       z     vdW  Elec       q    Type
REMARK                         _______ _______ _______ _____ _____    ______ ____
ROOT
ATOM      1  C   UNL     1       2.958   1.345   0.217  0.00  0.00    +0.000 C 
ATOM      2  C   UNL     1       2.496  -0.103   0.016  0.00  0.00    +0.000 C 
ENDROOT
BRANCH   2   3
ATOM      3  C   UNL     1       2.942  -1.044   1.120  0.00  0.00    +0.000 A 
ATOM      4  C   UNL     1       3.143  -2.401   0.823  0.00  0.00    +0.000 A 
ATOM      5  C   UNL     1       3.561  -3.292   1.812  0.00  0.00    +0.000 A 
ATOM      6  C   UNL     1       3.851  -2.827   3.098  0.00  0.00    +0.000 A 
ATOM      7  C   UNL     1       3.577  -1.504   3.428  0.00  0.00    +0.000 A 
ATOM      8  C   UNL     1       3.111  -0.623   2.450  0.00  0.00    +0.000 A 
BRANCH   6   9
ATOM      9  O   UNL     1       4.375  -3.610   4.103  0.00  0.00    +0.000 OA
BRANCH   9  10
ATOM     10  C   UNL     1       5.277  -4.599   3.775  0.00  0.00    +0.000 A 
ATOM     11  C   UNL     1       6.154  -4.535   2.694  0.00  0.00    +0.000 A 
ATOM     12  C   UNL     1       6.921  -5.648   2.408  0.00  0.00    +0.000 A 
ATOM     13  N   UNL     1       6.928  -6.763   3.166  0.00  0.00    +0.000 NA
ATOM     14  C   UNL     1       6.134  -6.762   4.259  0.00  0.00    +0.000 A 
ATOM     15  C   UNL     1       5.299  -5.713   4.605  0.00  0.00    +0.000 A 
ENDBRANCH   9  10
ENDBRANCH   6   9
ENDBRANCH   2   3
BRANCH   2  16
ATOM     16  N   UNL     1       1.054  -0.172  -0.100  0.00  0.00    +0.000 N 
ATOM     17  C   UNL     1       0.391   0.110  -1.267  0.00  0.00    +0.000 C 
ATOM     18  O   UNL     1       0.973   0.340  -2.319  0.00  0.00    +0.000 OA
ATOM     19  H   UNL     1       0.536  -0.215   0.771  0.00  0.00    +0.000 HD
BRANCH  17  20
ATOM     20  C   UNL     1      -1.073   0.070  -1.187  0.00  0.00    +0.000 A 
ATOM     21  C   UNL     1      -1.818  -0.278  -2.304  0.00  0.00    +0.000 A 
ATOM     22  S   UNL     1      -3.502  -0.263  -2.030  0.00  0.00    +0.000 S 
ATOM     23  C   UNL     1      -3.291   0.255  -0.422  0.00  0.00    +0.000 A 
ATOM     24  N   UNL     1      -4.361   0.508   0.377  0.00  0.00    +0.000 NA
ATOM     25  C   UNL     1      -4.055   0.930   1.560  0.00  0.00    +0.000 A 
ATOM     26  N   UNL     1      -2.776   1.107   2.019  0.00  0.00    +0.000 N 
ATOM     27  C   UNL     1      -1.666   0.806   1.269  0.00  0.00    +0.000 A 
ATOM     28  O   UNL     1      -0.534   0.873   1.747  0.00  0.00    +0.000 OA
ATOM     29  C   UNL     1      -1.954   0.375  -0.088  0.00  0.00    +0.000 A 
ATOM     30  H   UNL     1      -2.607   1.410   2.967  0.00  0.00    +0.000 HD
ENDBRANCH  17  20
ENDBRANCH   2  16
TORSDOF 5
