REMARK  Name = 
REMARK  8 active torsions:
REMARK  status: ('A' for Active; 'I' for Inactive)
REMARK    1  A    between atoms: C_1  and  O_2
REMARK    2  A    between atoms: O_2  and  C_3
REMARK    3  A    between atoms: C_10  and  C_11
REMARK    4  A    between atoms: N_13  and  C_14
REMARK    5  A    between atoms: C_14  and  C_15
REMARK    6  A    between atoms: C_18  and  C_19
REMARK    7  A    between atoms: C_19  and  C_20
REMARK    8  A    between atoms: C_20  and  N_21
REMARK                            x       y       z     vdW  Elec       q    Type
REMARK                         _______ _______ _______ _____ _____    ______ ____
ROOT
ATOM      1  C   UNL     1       2.806   3.367   0.478  0.00  0.00    +0.000 C 
ENDROOT
BRANCH   1   2
ATOM      2  C   UNL     1       1.629   3.301  -0.463  0.00  0.00    +0.000 A 
ATOM      3  C   UNL     1       1.332   2.112  -1.136  0.00  0.00    +0.000 A 
ATOM      4  C   UNL     1       0.182   2.002  -1.927  0.00  0.00    +0.000 A 
ATOM      5  C   UNL     1      -0.699   3.082  -2.084  0.00  0.00    +0.000 A 
ATOM      6  C   UNL     1      -0.360   4.294  -1.462  0.00  0.00    +0.000 A 
ATOM      7  C   UNL     1       0.792   4.405  -0.667  0.00  0.00    +0.000 A 
BRANCH   5   8
ATOM      8  C   UNL     1      -2.007   2.985  -2.857  0.00  0.00    +0.000 C 
BRANCH   8   9
ATOM      9  C   UNL     1      -2.303   1.608  -3.471  0.00  0.00    +0.000 C 
BRANCH   9  10
ATOM     10  N   UNL     1      -3.573   1.581  -4.187  0.00  0.00    +0.000 N 
ATOM     11  C   UNL     1      -3.836   0.329  -4.746  0.00  0.00    +0.000 A 
ATOM     12  N   UNL     1      -3.394  -0.786  -4.141  0.00  0.00    +0.000 NA
ATOM     13  C   UNL     1      -3.647  -1.962  -4.743  0.00  0.00    +0.000 A 
ATOM     14  C   UNL     1      -4.326  -2.070  -5.927  0.00  0.00    +0.000 A 
ATOM     15  C   UNL     1      -4.740  -0.879  -6.470  0.00  0.00    +0.000 A 
ATOM     16  N   UNL     1      -4.502   0.325  -5.908  0.00  0.00    +0.000 NA
ATOM     17  H   UNL     1      -3.670   2.242  -4.951  0.00  0.00    +0.000 HD
ENDBRANCH   9  10
ENDBRANCH   8   9
ENDBRANCH   5   8
ENDBRANCH   1   2
BRANCH   1  20
ATOM     18  C   UNL     1       5.210   3.877   0.491  0.00  0.00    +0.000 C 
ATOM     19  O   UNL     1       5.296   3.587   1.682  0.00  0.00    +0.000 OA
ATOM     20  N   UNL     1       4.017   3.786  -0.180  0.00  0.00    +0.000 N 
ATOM     21  H   UNL     1       3.965   3.997  -1.166  0.00  0.00    +0.000 HD
BRANCH  18  29
ATOM     22  C   UNL     1       5.718   4.681  -2.810  0.00  0.00    +0.000 A 
ATOM     23  N   UNL     1       6.138   5.166  -3.994  0.00  0.00    +0.000 NA
ATOM     24  C   UNL     1       7.378   5.661  -4.062  0.00  0.00    +0.000 A 
ATOM     25  N   UNL     1       8.277   5.711  -3.081  0.00  0.00    +0.000 NA
ATOM     26  C   UNL     1       7.809   5.232  -1.916  0.00  0.00    +0.000 A 
ATOM     27  S   UNL     1       8.823   5.193  -0.554  0.00  0.00    +0.000 S 
ATOM     28  C   UNL     1       7.581   4.547   0.412  0.00  0.00    +0.000 A 
ATOM     29  C   UNL     1       6.379   4.365  -0.263  0.00  0.00    +0.000 A 
ATOM     30  C   UNL     1       6.537   4.727  -1.669  0.00  0.00    +0.000 A 
BRANCH  22  32
ATOM     31  C   UNL     1       3.992   3.617  -3.972  0.00  0.00    +0.000 C 
ATOM     32  O   UNL     1       4.445   4.160  -2.735  0.00  0.00    +0.000 OA
ENDBRANCH  22  32
ENDBRANCH  18  29
ENDBRANCH   1  20
TORSDOF 7
