REMARK  Name = 
REMARK  7 active torsions:
REMARK  status: ('A' for Active; 'I' for Inactive)
REMARK    1  A    between atoms: C_1  and  N_2
REMARK    2  A    between atoms: N_2  and  C_3
REMARK    3  A    between atoms: C_3  and  C_4
REMARK    4  A    between atoms: C_8  and  C_9
REMARK    5  A    between atoms: C_9  and  O_10
REMARK    6  A    between atoms: O_10  and  C_11
REMARK    7  A    between atoms: C_14  and  C_15
REMARK                            x       y       z     vdW  Elec       q    Type
REMARK                         _______ _______ _______ _____ _____    ______ ____
ROOT
ATOM      1  O   UNL     1       6.368  -2.493  -3.073  0.00  0.00    +0.000 OA
ENDROOT
BRANCH   1   2
ATOM      2  C   UNL     1       6.893  -3.631  -3.612  0.00  0.00    +0.000 A 
ATOM      3  C   UNL     1       8.244  -3.926  -3.753  0.00  0.00    +0.000 A 
ATOM      4  C   UNL     1       8.636  -5.126  -4.358  0.00  0.00    +0.000 A 
ATOM      5  C   UNL     1       7.677  -6.042  -4.811  0.00  0.00    +0.000 A 
ATOM      6  C   UNL     1       6.319  -5.751  -4.656  0.00  0.00    +0.000 A 
ATOM      7  C   UNL     1       5.934  -4.545  -4.065  0.00  0.00    +0.000 A 
BRANCH   5   8
ATOM      8  C   UNL     1       8.144  -7.272  -5.498  0.00  0.00    +0.000 C 
ATOM      9  N   UNL     1       7.335  -8.371  -5.453  0.00  0.00    +0.000 N 
ATOM     10  O   UNL     1       9.226  -7.310  -6.073  0.00  0.00    +0.000 OA
ATOM     11  H   UNL     1       6.501  -8.436  -4.889  0.00  0.00    +0.000 HD
ATOM     12  H   UNL     1       7.685  -9.213  -5.891  0.00  0.00    +0.000 HD
ENDBRANCH   5   8
ENDBRANCH   1   2
BRANCH   1  13
ATOM     13  C   UNL     1       7.274  -1.564  -2.471  0.00  0.00    +0.000 C 
BRANCH  13  18
ATOM     14  C   UNL     1       4.527   0.429  -0.738  0.00  0.00    +0.000 A 
ATOM     15  C   UNL     1       5.159   1.673  -0.684  0.00  0.00    +0.000 A 
ATOM     16  C   UNL     1       6.431   1.797  -1.215  0.00  0.00    +0.000 A 
ATOM     17  N   UNL     1       7.117   0.781  -1.780  0.00  0.00    +0.000 NA
ATOM     18  C   UNL     1       6.499  -0.425  -1.842  0.00  0.00    +0.000 A 
ATOM     19  C   UNL     1       5.224  -0.636  -1.314  0.00  0.00    +0.000 A 
BRANCH  14  20
ATOM     20  C   UNL     1       3.138   0.221  -0.183  0.00  0.00    +0.000 C 
BRANCH  20  22
ATOM     21  C   UNL     1       0.823   0.855  -0.324  0.00  0.00    +0.000 C 
ATOM     22  N   UNL     1       2.157   1.064  -0.865  0.00  0.00    +0.000 NA
ATOM     23  H   UNL     1       2.414   2.042  -0.750  0.00  0.00    +0.000 HD
ENDBRANCH  20  22
ENDBRANCH  14  20
ENDBRANCH  13  18
ENDBRANCH   1  13
TORSDOF 6
