REMARK  Name = 
REMARK  5 active torsions:
REMARK  status: ('A' for Active; 'I' for Inactive)
REMARK    1  A    between atoms: C_1  and  C_2
REMARK    2  A    between atoms: C_4  and  C_5
REMARK    3  A    between atoms: N_10  and  C_11
REMARK    4  A    between atoms: C_11  and  C_12
REMARK    5  A    between atoms: C_14  and  C_15
REMARK                            x       y       z     vdW  Elec       q    Type
REMARK                         _______ _______ _______ _____ _____    ______ ____
ROOT
ATOM      1  C   UNL     1      -2.252  -0.239  -0.552  0.00  0.00    +0.000 C 
ATOM      2  C   UNL     1      -0.822  -0.165  -0.111  0.00  0.00    +0.000 A 
ATOM      3  C   UNL     1      -0.171  -1.275   0.360  0.00  0.00    +0.000 A 
ATOM      4  C   UNL     1       1.136  -1.069   0.739  0.00  0.00    +0.000 A 
ATOM      5  N   UNL     1       1.778   0.125   0.681  0.00  0.00    +0.000 NA
ATOM      6  C   UNL     1       1.053   1.149   0.226  0.00  0.00    +0.000 A 
ATOM      7  N   UNL     1       1.579   2.431   0.184  0.00  0.00    +0.000 N 
ATOM      8  N   UNL     1      -0.219   1.041  -0.185  0.00  0.00    +0.000 NA
ATOM      9  H   UNL     1       0.983   2.955  -0.449  0.00  0.00    +0.000 HD
ENDROOT
BRANCH   4  10
ATOM     10  C   UNL     1       1.921  -2.225   1.272  0.00  0.00    +0.000 C 
ATOM     11  N   UNL     1       3.214  -1.952   1.626  0.00  0.00    +0.000 N 
ATOM     12  O   UNL     1       1.445  -3.348   1.390  0.00  0.00    +0.000 OA
ATOM     13  H   UNL     1       3.567  -1.006   1.549  0.00  0.00    +0.000 HD
ATOM     14  H   UNL     1       3.786  -2.683   2.022  0.00  0.00    +0.000 HD
ENDBRANCH   4  10
BRANCH   7  15
ATOM     15  C   UNL     1       2.995   2.517  -0.103  0.00  0.00    +0.000 C 
BRANCH  15  16
ATOM     16  C   UNL     1       3.398   3.967  -0.209  0.00  0.00    +0.000 A 
ATOM     17  C   UNL     1       3.740   4.710   0.937  0.00  0.00    +0.000 A 
ATOM     18  C   UNL     1       4.106   6.073   0.871  0.00  0.00    +0.000 A 
ATOM     19  C   UNL     1       4.107   6.676  -0.401  0.00  0.00    +0.000 A 
ATOM     20  C   UNL     1       3.766   5.953  -1.549  0.00  0.00    +0.000 A 
ATOM     21  C   UNL     1       3.412   4.613  -1.443  0.00  0.00    +0.000 A 
ATOM     22  F   UNL     1       3.081   3.942  -2.555  0.00  0.00    +0.000 F 
BRANCH  18  23
ATOM     23  C   UNL     1       4.479   6.828   2.090  0.00  0.00    +0.000 A 
ATOM     24  C   UNL     1       3.905   6.560   3.342  0.00  0.00    +0.000 A 
ATOM     25  C   UNL     1       4.301   7.265   4.479  0.00  0.00    +0.000 A 
ATOM     26  C   UNL     1       5.264   8.247   4.341  0.00  0.00    +0.000 A 
ATOM     27  N   UNL     1       5.841   8.559   3.165  0.00  0.00    +0.000 NA
ATOM     28  C   UNL     1       5.440   7.844   2.081  0.00  0.00    +0.000 A 
ENDBRANCH  18  23
ENDBRANCH  15  16
ENDBRANCH   7  15
TORSDOF 4
