REMARK  Name = 
REMARK  6 active torsions:
REMARK  status: ('A' for Active; 'I' for Inactive)
REMARK    1  A    between atoms: C_1  and  C_2
REMARK    2  A    between atoms: C_2  and  C_3
REMARK    3  A    between atoms: C_2  and  C_4
REMARK    4  A    between atoms: C_2  and  C_15
REMARK    5  A    between atoms: C_5  and  C_6
REMARK    6  A    between atoms: C_10  and  C_11
REMARK                            x       y       z     vdW  Elec       q    Type
REMARK                         _______ _______ _______ _____ _____    ______ ____
ROOT
ATOM      1  C   UNL     1       3.031   1.445   0.320  0.00  0.00    +0.000 C 
ATOM      2  C   UNL     1       3.328   2.066   1.475  0.00  0.00    +0.000 C 
ENDROOT
BRANCH   2   3
ATOM      3  C   UNL     1       3.803   3.458   1.523  0.00  0.00    +0.000 A 
ATOM      4  C   UNL     1       4.070   4.089   2.737  0.00  0.00    +0.000 A 
ATOM      5  N   UNL     1       4.503   5.372   2.827  0.00  0.00    +0.000 NA
ATOM      6  C   UNL     1       4.666   6.012   1.640  0.00  0.00    +0.000 A 
ATOM      7  C   UNL     1       4.408   5.393   0.428  0.00  0.00    +0.000 A 
ATOM      8  N   UNL     1       3.971   4.105   0.339  0.00  0.00    +0.000 NA
BRANCH   7   9
ATOM      9  C   UNL     1       4.605   6.144  -0.843  0.00  0.00    +0.000 C 
ATOM     10  N   UNL     1       4.342   5.454  -2.000  0.00  0.00    +0.000 N 
ATOM     11  O   UNL     1       4.979   7.308  -0.861  0.00  0.00    +0.000 OA
ATOM     12  H   UNL     1       4.038   4.490  -1.966  0.00  0.00    +0.000 HD
ATOM     13  H   UNL     1       4.462   5.923  -2.887  0.00  0.00    +0.000 HD
ENDBRANCH   7   9
ENDBRANCH   2   3
BRANCH   1  15
ATOM     14  C   UNL     1       0.987   0.101   0.025  0.00  0.00    +0.000 C 
ATOM     15  C   UNL     1       2.528   0.021   0.111  0.00  0.00    +0.000 C 
ATOM     16  C   UNL     1       3.044  -0.442  -1.276  0.00  0.00    +0.000 C 
BRANCH  15  17
ATOM     17  C   UNL     1       3.015  -0.975   1.182  0.00  0.00    +0.000 A 
ATOM     18  C   UNL     1       2.127  -1.705   1.999  0.00  0.00    +0.000 A 
ATOM     19  C   UNL     1       2.588  -2.636   2.936  0.00  0.00    +0.000 A 
ATOM     20  C   UNL     1       3.952  -2.857   3.083  0.00  0.00    +0.000 A 
ATOM     21  C   UNL     1       4.842  -2.140   2.296  0.00  0.00    +0.000 A 
ATOM     22  F   UNL     1       6.158  -2.350   2.435  0.00  0.00    +0.000 F 
ATOM     23  C   UNL     1       4.392  -1.210   1.362  0.00  0.00    +0.000 A 
ENDBRANCH  15  17
ENDBRANCH   1  15
TORSDOF 4
