REMARK  Name = 
REMARK  5 active torsions:
REMARK  status: ('A' for Active; 'I' for Inactive)
REMARK    1  A    between atoms: N_1  and  C_2
REMARK    2  A    between atoms: C_2  and  C_3
REMARK    3  A    between atoms: C_3  and  C_4
REMARK    4  A    between atoms: C_8  and  C_9
REMARK    5  A    between atoms: C_9  and  N_10
REMARK                            x       y       z     vdW  Elec       q    Type
REMARK                         _______ _______ _______ _____ _____    ______ ____
ROOT
ATOM      1  C   UNL     1       4.431  -1.426   0.028  0.00  0.00    +0.000 C 
ATOM      2  C   UNL     1       5.151  -1.471  -1.112  0.00  0.00    +0.000 C 
ATOM      3  C   UNL     1       6.585  -1.515  -1.048  0.00  0.00    +0.000 C 
ATOM      4  C   UNL     1       7.467  -1.252  -2.012  0.00  0.00    +0.000 C 
ATOM      5  C   UNL     1       8.874  -1.263  -1.479  0.00  0.00    +0.000 C 
ATOM      6  C   UNL     1       8.653  -1.289   0.053  0.00  0.00    +0.000 C 
ATOM      7  C   UNL     1       7.246  -1.860   0.256  0.00  0.00    +0.000 C 
ATOM      8  C   UNL     1       6.486  -1.306   1.469  0.00  0.00    +0.000 C 
ATOM      9  N   UNL     1       5.040  -1.441   1.283  0.00  0.00    +0.000 N 
ATOM     10  H   UNL     1       4.466  -1.079   2.040  0.00  0.00    +0.000 HD
ENDROOT
BRANCH   1  11
ATOM     11  C   UNL     1       2.917  -1.342  -0.019  0.00  0.00    +0.000 C 
BRANCH  11  12
ATOM     12  C   UNL     1       2.260  -2.480   0.776  0.00  0.00    +0.000 C 
BRANCH  12  13
ATOM     13  N   UNL     1       0.798  -2.421   0.696  0.00  0.00    +0.000 NA
ATOM     14  H   UNL     1       0.412  -3.203   1.216  0.00  0.00    +0.000 HD
ATOM     15  H   UNL     1       0.511  -2.557  -0.273  0.00  0.00    +0.000 HD
ENDBRANCH  12  13
ENDBRANCH  11  12
ENDBRANCH   1  11
BRANCH   5  16
ATOM     16  C   UNL     1       9.654  -0.024  -1.950  0.00  0.00    +0.000 C 
BRANCH  16  17
ATOM     17  N   UNL     1      11.023   0.012  -1.440  0.00  0.00    +0.000 NA
ATOM     18  H   UNL     1      11.012   0.064  -0.423  0.00  0.00    +0.000 HD
ATOM     19  H   UNL     1      11.471   0.871  -1.759  0.00  0.00    +0.000 HD
ENDBRANCH  16  17
ENDBRANCH   5  16
TORSDOF 5
