REMARK  Name = 
REMARK  9 active torsions:
REMARK  status: ('A' for Active; 'I' for Inactive)
REMARK    1  A    between atoms: C_1  and  C_2
REMARK    2  A    between atoms: C_2  and  C_3
REMARK    3  A    between atoms: C_2  and  C_22
REMARK    4  A    between atoms: C_3  and  N_4
REMARK    5  A    between atoms: N_4  and  C_5
REMARK    6  A    between atoms: C_9  and  C_10
REMARK    7  A    between atoms: C_13  and  O_14
REMARK    8  A    between atoms: O_14  and  C_15
REMARK    9  A    between atoms: C_26  and  O_27
REMARK                            x       y       z     vdW  Elec       q    Type
REMARK                         _______ _______ _______ _____ _____    ______ ____
ROOT
ATOM      1  C   UNL     1       2.865  -3.748  -0.637  0.00  0.00    +0.000 A 
ATOM      2  C   UNL     1       1.840  -4.619  -1.015  0.00  0.00    +0.000 A 
ATOM      3  N   UNL     1       2.001  -5.756  -1.724  0.00  0.00    +0.000 NA
ATOM      4  C   UNL     1       3.264  -6.041  -2.112  0.00  0.00    +0.000 A 
ATOM      5  C   UNL     1       4.385  -5.255  -1.839  0.00  0.00    +0.000 A 
ATOM      6  C   UNL     1       4.148  -4.084  -1.092  0.00  0.00    +0.000 A 
ENDROOT
BRANCH   5   7
ATOM      7  C   UNL     1       5.735  -5.653  -2.291  0.00  0.00    +0.000 A 
ATOM      8  C   UNL     1       6.679  -4.711  -2.737  0.00  0.00    +0.000 A 
ATOM      9  C   UNL     1       7.969  -5.093  -3.138  0.00  0.00    +0.000 A 
ATOM     10  C   UNL     1       8.354  -6.429  -3.078  0.00  0.00    +0.000 A 
ATOM     11  C   UNL     1       7.415  -7.384  -2.694  0.00  0.00    +0.000 A 
ATOM     12  C   UNL     1       6.130  -7.002  -2.298  0.00  0.00    +0.000 A 
BRANCH  10  13
ATOM     13  O   UNL     1       9.573  -6.935  -3.405  0.00  0.00    +0.000 OA
BRANCH  13  14
ATOM     14  C   UNL     1      10.735  -6.143  -3.208  0.00  0.00    +0.000 C 
ATOM     15  F   UNL     1      10.527  -5.017  -2.494  0.00  0.00    +0.000 F 
ATOM     16  F   UNL     1      11.650  -6.886  -2.544  0.00  0.00    +0.000 F 
ATOM     17  F   UNL     1      11.257  -5.809  -4.407  0.00  0.00    +0.000 F 
ENDBRANCH  13  14
ENDBRANCH  10  13
ENDBRANCH   5   7
BRANCH   1  18
ATOM     18  N   UNL     1       2.675  -2.535   0.045  0.00  0.00    +0.000 N 
ATOM     19  H   UNL     1       3.426  -2.370   0.717  0.00  0.00    +0.000 HD
BRANCH  18  20
ATOM     20  C   UNL     1       1.342  -2.251   0.582  0.00  0.00    +0.000 C 
BRANCH  20  22
ATOM     21  C   UNL     1       1.594   0.280   0.406  0.00  0.00    +0.000 C 
ATOM     22  C   UNL     1       1.255  -0.900   1.325  0.00  0.00    +0.000 C 
BRANCH  22  23
ATOM     23  C   UNL     1       2.011  -0.919   2.644  0.00  0.00    +0.000 A 
ATOM     24  C   UNL     1       1.382  -1.439   3.789  0.00  0.00    +0.000 A 
ATOM     25  C   UNL     1       2.045  -1.480   5.018  0.00  0.00    +0.000 A 
ATOM     26  C   UNL     1       3.353  -1.008   5.121  0.00  0.00    +0.000 A 
ATOM     27  C   UNL     1       3.985  -0.510   3.988  0.00  0.00    +0.000 A 
ATOM     28  C   UNL     1       3.329  -0.459   2.762  0.00  0.00    +0.000 A 
BRANCH  27  29
ATOM     29  O   UNL     1       5.274  -0.063   4.028  0.00  0.00    +0.000 OA
ATOM     30  H   UNL     1       5.620  -0.201   4.925  0.00  0.00    +0.000 HD
ENDBRANCH  27  29
ENDBRANCH  22  23
ENDBRANCH  20  22
ENDBRANCH  18  20
ENDBRANCH   1  18
TORSDOF 8
