REMARK  Name = 
REMARK  4 active torsions:
REMARK  status: ('A' for Active; 'I' for Inactive)
REMARK    1  A    between atoms: C_2  and  C_3
REMARK    2  A    between atoms: C_5  and  C_6
REMARK    3  A    between atoms: C_6  and  N_7
REMARK    4  A    between atoms: C_12  and  C_13
REMARK                            x       y       z     vdW  Elec       q    Type
REMARK                         _______ _______ _______ _____ _____    ______ ____
ROOT
ATOM      1  N   UNL     1       1.952   3.869   0.120  0.00  0.00    +0.000 N 
ATOM      2  N   UNL     1       2.096   4.770  -0.879  0.00  0.00    +0.000 NA
ATOM      3  C   UNL     1       1.241   5.741  -0.554  0.00  0.00    +0.000 A 
ATOM      4  C   UNL     1       0.570   5.495   0.663  0.00  0.00    +0.000 A 
ATOM      5  C   UNL     1      -0.416   6.162   1.417  0.00  0.00    +0.000 A 
ATOM      6  C   UNL     1      -0.875   5.581   2.610  0.00  0.00    +0.000 A 
ATOM      7  C   UNL     1      -0.330   4.362   3.042  0.00  0.00    +0.000 A 
ATOM      8  C   UNL     1       0.665   3.695   2.312  0.00  0.00    +0.000 A 
ATOM      9  C   UNL     1       1.080   4.278   1.108  0.00  0.00    +0.000 A 
ENDROOT
BRANCH   6  10
ATOM     10  C   UNL     1      -1.944   6.198   3.451  0.00  0.00    +0.000 C 
ATOM     11  N   UNL     1      -2.502   7.379   3.048  0.00  0.00    +0.000 N 
ATOM     12  O   UNL     1      -2.328   5.668   4.488  0.00  0.00    +0.000 OA
ATOM     13  H   UNL     1      -2.261   7.891   2.215  0.00  0.00    +0.000 HD
ATOM     14  H   UNL     1      -3.223   7.766   3.643  0.00  0.00    +0.000 HD
ENDBRANCH   6  10
BRANCH   1  15
ATOM     15  C   UNL     1       2.690   2.611   0.048  0.00  0.00    +0.000 C 
BRANCH  15  18
ATOM     16  C   UNL     1       0.604   0.556  -2.447  0.00  0.00    +0.000 A 
ATOM     17  C   UNL     1       1.408   1.575  -1.910  0.00  0.00    +0.000 A 
ATOM     18  C   UNL     1       1.884   1.493  -0.586  0.00  0.00    +0.000 A 
ATOM     19  C   UNL     1       1.608   0.334   0.155  0.00  0.00    +0.000 A 
ATOM     20  C   UNL     1       0.837  -0.694  -0.389  0.00  0.00    +0.000 A 
ATOM     21  C   UNL     1       0.326  -0.572  -1.678  0.00  0.00    +0.000 A 
ATOM     22  F   UNL     1      -0.446  -1.555  -2.157  0.00  0.00    +0.000 F 
BRANCH  16  24
ATOM     23  N   UNL     1      -0.401   0.839  -4.819  0.00  0.00    +0.000 NA
ATOM     24  C   UNL     1       0.046   0.691  -3.761  0.00  0.00    +0.000 C 
ENDBRANCH  16  24
ENDBRANCH  15  18
ENDBRANCH   1  15
TORSDOF 4
