REMARK  Name = 
REMARK  4 active torsions:
REMARK  status: ('A' for Active; 'I' for Inactive)
REMARK    1  A    between atoms: C_2  and  C_4
REMARK    2  A    between atoms: N_8  and  C_9
REMARK    3  A    between atoms: C_9  and  C_10
REMARK    4  A    between atoms: C_14  and  C_15
REMARK                            x       y       z     vdW  Elec       q    Type
REMARK                         _______ _______ _______ _____ _____    ______ ____
ROOT
ATOM      1  C   UNL     1       4.890   2.582  -5.381  0.00  0.00    +0.000 C 
ATOM      2  C   UNL     1       4.863   4.086  -5.111  0.00  0.00    +0.000 C 
ATOM      3  C   UNL     1       3.604   3.383  -5.484  0.00  0.00    +0.000 C 
ENDROOT
BRANCH   1   8
ATOM      4  C   UNL     1       3.377  -1.676  -2.777  0.00  0.00    +0.000 A 
ATOM      5  C   UNL     1       2.600  -0.754  -3.471  0.00  0.00    +0.000 A 
ATOM      6  C   UNL     1       3.204   0.391  -3.997  0.00  0.00    +0.000 A 
ATOM      7  C   UNL     1       4.566   0.600  -3.811  0.00  0.00    +0.000 A 
ATOM      8  N   UNL     1       5.232   1.756  -4.219  0.00  0.00    +0.000 N 
ATOM      9  N   UNL     1       5.327  -0.287  -3.132  0.00  0.00    +0.000 NA
ATOM     10  C   UNL     1       4.725  -1.395  -2.627  0.00  0.00    +0.000 A 
ATOM     11  H   UNL     1       6.219   1.606  -4.022  0.00  0.00    +0.000 HD
BRANCH   4  13
ATOM     12  N   UNL     1       1.682  -3.416  -2.719  0.00  0.00    +0.000 N 
ATOM     13  C   UNL     1       2.827  -2.905  -2.170  0.00  0.00    +0.000 C 
ATOM     14  O   UNL     1       3.385  -3.464  -1.238  0.00  0.00    +0.000 OA
ATOM     15  H   UNL     1       1.373  -4.311  -2.358  0.00  0.00    +0.000 HD
ATOM     16  H   UNL     1       1.331  -3.132  -3.621  0.00  0.00    +0.000 HD
ENDBRANCH   4  13
ENDBRANCH   1   8
BRANCH   1  17
ATOM     17  C   UNL     1       5.530   2.123  -6.687  0.00  0.00    +0.000 A 
ATOM     18  C   UNL     1       4.910   1.192  -7.525  0.00  0.00    +0.000 A 
ATOM     19  C   UNL     1       5.497   0.879  -8.739  0.00  0.00    +0.000 A 
ATOM     20  N   UNL     1       6.655   1.415  -9.176  0.00  0.00    +0.000 NA
ATOM     21  C   UNL     1       7.292   2.287  -8.358  0.00  0.00    +0.000 A 
ATOM     22  C   UNL     1       6.759   2.646  -7.121  0.00  0.00    +0.000 A 
BRANCH  21  23
ATOM     23  C   UNL     1       8.561   2.846  -8.868  0.00  0.00    +0.000 A 
ATOM     24  C   UNL     1       8.736   3.096 -10.244  0.00  0.00    +0.000 A 
ATOM     25  C   UNL     1       9.933   3.622 -10.741  0.00  0.00    +0.000 A 
ATOM     26  C   UNL     1      10.972   3.900  -9.866  0.00  0.00    +0.000 A 
ATOM     27  F   UNL     1      12.123   4.395 -10.341  0.00  0.00    +0.000 F 
ATOM     28  C   UNL     1      10.837   3.668  -8.505  0.00  0.00    +0.000 A 
ATOM     29  C   UNL     1       9.639   3.145  -8.010  0.00  0.00    +0.000 A 
ENDBRANCH  21  23
ENDBRANCH   1  17
TORSDOF 4
