REMARK  Name = 
REMARK  7 active torsions:
REMARK  status: ('A' for Active; 'I' for Inactive)
REMARK    1  A    between atoms: C_1  and  C_2
REMARK    2  A    between atoms: C_2  and  N_3
REMARK    3  A    between atoms: C_2  and  C_21
REMARK    4  A    between atoms: C_4  and  C_6
REMARK    5  A    between atoms: C_9  and  C_10
REMARK    6  A    between atoms: C_10  and  N_11
REMARK    7  A    between atoms: C_12  and  C_14
REMARK                            x       y       z     vdW  Elec       q    Type
REMARK                         _______ _______ _______ _____ _____    ______ ____
ROOT
ATOM      1  N   UNL     1       3.305  -0.021  -1.300  0.00  0.00    +0.000 N 
ATOM      2  C   UNL     1       2.760  -0.478  -2.481  0.00  0.00    +0.000 C 
ATOM      3  O   UNL     1       1.878  -1.324  -2.558  0.00  0.00    +0.000 OA
ATOM      4  H   UNL     1       3.778   0.877  -1.312  0.00  0.00    +0.000 HD
ENDROOT
BRANCH   2   5
ATOM      5  C   UNL     1       3.290   0.135  -3.721  0.00  0.00    +0.000 A 
ATOM      6  C   UNL     1       4.612   0.559  -3.842  0.00  0.00    +0.000 A 
ATOM      7  C   UNL     1       5.062   1.056  -5.067  0.00  0.00    +0.000 A 
ATOM      8  C   UNL     1       4.181   1.110  -6.148  0.00  0.00    +0.000 A 
ATOM      9  N   UNL     1       2.883   0.722  -6.041  0.00  0.00    +0.000 NA
ATOM     10  C   UNL     1       2.473   0.232  -4.840  0.00  0.00    +0.000 A 
BRANCH   8  11
ATOM     11  C   UNL     1       4.670   1.567  -7.506  0.00  0.00    +0.000 C 
BRANCH  11  12
ATOM     12  N   UNL     1       4.542   2.987  -7.715  0.00  0.00    +0.000 N 
ATOM     13  C   UNL     1       5.515   3.895  -7.378  0.00  0.00    +0.000 C 
ATOM     14  O   UNL     1       6.580   3.579  -6.851  0.00  0.00    +0.000 OA
ATOM     15  H   UNL     1       3.685   3.371  -8.105  0.00  0.00    +0.000 HD
BRANCH  13  16
ATOM     16  C   UNL     1       5.167   5.284  -7.710  0.00  0.00    +0.000 A 
ATOM     17  C   UNL     1       5.977   6.435  -7.525  0.00  0.00    +0.000 A 
ATOM     18  C   UNL     1       5.228   7.487  -7.991  0.00  0.00    +0.000 A 
ATOM     19  N   UNL     1       4.053   6.949  -8.420  0.00  0.00    +0.000 N 
ATOM     20  N   UNL     1       3.981   5.615  -8.266  0.00  0.00    +0.000 NA
ATOM     21  H   UNL     1       3.257   7.430  -8.827  0.00  0.00    +0.000 HD
ENDBRANCH  13  16
ENDBRANCH  11  12
ENDBRANCH   8  11
ENDBRANCH   2   5
BRANCH   1  23
ATOM     22  C   UNL     1       3.180  -1.962   0.226  0.00  0.00    +0.000 C 
ATOM     23  C   UNL     1       2.886  -0.475   0.021  0.00  0.00    +0.000 C 
BRANCH  23  24
ATOM     24  C   UNL     1       1.448  -0.066   0.264  0.00  0.00    +0.000 A 
ATOM     25  C   UNL     1       0.429  -0.918   0.660  0.00  0.00    +0.000 A 
ATOM     26  S   UNL     1      -1.100  -0.162   0.739  0.00  0.00    +0.000 S 
ATOM     27  C   UNL     1      -0.448   1.333   0.255  0.00  0.00    +0.000 A 
ATOM     28  N   UNL     1      -1.243   2.420   0.064  0.00  0.00    +0.000 NA
ATOM     29  C   UNL     1      -0.607   3.478  -0.316  0.00  0.00    +0.000 A 
ATOM     30  N   UNL     1       0.753   3.560  -0.490  0.00  0.00    +0.000 N 
ATOM     31  C   UNL     1       1.602   2.496  -0.280  0.00  0.00    +0.000 A 
ATOM     32  O   UNL     1       2.820   2.607  -0.398  0.00  0.00    +0.000 OA
ATOM     33  C   UNL     1       0.922   1.268   0.091  0.00  0.00    +0.000 A 
ATOM     34  H   UNL     1       1.184   4.430  -0.762  0.00  0.00    +0.000 HD
ENDBRANCH  23  24
ENDBRANCH   1  23
TORSDOF 6
