REMARK  Name = 
REMARK  8 active torsions:
REMARK  status: ('A' for Active; 'I' for Inactive)
REMARK    1  A    between atoms: C_1  and  C_2
REMARK    2  A    between atoms: C_4  and  C_5
REMARK    3  A    between atoms: C_5  and  N_6
REMARK    4  A    between atoms: C_7  and  C_9
REMARK    5  A    between atoms: C_21  and  C_22
REMARK    6  A    between atoms: C_22  and  N_23
REMARK    7  A    between atoms: N_23  and  C_24
REMARK    8  A    between atoms: C_24  and  C_26
REMARK                            x       y       z     vdW  Elec       q    Type
REMARK                         _______ _______ _______ _____ _____    ______ ____
ROOT
ATOM      1  C   UNL     1       2.581   0.204   0.041  0.00  0.00    +0.000 C 
ATOM      2  C   UNL     1       1.081   0.094   0.060  0.00  0.00    +0.000 A 
ATOM      3  C   UNL     1       0.327   1.284   0.065  0.00  0.00    +0.000 A 
ATOM      4  C   UNL     1      -1.074   1.270   0.034  0.00  0.00    +0.000 A 
ATOM      5  C   UNL     1      -1.729   0.036   0.050  0.00  0.00    +0.000 A 
ATOM      6  C   UNL     1      -0.995  -1.155   0.056  0.00  0.00    +0.000 A 
ATOM      7  C   UNL     1       0.413  -1.148   0.039  0.00  0.00    +0.000 A 
ENDROOT
BRANCH   4   8
ATOM      8  C   UNL     1      -1.846   2.565   0.022  0.00  0.00    +0.000 C 
BRANCH   8   9
ATOM      9  N   UNL     1      -2.115   3.019   1.363  0.00  0.00    +0.000 N 
ATOM     10  C   UNL     1      -2.891   4.125   1.602  0.00  0.00    +0.000 C 
ATOM     11  O   UNL     1      -3.424   4.754   0.696  0.00  0.00    +0.000 OA
ATOM     12  H   UNL     1      -1.506   2.668   2.094  0.00  0.00    +0.000 HD
BRANCH  10  13
ATOM     13  C   UNL     1      -3.105   4.478   3.012  0.00  0.00    +0.000 A 
ATOM     14  C   UNL     1      -4.214   5.233   3.371  0.00  0.00    +0.000 A 
ATOM     15  S   UNL     1      -4.345   5.505   5.050  0.00  0.00    +0.000 S 
ATOM     16  C   UNL     1      -2.893   4.670   5.352  0.00  0.00    +0.000 A 
ATOM     17  N   UNL     1      -2.406   4.551   6.617  0.00  0.00    +0.000 NA
ATOM     18  C   UNL     1      -1.283   3.922   6.699  0.00  0.00    +0.000 A 
ATOM     19  N   UNL     1      -0.604   3.393   5.630  0.00  0.00    +0.000 N 
ATOM     20  C   UNL     1      -1.070   3.462   4.340  0.00  0.00    +0.000 A 
ATOM     21  O   UNL     1      -0.461   2.938   3.414  0.00  0.00    +0.000 OA
ATOM     22  C   UNL     1      -2.327   4.174   4.191  0.00  0.00    +0.000 A 
ATOM     23  H   UNL     1       0.269   2.904   5.764  0.00  0.00    +0.000 HD
ENDBRANCH  10  13
ENDBRANCH   8   9
ENDBRANCH   4   8
BRANCH   7  24
ATOM     24  C   UNL     1       1.137  -2.476  -0.009  0.00  0.00    +0.000 C 
BRANCH  24  25
ATOM     25  N   UNL     1       1.385  -3.022   1.316  0.00  0.00    +0.000 N 
ATOM     26  H   UNL     1       1.146  -2.437   2.110  0.00  0.00    +0.000 HD
BRANCH  25  27
ATOM     27  C   UNL     1       1.891  -4.279   1.595  0.00  0.00    +0.000 C 
ATOM     28  S   UNL     1       2.377  -5.400   0.448  0.00  0.00    +0.000 S 
BRANCH  27  29
ATOM     29  C   UNL     1       1.981  -4.618   2.997  0.00  0.00    +0.000 A 
ATOM     30  C   UNL     1       2.461  -5.700   3.714  0.00  0.00    +0.000 A 
ATOM     31  N   UNL     1       2.276  -5.509   5.062  0.00  0.00    +0.000 NA
ATOM     32  C   UNL     1       1.696  -4.336   5.125  0.00  0.00    +0.000 A 
ATOM     33  O   UNL     1       1.489  -3.724   3.928  0.00  0.00    +0.000 OA
ENDBRANCH  27  29
ENDBRANCH  25  27
ENDBRANCH  24  25
ENDBRANCH   7  24
TORSDOF 7
