REMARK  Name = 
REMARK  9 active torsions:
REMARK  status: ('A' for Active; 'I' for Inactive)
REMARK    1  A    between atoms: C_1  and  N_2
REMARK    2  A    between atoms: C_8  and  C_9
REMARK    3  A    between atoms: N_11  and  C_12
REMARK    4  A    between atoms: C_12  and  C_13
REMARK    5  A    between atoms: C_16  and  C_17
REMARK    6  A    between atoms: C_17  and  N_18
REMARK    7  A    between atoms: N_18  and  C_19
REMARK    8  A    between atoms: C_19  and  C_20
REMARK    9  A    between atoms: C_20  and  C_21
REMARK                            x       y       z     vdW  Elec       q    Type
REMARK                         _______ _______ _______ _____ _____    ______ ____
ROOT
ATOM      1  C   UNL     1       6.006  -6.004   0.023  0.00  0.00    +0.000 C 
ENDROOT
BRANCH   1   2
ATOM      2  C   UNL     1       7.297  -6.762   0.041  0.00  0.00    +0.000 A 
ATOM      3  C   UNL     1       7.311  -8.158   0.044  0.00  0.00    +0.000 A 
ATOM      4  C   UNL     1       8.523  -8.838   0.056  0.00  0.00    +0.000 A 
ATOM      5  C   UNL     1       9.703  -8.098   0.070  0.00  0.00    +0.000 A 
ATOM      6  N   UNL     1       9.717  -6.738   0.031  0.00  0.00    +0.000 NA
ATOM      7  C   UNL     1       8.522  -6.110   0.016  0.00  0.00    +0.000 A 
BRANCH   5   8
ATOM      8  C   UNL     1      11.041  -8.822   0.129  0.00  0.00    +0.000 C 
BRANCH   8   9
ATOM      9  N   UNL     1      12.091  -8.102   0.868  0.00  0.00    +0.000 NA
ATOM     10  H   UNL     1      12.115  -7.147   0.493  0.00  0.00    +0.000 HD
BRANCH   9  11
ATOM     11  C   UNL     1      11.754  -7.995   2.299  0.00  0.00    +0.000 C 
BRANCH  11  12
ATOM     12  C   UNL     1      12.780  -7.193   3.155  0.00  0.00    +0.000 C 
ATOM     13  C   UNL     1      14.136  -7.885   3.199  0.00  0.00    +0.000 C 
ATOM     14  O   UNL     1      12.949  -5.861   2.643  0.00  0.00    +0.000 OA
ATOM     15  C   UNL     1      11.939  -5.098   3.291  0.00  0.00    +0.000 C 
ATOM     16  C   UNL     1      11.761  -5.769   4.632  0.00  0.00    +0.000 C 
ATOM     17  O   UNL     1      12.247  -7.104   4.487  0.00  0.00    +0.000 OA
ENDBRANCH  11  12
ENDBRANCH   9  11
ENDBRANCH   8   9
ENDBRANCH   5   8
ENDBRANCH   1   2
BRANCH   1  20
ATOM     18  C   UNL     1       4.748  -6.599  -2.018  0.00  0.00    +0.000 C 
ATOM     19  O   UNL     1       4.421  -7.703  -1.589  0.00  0.00    +0.000 OA
ATOM     20  N   UNL     1       5.563  -5.746  -1.321  0.00  0.00    +0.000 N 
ATOM     21  H   UNL     1       5.704  -4.805  -1.670  0.00  0.00    +0.000 HD
BRANCH  18  29
ATOM     22  C   UNL     1       4.119  -1.081  -3.314  0.00  0.00    +0.000 C 
ATOM     23  N   UNL     1       3.971  -2.386  -3.920  0.00  0.00    +0.000 N 
ATOM     24  C   UNL     1       3.555  -2.514  -5.230  0.00  0.00    +0.000 A 
ATOM     25  N   UNL     1       3.403  -3.631  -5.864  0.00  0.00    +0.000 NA
ATOM     26  C   UNL     1       3.680  -4.738  -5.130  0.00  0.00    +0.000 A 
ATOM     27  S   UNL     1       3.493  -6.297  -5.789  0.00  0.00    +0.000 S 
ATOM     28  C   UNL     1       3.971  -7.035  -4.327  0.00  0.00    +0.000 A 
ATOM     29  C   UNL     1       4.308  -6.125  -3.335  0.00  0.00    +0.000 A 
ATOM     30  C   UNL     1       4.121  -4.776  -3.822  0.00  0.00    +0.000 A 
ATOM     31  C   UNL     1       4.304  -3.498  -3.155  0.00  0.00    +0.000 A 
ATOM     32  O   UNL     1       4.746  -3.404  -2.010  0.00  0.00    +0.000 OA
ENDBRANCH  18  29
ENDBRANCH   1  20
TORSDOF 7
