REMARK  Name = 
REMARK  9 active torsions:
REMARK  status: ('A' for Active; 'I' for Inactive)
REMARK    1  A    between atoms: C_1  and  O_2
REMARK    2  A    between atoms: O_2  and  C_3
REMARK    3  A    between atoms: C_10  and  C_11
REMARK    4  A    between atoms: N_13  and  C_14
REMARK    5  A    between atoms: C_14  and  C_15
REMARK    6  A    between atoms: C_18  and  C_19
REMARK    7  A    between atoms: C_19  and  O_20
REMARK    8  A    between atoms: O_20  and  C_21
REMARK    9  A    between atoms: C_21  and  C_22
REMARK                            x       y       z     vdW  Elec       q    Type
REMARK                         _______ _______ _______ _____ _____    ______ ____
ROOT
ATOM      1  C   UNL     1       2.900  -0.311   3.407  0.00  0.00    +0.000 C 
ENDROOT
BRANCH   1   2
ATOM      2  C   UNL     1       1.796   0.718   3.402  0.00  0.00    +0.000 A 
ATOM      3  C   UNL     1       0.451   0.334   3.488  0.00  0.00    +0.000 A 
ATOM      4  C   UNL     1      -0.569   1.296   3.483  0.00  0.00    +0.000 A 
ATOM      5  C   UNL     1      -0.268   2.661   3.381  0.00  0.00    +0.000 A 
ATOM      6  C   UNL     1       1.076   3.041   3.268  0.00  0.00    +0.000 A 
ATOM      7  C   UNL     1       2.095   2.081   3.272  0.00  0.00    +0.000 A 
BRANCH   5   8
ATOM      8  C   UNL     1      -1.364   3.701   3.377  0.00  0.00    +0.000 C 
BRANCH   8   9
ATOM      9  O   UNL     1      -2.095   3.617   4.597  0.00  0.00    +0.000 OA
BRANCH   9  10
ATOM     10  C   UNL     1      -3.136   4.598   4.667  0.00  0.00    +0.000 C 
BRANCH  10  11
ATOM     11  C   UNL     1      -3.905   4.482   5.967  0.00  0.00    +0.000 A 
ATOM     12  C   UNL     1      -3.274   4.058   7.135  0.00  0.00    +0.000 A 
ATOM     13  C   UNL     1      -4.011   3.969   8.313  0.00  0.00    +0.000 A 
ATOM     14  C   UNL     1      -5.354   4.320   8.301  0.00  0.00    +0.000 A 
ATOM     15  C   UNL     1      -5.905   4.752   7.107  0.00  0.00    +0.000 A 
ATOM     16  N   UNL     1      -5.214   4.848   5.947  0.00  0.00    +0.000 NA
ENDBRANCH  10  11
ENDBRANCH   9  10
ENDBRANCH   8   9
ENDBRANCH   5   8
ENDBRANCH   1   2
BRANCH   1  19
ATOM     17  C   UNL     1       4.167  -1.682   1.798  0.00  0.00    +0.000 C 
ATOM     18  O   UNL     1       4.815  -2.215   2.696  0.00  0.00    +0.000 OA
ATOM     19  N   UNL     1       3.215  -0.741   2.068  0.00  0.00    +0.000 N 
ATOM     20  H   UNL     1       2.749  -0.262   1.311  0.00  0.00    +0.000 HD
BRANCH  17  28
ATOM     21  C   UNL     1       2.692  -0.672  -1.141  0.00  0.00    +0.000 A 
ATOM     22  N   UNL     1       2.301  -0.454  -2.412  0.00  0.00    +0.000 NA
ATOM     23  C   UNL     1       2.916  -1.130  -3.383  0.00  0.00    +0.000 A 
ATOM     24  N   UNL     1       3.900  -2.018  -3.243  0.00  0.00    +0.000 NA
ATOM     25  C   UNL     1       4.266  -2.196  -1.963  0.00  0.00    +0.000 A 
ATOM     26  S   UNL     1       5.510  -3.292  -1.592  0.00  0.00    +0.000 S 
ATOM     27  C   UNL     1       5.368  -2.968   0.070  0.00  0.00    +0.000 A 
ATOM     28  C   UNL     1       4.388  -2.032   0.381  0.00  0.00    +0.000 A 
ATOM     29  C   UNL     1       3.730  -1.572  -0.841  0.00  0.00    +0.000 A 
BRANCH  21  31
ATOM     30  C   UNL     1       0.757   0.467  -0.500  0.00  0.00    +0.000 C 
ATOM     31  O   UNL     1       2.077   0.058  -0.146  0.00  0.00    +0.000 OA
ENDBRANCH  21  31
ENDBRANCH  17  28
ENDBRANCH   1  19
TORSDOF 8
