REMARK  Name = 
REMARK  7 active torsions:
REMARK  status: ('A' for Active; 'I' for Inactive)
REMARK    1  A    between atoms: C_1  and  C_2
REMARK    2  A    between atoms: C_2  and  C_3
REMARK    3  A    between atoms: C_2  and  C_4
REMARK    4  A    between atoms: C_2  and  C_5
REMARK    5  A    between atoms: C_8  and  C_9
REMARK    6  A    between atoms: C_9  and  N_10
REMARK    7  A    between atoms: C_14  and  C_15
REMARK                            x       y       z     vdW  Elec       q    Type
REMARK                         _______ _______ _______ _____ _____    ______ ____
ROOT
ATOM      1  N   UNL     1       2.870   5.743   2.679  0.00  0.00    +0.000 N 
ATOM      2  C   UNL     1       3.203   6.961   3.249  0.00  0.00    +0.000 A 
ATOM      3  N   UNL     1       4.266   7.639   2.792  0.00  0.00    +0.000 NA
ATOM      4  C   UNL     1       4.574   8.799   3.408  0.00  0.00    +0.000 A 
ATOM      5  C   UNL     1       3.842   9.325   4.445  0.00  0.00    +0.000 A 
ATOM      6  C   UNL     1       2.767   8.565   4.838  0.00  0.00    +0.000 A 
ATOM      7  N   UNL     1       2.430   7.386   4.259  0.00  0.00    +0.000 NA
ATOM      8  H   UNL     1       2.328   5.234   3.365  0.00  0.00    +0.000 HD
ENDROOT
BRANCH   5   9
ATOM      9  C   UNL     1       4.262  10.584   5.071  0.00  0.00    +0.000 C 
ATOM     10  N   UNL     1       3.318  11.332   5.713  0.00  0.00    +0.000 N 
ATOM     11  O   UNL     1       5.423  10.967   4.991  0.00  0.00    +0.000 OA
ATOM     12  H   UNL     1       2.323  11.193   5.612  0.00  0.00    +0.000 HD
ATOM     13  H   UNL     1       3.626  12.241   6.042  0.00  0.00    +0.000 HD
ENDBRANCH   5   9
BRANCH   1  14
ATOM     14  C   UNL     1       4.040   5.020   2.193  0.00  0.00    +0.000 C 
BRANCH  14  18
ATOM     15  C   UNL     1       2.943   1.221   0.519  0.00  0.00    +0.000 A 
ATOM     16  C   UNL     1       2.466   2.406  -0.058  0.00  0.00    +0.000 A 
ATOM     17  C   UNL     1       2.816   3.647   0.472  0.00  0.00    +0.000 A 
ATOM     18  C   UNL     1       3.641   3.691   1.589  0.00  0.00    +0.000 A 
ATOM     19  N   UNL     1       4.128   2.570   2.170  0.00  0.00    +0.000 NA
ATOM     20  C   UNL     1       3.777   1.381   1.625  0.00  0.00    +0.000 A 
BRANCH  15  22
ATOM     21  C   UNL     1       2.989  -0.264  -1.515  0.00  0.00    +0.000 C 
ATOM     22  C   UNL     1       2.546  -0.149  -0.041  0.00  0.00    +0.000 C 
ATOM     23  C   UNL     1       1.014  -0.318   0.038  0.00  0.00    +0.000 C 
ATOM     24  C   UNL     1       3.179  -1.332   0.727  0.00  0.00    +0.000 C 
ENDBRANCH  15  22
ENDBRANCH  14  18
ENDBRANCH   1  14
TORSDOF 4
