REMARK  Name = 
REMARK  10 active torsions:
REMARK  status: ('A' for Active; 'I' for Inactive)
REMARK    1  A    between atoms: C_1  and  N_2
REMARK    2  A    between atoms: C_3  and  C_5
REMARK    3  A    between atoms: C_8  and  S_9
REMARK    4  A    between atoms: S_9  and  C_10
REMARK    5  A    between atoms: C_10  and  C_11
REMARK    6  A    between atoms: C_11  and  C_12
REMARK    7  A    between atoms: C_11  and  C_13
REMARK    8  A    between atoms: C_17  and  C_18
REMARK    9  A    between atoms: C_18  and  C_19
REMARK   10  A    between atoms: C_19  and  O_20
REMARK                            x       y       z     vdW  Elec       q    Type
REMARK                         _______ _______ _______ _____ _____    ______ ____
ROOT
ATOM      1  C   UNL     1       9.795  -0.546   0.928  0.00  0.00    +0.000 C 
ENDROOT
BRANCH   1   2
ATOM      2  C   UNL     1      11.339  -0.443   0.925  0.00  0.00    +0.000 C 
ATOM      3  C   UNL     1      11.897   0.281  -0.308  0.00  0.00    +0.000 C 
BRANCH   2   4
ATOM      4  C   UNL     1      11.791   0.233   2.217  0.00  0.00    +0.000 A 
ATOM      5  C   UNL     1      11.395   1.544   2.525  0.00  0.00    +0.000 A 
ATOM      6  C   UNL     1      11.732   2.120   3.748  0.00  0.00    +0.000 A 
ATOM      7  C   UNL     1      12.454   1.389   4.689  0.00  0.00    +0.000 A 
ATOM      8  C   UNL     1      12.852   0.073   4.415  0.00  0.00    +0.000 A 
ATOM      9  C   UNL     1      12.543  -0.484   3.164  0.00  0.00    +0.000 A 
BRANCH   8  10
ATOM     10  C   UNL     1      13.547  -0.748   5.478  0.00  0.00    +0.000 C 
BRANCH  10  11
ATOM     11  C   UNL     1      15.071  -0.661   5.453  0.00  0.00    +0.000 C 
BRANCH  11  12
ATOM     12  O   UNL     1      15.525   0.660   5.720  0.00  0.00    +0.000 OA
ATOM     13  H   UNL     1      15.286   1.198   4.944  0.00  0.00    +0.000 HD
ENDBRANCH  11  12
ENDBRANCH  10  11
ENDBRANCH   8  10
ENDBRANCH   2   4
ENDBRANCH   1   2
BRANCH   1  14
ATOM     14  S   UNL     1       9.137  -1.465  -0.507  0.00  0.00    +0.000 S 
BRANCH  14  18
ATOM     15  C   UNL     1       4.620  -1.641  -0.101  0.00  0.00    +0.000 A 
ATOM     16  C   UNL     1       5.302  -0.940   0.888  0.00  0.00    +0.000 A 
ATOM     17  C   UNL     1       6.695  -0.842   0.804  0.00  0.00    +0.000 A 
ATOM     18  C   UNL     1       7.370  -1.445  -0.259  0.00  0.00    +0.000 A 
ATOM     19  C   UNL     1       6.583  -2.101  -1.208  0.00  0.00    +0.000 A 
ATOM     20  N   UNL     1       5.233  -2.226  -1.162  0.00  0.00    +0.000 NA
BRANCH  15  23
ATOM     21  C   UNL     1       1.133  -2.761  -1.061  0.00  0.00    +0.000 C 
ATOM     22  N   UNL     1       2.557  -2.547  -1.015  0.00  0.00    +0.000 N 
ATOM     23  C   UNL     1       3.132  -1.788  -0.019  0.00  0.00    +0.000 C 
ATOM     24  O   UNL     1       2.494  -1.263   0.892  0.00  0.00    +0.000 OA
ATOM     25  H   UNL     1       3.180  -3.007  -1.670  0.00  0.00    +0.000 HD
ENDBRANCH  15  23
ENDBRANCH  14  18
ENDBRANCH   1  14
TORSDOF 8
