REMARK  Name = 
REMARK  4 active torsions:
REMARK  status: ('A' for Active; 'I' for Inactive)
REMARK    1  A    between atoms: C_1  and  O_2
REMARK    2  A    between atoms: O_2  and  C_3
REMARK    3  A    between atoms: N_9  and  C_10
REMARK    4  A    between atoms: C_10  and  C_11
REMARK                            x       y       z     vdW  Elec       q    Type
REMARK                         _______ _______ _______ _____ _____    ______ ____
ROOT
ATOM      1  C   UNL     1       3.132   0.573   1.234  0.00  0.00    +0.000 A 
ATOM      2  C   UNL     1       2.802   0.584   2.585  0.00  0.00    +0.000 A 
ATOM      3  N   UNL     1       3.398   1.334   3.540  0.00  0.00    +0.000 NA
ATOM      4  C   UNL     1       4.394   2.135   3.092  0.00  0.00    +0.000 A 
ATOM      5  C   UNL     1       5.188   3.041   3.828  0.00  0.00    +0.000 A 
ATOM      6  C   UNL     1       6.041   3.657   2.940  0.00  0.00    +0.000 A 
ATOM      7  N   UNL     1       5.793   3.147   1.684  0.00  0.00    +0.000 N 
ATOM      8  C   UNL     1       4.798   2.192   1.756  0.00  0.00    +0.000 A 
ATOM      9  C   UNL     1       4.184   1.378   0.796  0.00  0.00    +0.000 A 
ENDROOT
BRANCH   1  11
ATOM     10  C   UNL     1       1.163  -0.515   0.528  0.00  0.00    +0.000 C 
ATOM     11  O   UNL     1       2.524  -0.182   0.268  0.00  0.00    +0.000 OA
ENDBRANCH   1  11
BRANCH   7  12
ATOM     12  C   UNL     1       6.403   3.664   0.463  0.00  0.00    +0.000 C 
BRANCH  12  13
ATOM     13  C   UNL     1       7.729   3.008   0.168  0.00  0.00    +0.000 A 
ATOM     14  C   UNL     1       7.803   1.918  -0.714  0.00  0.00    +0.000 A 
ATOM     15  C   UNL     1       9.026   1.295  -0.967  0.00  0.00    +0.000 A 
ATOM     16  C   UNL     1      10.177   1.758  -0.339  0.00  0.00    +0.000 A 
ATOM     17  F   UNL     1      11.345   1.150  -0.573  0.00  0.00    +0.000 F 
ATOM     18  C   UNL     1      10.126   2.840   0.529  0.00  0.00    +0.000 A 
ATOM     19  C   UNL     1       8.906   3.468   0.782  0.00  0.00    +0.000 A 
ENDBRANCH  12  13
ENDBRANCH   7  12
TORSDOF 3
