REMARK  Name = 
REMARK  5 active torsions:
REMARK  status: ('A' for Active; 'I' for Inactive)
REMARK    1  A    between atoms: C_2  and  C_4
REMARK    2  A    between atoms: C_7  and  N_8
REMARK    3  A    between atoms: N_8  and  C_9
REMARK    4  A    between atoms: C_9  and  C_10
REMARK    5  A    between atoms: C_14  and  C_15
REMARK                            x       y       z     vdW  Elec       q    Type
REMARK                         _______ _______ _______ _____ _____    ______ ____
ROOT
ATOM      1  C   UNL     1       4.909  -5.884  -1.852  0.00  0.00    +0.000 C 
ENDROOT
BRANCH   1   2
ATOM      2  C   UNL     1       5.799  -7.090  -1.731  0.00  0.00    +0.000 A 
ATOM      3  C   UNL     1       5.288  -8.377  -1.761  0.00  0.00    +0.000 A 
ATOM      4  N   UNL     1       6.052  -9.487  -1.695  0.00  0.00    +0.000 NA
ATOM      5  C   UNL     1       7.394  -9.302  -1.598  0.00  0.00    +0.000 A 
ATOM      6  C   UNL     1       8.041  -8.065  -1.572  0.00  0.00    +0.000 A 
ATOM      7  C   UNL     1       7.194  -6.949  -1.646  0.00  0.00    +0.000 A 
BRANCH   6   8
ATOM      8  C   UNL     1       9.513  -7.933  -1.476  0.00  0.00    +0.000 A 
ATOM      9  C   UNL     1      10.113  -6.848  -0.804  0.00  0.00    +0.000 A 
ATOM     10  C   UNL     1      11.504  -6.713  -0.714  0.00  0.00    +0.000 A 
ATOM     11  C   UNL     1      12.332  -7.671  -1.288  0.00  0.00    +0.000 A 
ATOM     12  C   UNL     1      11.760  -8.747  -1.950  0.00  0.00    +0.000 A 
ATOM     13  F   UNL     1      12.552  -9.675  -2.502  0.00  0.00    +0.000 F 
ATOM     14  C   UNL     1      10.376  -8.882  -2.053  0.00  0.00    +0.000 A 
ENDBRANCH   6   8
ENDBRANCH   1   2
BRANCH   1  15
ATOM     15  N   UNL     1       5.096  -5.023  -0.693  0.00  0.00    +0.000 N 
ATOM     16  H   UNL     1       4.893  -5.478   0.194  0.00  0.00    +0.000 HD
BRANCH  15  20
ATOM     17  C   UNL     1       4.573  -0.901  -0.664  0.00  0.00    +0.000 A 
ATOM     18  C   UNL     1       4.348  -1.568  -1.858  0.00  0.00    +0.000 A 
ATOM     19  C   UNL     1       4.481  -2.957  -1.879  0.00  0.00    +0.000 A 
ATOM     20  C   UNL     1       4.809  -3.663  -0.718  0.00  0.00    +0.000 A 
ATOM     21  C   UNL     1       5.009  -2.880   0.428  0.00  0.00    +0.000 A 
ATOM     22  N   UNL     1       4.895  -1.528   0.499  0.00  0.00    +0.000 NA
BRANCH  17  24
ATOM     23  N   UNL     1       4.806   1.180   0.558  0.00  0.00    +0.000 N 
ATOM     24  C   UNL     1       4.495   0.593  -0.638  0.00  0.00    +0.000 C 
ATOM     25  O   UNL     1       4.188   1.256  -1.621  0.00  0.00    +0.000 OA
ATOM     26  H   UNL     1       4.807   2.186   0.630  0.00  0.00    +0.000 HD
ATOM     27  H   UNL     1       5.087   0.602   1.341  0.00  0.00    +0.000 HD
ENDBRANCH  17  24
ENDBRANCH  15  20
ENDBRANCH   1  15
TORSDOF 5
