REMARK  Name = 
REMARK  6 active torsions:
REMARK  status: ('A' for Active; 'I' for Inactive)
REMARK    1  A    between atoms: C_2  and  C_19
REMARK    2  A    between atoms: N_3  and  C_4
REMARK    3  A    between atoms: C_4  and  C_5
REMARK    4  A    between atoms: C_8  and  C_9
REMARK    5  A    between atoms: C_9  and  O_10
REMARK    6  A    between atoms: O_10  and  C_11
REMARK                            x       y       z     vdW  Elec       q    Type
REMARK                         _______ _______ _______ _____ _____    ______ ____
ROOT
ATOM      1  O   UNL     1       0.200   2.631  -2.494  0.00  0.00    +0.000 OA
ATOM      2  C   UNL     1       0.116   1.503  -2.971  0.00  0.00    +0.000 C 
ATOM      3  N   UNL     1       1.123   0.579  -2.863  0.00  0.00    +0.000 N 
ATOM      4  H   UNL     1       1.086  -0.258  -3.433  0.00  0.00    +0.000 HD
ENDROOT
BRANCH   2   5
ATOM      5  C   UNL     1      -1.107   1.048  -3.645  0.00  0.00    +0.000 A 
ATOM      6  C   UNL     1      -2.316   1.676  -3.377  0.00  0.00    +0.000 A 
ATOM      7  S   UNL     1      -3.636   1.007  -4.224  0.00  0.00    +0.000 S 
ATOM      8  C   UNL     1      -2.630  -0.114  -5.017  0.00  0.00    +0.000 A 
ATOM      9  N   UNL     1      -3.138  -0.991  -5.924  0.00  0.00    +0.000 NA
ATOM     10  C   UNL     1      -2.258  -1.752  -6.483  0.00  0.00    +0.000 A 
ATOM     11  N   UNL     1      -0.915  -1.723  -6.208  0.00  0.00    +0.000 N 
ATOM     12  C   UNL     1      -0.367  -0.909  -5.246  0.00  0.00    +0.000 A 
ATOM     13  O   UNL     1       0.815  -1.004  -4.935  0.00  0.00    +0.000 OA
ATOM     14  C   UNL     1      -1.309   0.002  -4.621  0.00  0.00    +0.000 A 
ATOM     15  H   UNL     1      -0.281  -2.366  -6.659  0.00  0.00    +0.000 HD
ENDBRANCH   2   5
BRANCH   3  16
ATOM     16  C   UNL     1       2.409   0.896  -2.296  0.00  0.00    +0.000 C 
BRANCH  16  17
ATOM     17  C   UNL     1       3.390   1.298  -3.365  0.00  0.00    +0.000 A 
ATOM     18  C   UNL     1       3.501   2.641  -3.747  0.00  0.00    +0.000 A 
ATOM     19  C   UNL     1       4.399   3.023  -4.745  0.00  0.00    +0.000 A 
ATOM     20  C   UNL     1       5.189   2.066  -5.394  0.00  0.00    +0.000 A 
ATOM     21  C   UNL     1       5.080   0.722  -5.013  0.00  0.00    +0.000 A 
ATOM     22  C   UNL     1       4.179   0.340  -4.015  0.00  0.00    +0.000 A 
BRANCH  20  23
ATOM     23  C   UNL     1       6.126   2.475  -6.502  0.00  0.00    +0.000 C 
BRANCH  23  24
ATOM     24  O   UNL     1       7.400   2.818  -5.962  0.00  0.00    +0.000 OA
BRANCH  24  25
ATOM     25  C   UNL     1       8.341   3.230  -6.865  0.00  0.00    +0.000 A 
ATOM     26  C   UNL     1       8.181   3.299  -8.250  0.00  0.00    +0.000 A 
ATOM     27  C   UNL     1       9.235   3.741  -9.046  0.00  0.00    +0.000 A 
ATOM     28  C   UNL     1      10.423   4.103  -8.432  0.00  0.00    +0.000 A 
ATOM     29  N   UNL     1      10.619   4.050  -7.099  0.00  0.00    +0.000 NA
ATOM     30  C   UNL     1       9.574   3.615  -6.350  0.00  0.00    +0.000 A 
ENDBRANCH  24  25
ENDBRANCH  23  24
ENDBRANCH  20  23
ENDBRANCH  16  17
ENDBRANCH   3  16
TORSDOF 6
