REMARK  Name = 
REMARK  6 active torsions:
REMARK  status: ('A' for Active; 'I' for Inactive)
REMARK    1  A    between atoms: C_1  and  N_2
REMARK    2  A    between atoms: C_8  and  C_9
REMARK    3  A    between atoms: N_11  and  C_12
REMARK    4  A    between atoms: C_12  and  C_13
REMARK    5  A    between atoms: C_16  and  O_17
REMARK    6  A    between atoms: O_17  and  C_18
REMARK                            x       y       z     vdW  Elec       q    Type
REMARK                         _______ _______ _______ _____ _____    ______ ____
ROOT
ATOM      1  C   UNL     1       4.962  -6.634  -1.887  0.00  0.00    +0.000 C 
ATOM      2  O   UNL     1       4.637  -7.719  -1.408  0.00  0.00    +0.000 OA
ATOM      3  N   UNL     1       5.805  -5.764  -1.240  0.00  0.00    +0.000 N 
ATOM      4  H   UNL     1       5.937  -4.835  -1.621  0.00  0.00    +0.000 HD
ENDROOT
BRANCH   1  12
ATOM      5  C   UNL     1       4.310  -1.164  -3.405  0.00  0.00    +0.000 C 
ATOM      6  N   UNL     1       4.145  -2.496  -3.948  0.00  0.00    +0.000 N 
ATOM      7  C   UNL     1       3.693  -2.678  -5.240  0.00  0.00    +0.000 A 
ATOM      8  N   UNL     1       3.521  -3.822  -5.819  0.00  0.00    +0.000 NA
ATOM      9  C   UNL     1       3.819  -4.895  -5.046  0.00  0.00    +0.000 A 
ATOM     10  S   UNL     1       3.609  -6.480  -5.632  0.00  0.00    +0.000 S 
ATOM     11  C   UNL     1       4.129  -7.156  -4.154  0.00  0.00    +0.000 A 
ATOM     12  C   UNL     1       4.494  -6.206  -3.210  0.00  0.00    +0.000 A 
ATOM     13  C   UNL     1       4.296  -4.879  -3.750  0.00  0.00    +0.000 A 
ATOM     14  C   UNL     1       4.496  -3.574  -3.142  0.00  0.00    +0.000 A 
ATOM     15  O   UNL     1       4.969  -3.434  -2.016  0.00  0.00    +0.000 OA
ENDBRANCH   1  12
BRANCH   3  16
ATOM     16  C   UNL     1       6.259  -5.976   0.109  0.00  0.00    +0.000 C 
BRANCH  16  17
ATOM     17  C   UNL     1       7.547  -6.749   0.146  0.00  0.00    +0.000 A 
ATOM     18  C   UNL     1       7.571  -8.147   0.202  0.00  0.00    +0.000 A 
ATOM     19  C   UNL     1       8.788  -8.827   0.202  0.00  0.00    +0.000 A 
ATOM     20  C   UNL     1       9.946  -8.078   0.118  0.00  0.00    +0.000 A 
ATOM     21  N   UNL     1       9.956  -6.727   0.083  0.00  0.00    +0.000 NA
ATOM     22  C   UNL     1       8.768  -6.094   0.086  0.00  0.00    +0.000 A 
BRANCH  20  23
ATOM     23  O   UNL     1      11.156  -8.756   0.056  0.00  0.00    +0.000 OA
BRANCH  23  24
ATOM     24  C   UNL     1      12.137  -7.975  -0.636  0.00  0.00    +0.000 C 
ATOM     25  C   UNL     1      12.921  -7.063   0.318  0.00  0.00    +0.000 C 
ATOM     26  C   UNL     1      13.813  -6.168  -0.530  0.00  0.00    +0.000 C 
ATOM     27  C   UNL     1      14.741  -6.999  -1.423  0.00  0.00    +0.000 C 
ATOM     28  N   UNL     1      14.052  -8.039  -2.195  0.00  0.00    +0.000 NA
ATOM     29  C   UNL     1      13.161  -8.863  -1.361  0.00  0.00    +0.000 C 
ATOM     30  H   UNL     1      14.738  -8.633  -2.659  0.00  0.00    +0.000 HD
ENDBRANCH  23  24
ENDBRANCH  20  23
ENDBRANCH  16  17
ENDBRANCH   3  16
TORSDOF 5
