REMARK  Name = 
REMARK  9 active torsions:
REMARK  status: ('A' for Active; 'I' for Inactive)
REMARK    1  A    between atoms: C_1  and  O_2
REMARK    2  A    between atoms: O_2  and  C_3
REMARK    3  A    between atoms: C_10  and  C_11
REMARK    4  A    between atoms: N_13  and  C_14
REMARK    5  A    between atoms: C_14  and  C_15
REMARK    6  A    between atoms: C_18  and  C_19
REMARK    7  A    between atoms: C_19  and  O_20
REMARK    8  A    between atoms: O_20  and  C_21
REMARK    9  A    between atoms: C_21  and  C_22
REMARK                            x       y       z     vdW  Elec       q    Type
REMARK                         _______ _______ _______ _____ _____    ______ ____
ROOT
ATOM      1  C   UNL     1       2.901  -3.124  -1.424  0.00  0.00    +0.000 C 
ENDROOT
BRANCH   1   2
ATOM      2  C   UNL     1       1.789  -3.362  -0.437  0.00  0.00    +0.000 A 
ATOM      3  C   UNL     1       1.500  -4.652   0.029  0.00  0.00    +0.000 A 
ATOM      4  C   UNL     1       0.492  -4.854   0.977  0.00  0.00    +0.000 A 
ATOM      5  C   UNL     1      -0.250  -3.773   1.474  0.00  0.00    +0.000 A 
ATOM      6  C   UNL     1       0.020  -2.491   0.982  0.00  0.00    +0.000 A 
ATOM      7  C   UNL     1       1.024  -2.287   0.032  0.00  0.00    +0.000 A 
BRANCH   5   8
ATOM      8  C   UNL     1      -1.330  -3.985   2.505  0.00  0.00    +0.000 C 
BRANCH   8   9
ATOM      9  O   UNL     1      -0.779  -4.615   3.656  0.00  0.00    +0.000 OA
BRANCH   9  10
ATOM     10  C   UNL     1      -1.762  -4.762   4.689  0.00  0.00    +0.000 C 
BRANCH  10  11
ATOM     11  C   UNL     1      -1.168  -5.437   5.906  0.00  0.00    +0.000 A 
ATOM     12  N   UNL     1      -0.634  -4.651   6.867  0.00  0.00    +0.000 NA
ATOM     13  C   UNL     1      -0.076  -5.282   7.918  0.00  0.00    +0.000 A 
ATOM     14  C   UNL     1      -0.044  -6.649   8.053  0.00  0.00    +0.000 A 
ATOM     15  C   UNL     1      -0.631  -7.360   7.034  0.00  0.00    +0.000 A 
ATOM     16  N   UNL     1      -1.203  -6.786   5.958  0.00  0.00    +0.000 NA
ENDBRANCH  10  11
ENDBRANCH   9  10
ENDBRANCH   8   9
ENDBRANCH   5   8
ENDBRANCH   1   2
BRANCH   1  19
ATOM     17  C   UNL     1       3.276  -2.899  -3.831  0.00  0.00    +0.000 C 
ATOM     18  O   UNL     1       4.460  -2.637  -3.633  0.00  0.00    +0.000 OA
ATOM     19  N   UNL     1       2.429  -3.149  -2.784  0.00  0.00    +0.000 N 
ATOM     20  H   UNL     1       1.464  -3.408  -2.952  0.00  0.00    +0.000 HD
BRANCH  17  28
ATOM     21  C   UNL     1       0.146  -3.571  -5.123  0.00  0.00    +0.000 A 
ATOM     22  N   UNL     1      -0.940  -3.794  -5.892  0.00  0.00    +0.000 NA
ATOM     23  C   UNL     1      -0.811  -3.678  -7.216  0.00  0.00    +0.000 A 
ATOM     24  N   UNL     1       0.290  -3.357  -7.886  0.00  0.00    +0.000 NA
ATOM     25  C   UNL     1       1.349  -3.150  -7.087  0.00  0.00    +0.000 A 
ATOM     26  S   UNL     1       2.841  -2.726  -7.778  0.00  0.00    +0.000 S 
ATOM     27  C   UNL     1       3.580  -2.652  -6.252  0.00  0.00    +0.000 A 
ATOM     28  C   UNL     1       2.724  -2.944  -5.195  0.00  0.00    +0.000 A 
ATOM     29  C   UNL     1       1.386  -3.237  -5.697  0.00  0.00    +0.000 A 
BRANCH  21  31
ATOM     30  C   UNL     1      -1.335  -3.549  -3.313  0.00  0.00    +0.000 C 
ATOM     31  O   UNL     1       0.012  -3.712  -3.757  0.00  0.00    +0.000 OA
ENDBRANCH  21  31
ENDBRANCH  17  28
ENDBRANCH   1  19
TORSDOF 8
