REMARK  Name = 
REMARK  5 active torsions:
REMARK  status: ('A' for Active; 'I' for Inactive)
REMARK    1  A    between atoms: N_1  and  C_2
REMARK    2  A    between atoms: C_2  and  C_3
REMARK    3  A    between atoms: C_6  and  C_7
REMARK    4  A    between atoms: C_7  and  N_8
REMARK    5  A    between atoms: C_12  and  C_13
REMARK                            x       y       z     vdW  Elec       q    Type
REMARK                         _______ _______ _______ _____ _____    ______ ____
ROOT
ATOM      1  N   UNL     1       4.380  -2.861   5.563  0.00  0.00    +0.000 N 
ATOM      2  C   UNL     1       4.569  -3.737   6.646  0.00  0.00    +0.000 A 
ATOM      3  C   UNL     1       5.168  -3.278   7.828  0.00  0.00    +0.000 A 
ATOM      4  N   UNL     1       5.393  -4.050   8.927  0.00  0.00    +0.000 NA
ATOM      5  C   UNL     1       4.992  -5.344   8.791  0.00  0.00    +0.000 A 
ATOM      6  C   UNL     1       4.411  -5.822   7.628  0.00  0.00    +0.000 A 
ATOM      7  N   UNL     1       4.202  -5.033   6.543  0.00  0.00    +0.000 NA
ATOM      8  H   UNL     1       3.835  -2.060   5.867  0.00  0.00    +0.000 HD
ENDROOT
BRANCH   5   9
ATOM      9  C   UNL     1       5.187  -6.269   9.942  0.00  0.00    +0.000 C 
ATOM     10  N   UNL     1       5.785  -5.729  11.048  0.00  0.00    +0.000 N 
ATOM     11  O   UNL     1       4.835  -7.443   9.907  0.00  0.00    +0.000 OA
ATOM     12  H   UNL     1       6.072  -4.756  11.050  0.00  0.00    +0.000 HD
ATOM     13  H   UNL     1       5.946  -6.312  11.858  0.00  0.00    +0.000 HD
ENDBRANCH   5   9
BRANCH   1  14
ATOM     14  C   UNL     1       3.737  -3.506   4.410  0.00  0.00    +0.000 C 
BRANCH  14  18
ATOM     15  C   UNL     1       2.882  -0.676   1.311  0.00  0.00    +0.000 A 
ATOM     16  C   UNL     1       4.211  -0.922   1.663  0.00  0.00    +0.000 A 
ATOM     17  C   UNL     1       4.507  -1.845   2.665  0.00  0.00    +0.000 A 
ATOM     18  C   UNL     1       3.459  -2.501   3.308  0.00  0.00    +0.000 A 
ATOM     19  N   UNL     1       2.159  -2.275   2.986  0.00  0.00    +0.000 NA
ATOM     20  C   UNL     1       1.905  -1.384   2.000  0.00  0.00    +0.000 A 
BRANCH  15  21
ATOM     21  C   UNL     1       2.510   0.346   0.275  0.00  0.00    +0.000 C 
BRANCH  21  22
ATOM     22  N   UNL     1       3.132   0.075  -1.015  0.00  0.00    +0.000 NA
ATOM     23  H   UNL     1       2.786   0.746  -1.698  0.00  0.00    +0.000 HD
ATOM     24  H   UNL     1       2.835  -0.844  -1.342  0.00  0.00    +0.000 HD
ENDBRANCH  21  22
ENDBRANCH  15  21
ENDBRANCH  14  18
ENDBRANCH   1  14
TORSDOF 5
