REMARK  Name = 
REMARK  4 active torsions:
REMARK  status: ('A' for Active; 'I' for Inactive)
REMARK    1  A    between atoms: C_1  and  N_2
REMARK    2  A    between atoms: C_6  and  C_7
REMARK    3  A    between atoms: C_7  and  C_8
REMARK    4  A    between atoms: C_11  and  O_12
REMARK                            x       y       z     vdW  Elec       q    Type
REMARK                         _______ _______ _______ _____ _____    ______ ____
ROOT
ATOM      1  C   UNL     1       4.593  -1.718   4.719  0.00  0.00    +0.000 C 
ATOM      2  C   UNL     1       5.277  -3.038   5.089  0.00  0.00    +0.000 C 
ATOM      3  C   UNL     1       3.928  -2.735   5.653  0.00  0.00    +0.000 C 
ENDROOT
BRANCH   1   9
ATOM      4  C   UNL     1       2.811  -2.905  -1.314  0.00  0.00    +0.000 C 
ATOM      5  N   UNL     1       2.269  -1.904  -0.416  0.00  0.00    +0.000 N 
ATOM      6  C   UNL     1       2.888  -1.773   0.825  0.00  0.00    +0.000 A 
ATOM      7  C   UNL     1       4.255  -1.797   1.032  0.00  0.00    +0.000 A 
ATOM      8  N   UNL     1       4.854  -1.734   2.247  0.00  0.00    +0.000 NA
ATOM      9  C   UNL     1       4.024  -1.603   3.305  0.00  0.00    +0.000 A 
ATOM     10  N   UNL     1       2.681  -1.502   3.152  0.00  0.00    +0.000 NA
ATOM     11  N   UNL     1       2.110  -1.589   1.900  0.00  0.00    +0.000 NA
ATOM     12  H   UNL     1       1.269  -1.994  -0.241  0.00  0.00    +0.000 HD
ENDBRANCH   1   9
BRANCH   1  13
ATOM     13  C   UNL     1       5.125  -0.443   5.358  0.00  0.00    +0.000 A 
ATOM     14  C   UNL     1       4.289   0.448   6.045  0.00  0.00    +0.000 A 
ATOM     15  C   UNL     1       4.819   1.554   6.711  0.00  0.00    +0.000 A 
ATOM     16  C   UNL     1       6.187   1.746   6.661  0.00  0.00    +0.000 A 
ATOM     17  N   UNL     1       7.030   0.954   5.983  0.00  0.00    +0.000 NA
ATOM     18  C   UNL     1       6.483  -0.108   5.345  0.00  0.00    +0.000 A 
BRANCH  16  19
ATOM     19  O   UNL     1       6.780   2.773   7.333  0.00  0.00    +0.000 OA
ATOM     20  H   UNL     1       6.099   3.223   7.852  0.00  0.00    +0.000 HD
ENDBRANCH  16  19
ENDBRANCH   1  13
TORSDOF 3
