REMARK  Name = 
REMARK  5 active torsions:
REMARK  status: ('A' for Active; 'I' for Inactive)
REMARK    1  A    between atoms: C_2  and  C_4
REMARK    2  A    between atoms: C_7  and  N_8
REMARK    3  A    between atoms: N_8  and  C_9
REMARK    4  A    between atoms: C_9  and  C_10
REMARK    5  A    between atoms: C_14  and  N_15
REMARK                            x       y       z     vdW  Elec       q    Type
REMARK                         _______ _______ _______ _____ _____    ______ ____
ROOT
ATOM      1  N   UNL     1       3.888   1.763  -6.323  0.00  0.00    +0.000 N 
ATOM      2  H   UNL     1       3.170   1.305  -6.876  0.00  0.00    +0.000 HD
ENDROOT
BRANCH   1   6
ATOM      3  C   UNL     1       2.243   4.244  -3.489  0.00  0.00    +0.000 A 
ATOM      4  C   UNL     1       3.218   3.323  -3.141  0.00  0.00    +0.000 A 
ATOM      5  N   UNL     1       3.768   2.462  -4.040  0.00  0.00    +0.000 NA
ATOM      6  C   UNL     1       3.322   2.542  -5.311  0.00  0.00    +0.000 A 
ATOM      7  C   UNL     1       2.339   3.488  -5.641  0.00  0.00    +0.000 A 
ATOM      8  N   UNL     1       1.766   4.349  -4.758  0.00  0.00    +0.000 NA
BRANCH   3  10
ATOM      9  N   UNL     1       0.699   6.010  -2.880  0.00  0.00    +0.000 N 
ATOM     10  C   UNL     1       1.690   5.164  -2.459  0.00  0.00    +0.000 C 
ATOM     11  O   UNL     1       2.089   5.166  -1.302  0.00  0.00    +0.000 OA
ATOM     12  H   UNL     1       0.258   6.625  -2.211  0.00  0.00    +0.000 HD
ATOM     13  H   UNL     1       0.341   5.944  -3.827  0.00  0.00    +0.000 HD
ENDBRANCH   3  10
ENDBRANCH   1   6
BRANCH   1  14
ATOM     14  C   UNL     1       4.951   0.841  -5.940  0.00  0.00    +0.000 C 
BRANCH  14  15
ATOM     15  C   UNL     1       5.838   0.601  -7.135  0.00  0.00    +0.000 A 
ATOM     16  C   UNL     1       6.049  -0.670  -7.645  0.00  0.00    +0.000 A 
ATOM     17  N   UNL     1       6.832  -0.926  -8.711  0.00  0.00    +0.000 NA
ATOM     18  C   UNL     1       7.437   0.141  -9.291  0.00  0.00    +0.000 A 
ATOM     19  C   UNL     1       7.318   1.475  -8.885  0.00  0.00    +0.000 A 
ATOM     20  C   UNL     1       6.503   1.667  -7.768  0.00  0.00    +0.000 A 
BRANCH  19  21
ATOM     21  N   UNL     1       7.930   2.521  -9.541  0.00  0.00    +0.000 N 
ATOM     22  C   UNL     1       8.373   3.752  -8.871  0.00  0.00    +0.000 C 
ATOM     23  C   UNL     1       7.833   4.975  -9.628  0.00  0.00    +0.000 C 
ATOM     24  O   UNL     1       8.205   4.945 -11.018  0.00  0.00    +0.000 OA
ATOM     25  C   UNL     1       7.697   3.754 -11.645  0.00  0.00    +0.000 C 
ATOM     26  C   UNL     1       8.245   2.480 -10.977  0.00  0.00    +0.000 C 
ENDBRANCH  19  21
ENDBRANCH  14  15
ENDBRANCH   1  14
TORSDOF 5
