REMARK  Name = 
REMARK  9 active torsions:
REMARK  status: ('A' for Active; 'I' for Inactive)
REMARK    1  A    between atoms: C_1  and  C_2
REMARK    2  A    between atoms: C_4  and  O_5
REMARK    3  A    between atoms: O_5  and  C_6
REMARK    4  A    between atoms: C_6  and  C_7
REMARK    5  A    between atoms: C_7  and  C_8
REMARK    6  A    between atoms: C_7  and  C_9
REMARK    7  A    between atoms: C_14  and  N_15
REMARK    8  A    between atoms: N_15  and  C_16
REMARK    9  A    between atoms: C_23  and  C_24
REMARK                            x       y       z     vdW  Elec       q    Type
REMARK                         _______ _______ _______ _____ _____    ______ ____
ROOT
ATOM      1  C   UNL     1       2.074  -4.718   0.040  0.00  0.00    +0.000 C 
ATOM      2  C   UNL     1       3.028  -4.668   1.235  0.00  0.00    +0.000 C 
ENDROOT
BRANCH   1   3
ATOM      3  C   UNL     1       1.244  -6.000   0.051  0.00  0.00    +0.000 A 
ATOM      4  C   UNL     1       1.347  -6.914  -1.004  0.00  0.00    +0.000 A 
ATOM      5  C   UNL     1       0.535  -8.049  -1.035  0.00  0.00    +0.000 A 
ATOM      6  C   UNL     1      -0.402  -8.270  -0.022  0.00  0.00    +0.000 A 
ATOM      7 CL   UNL     1      -1.380  -9.696  -0.113  0.00  0.00    +0.000 Cl
ATOM      8  C   UNL     1      -0.529  -7.375   1.056  0.00  0.00    +0.000 A 
ATOM      9  C   UNL     1       0.325  -6.264   1.089  0.00  0.00    +0.000 A 
BRANCH   8  10
ATOM     10  N   UNL     1      -1.434  -7.633   2.109  0.00  0.00    +0.000 N 
ATOM     11  H   UNL     1      -2.353  -7.917   1.771  0.00  0.00    +0.000 HD
BRANCH  10  12
ATOM     12  C   UNL     1      -1.366  -7.151   3.457  0.00  0.00    +0.000 C 
ATOM     13  C   UNL     1      -2.253  -7.949   4.424  0.00  0.00    +0.000 C 
ATOM     14  O   UNL     1      -2.944  -6.747   4.846  0.00  0.00    +0.000 OA
ATOM     15  C   UNL     1      -2.300  -5.986   3.793  0.00  0.00    +0.000 C 
ENDBRANCH  10  12
ENDBRANCH   8  10
ENDBRANCH   1   3
BRANCH   1  16
ATOM     16  C   UNL     1       1.134  -3.497  -0.011  0.00  0.00    +0.000 C 
BRANCH  16  17
ATOM     17  O   UNL     1       1.842  -2.251  -0.132  0.00  0.00    +0.000 OA
BRANCH  17  21
ATOM     18  C   UNL     1       1.144   2.597  -0.272  0.00  0.00    +0.000 C 
ATOM     19  C   UNL     1       0.590   1.200  -0.203  0.00  0.00    +0.000 A 
ATOM     20  C   UNL     1       1.475   0.103  -0.200  0.00  0.00    +0.000 A 
ATOM     21  C   UNL     1       0.957  -1.182  -0.135  0.00  0.00    +0.000 A 
ATOM     22  N   UNL     1      -0.366  -1.437  -0.065  0.00  0.00    +0.000 NA
ATOM     23  C   UNL     1      -1.202  -0.376  -0.055  0.00  0.00    +0.000 A 
ATOM     24  C   UNL     1      -0.793   0.947  -0.140  0.00  0.00    +0.000 A 
BRANCH  24  25
ATOM     25  C   UNL     1      -1.822   2.022  -0.118  0.00  0.00    +0.000 C 
ATOM     26  N   UNL     1      -3.067   1.718  -0.594  0.00  0.00    +0.000 N 
ATOM     27  O   UNL     1      -1.590   3.148   0.299  0.00  0.00    +0.000 OA
ATOM     28  H   UNL     1      -3.296   0.888  -1.123  0.00  0.00    +0.000 HD
ATOM     29  H   UNL     1      -3.735   2.483  -0.624  0.00  0.00    +0.000 HD
ENDBRANCH  24  25
ENDBRANCH  17  21
ENDBRANCH  16  17
ENDBRANCH   1  16
TORSDOF 7
