REMARK  Name = 
REMARK  8 active torsions:
REMARK  status: ('A' for Active; 'I' for Inactive)
REMARK    1  A    between atoms: N_1  and  C_2
REMARK    2  A    between atoms: C_2  and  C_3
REMARK    3  A    between atoms: C_3  and  C_4
REMARK    4  A    between atoms: C_4  and  C_5
REMARK    5  A    between atoms: C_6  and  C_7
REMARK    6  A    between atoms: N_9  and  C_10
REMARK    7  A    between atoms: C_10  and  C_11
REMARK    8  A    between atoms: C_14  and  C_15
REMARK                            x       y       z     vdW  Elec       q    Type
REMARK                         _______ _______ _______ _____ _____    ______ ____
ROOT
ATOM      1  C   UNL     1       5.792  -2.166  -4.921  0.00  0.00    +0.000 A 
ATOM      2  C   UNL     1       6.268  -1.437  -5.988  0.00  0.00    +0.000 A 
ATOM      3  N   UNL     1       6.521  -2.304  -7.017  0.00  0.00    +0.000 N 
ATOM      4  C   UNL     1       6.204  -3.597  -6.635  0.00  0.00    +0.000 A 
ATOM      5  C   UNL     1       6.252  -4.813  -7.327  0.00  0.00    +0.000 A 
ATOM      6  C   UNL     1       5.826  -5.969  -6.664  0.00  0.00    +0.000 A 
ATOM      7  C   UNL     1       5.376  -5.920  -5.345  0.00  0.00    +0.000 A 
ATOM      8  C   UNL     1       5.338  -4.705  -4.662  0.00  0.00    +0.000 A 
ATOM      9  C   UNL     1       5.747  -3.525  -5.309  0.00  0.00    +0.000 A 
ENDROOT
BRANCH   1  11
ATOM     10  C   UNL     1       4.948  -1.107  -2.556  0.00  0.00    +0.000 C 
ATOM     11  C   UNL     1       5.383  -1.605  -3.680  0.00  0.00    +0.000 C 
BRANCH  10  12
ATOM     12  C   UNL     1       4.442  -0.528  -1.245  0.00  0.00    +0.000 C 
BRANCH  12  13
ATOM     13  C   UNL     1       2.917  -0.522  -1.231  0.00  0.00    +0.000 C 
BRANCH  13  14
ATOM     14  C   UNL     1       2.388   0.056   0.078  0.00  0.00    +0.000 C 
BRANCH  14  15
ATOM     15  N   UNL     1       0.931   0.054   0.076  0.00  0.00    +0.000 NA
ATOM     16  H   UNL     1       0.588   0.395   0.973  0.00  0.00    +0.000 HD
ATOM     17  H   UNL     1       0.586  -0.901  -0.019  0.00  0.00    +0.000 HD
ENDBRANCH  14  15
ENDBRANCH  13  14
ENDBRANCH  12  13
ENDBRANCH  10  12
ENDBRANCH   1  11
BRANCH   3  18
ATOM     18  C   UNL     1       7.078  -1.936  -8.315  0.00  0.00    +0.000 C 
BRANCH  18  19
ATOM     19  C   UNL     1       6.031  -1.619  -9.353  0.00  0.00    +0.000 A 
ATOM     20  C   UNL     1       5.946  -2.342 -10.546  0.00  0.00    +0.000 A 
ATOM     21  C   UNL     1       5.119  -1.895 -11.576  0.00  0.00    +0.000 A 
ATOM     22  C   UNL     1       4.392  -0.718 -11.399  0.00  0.00    +0.000 A 
ATOM     23  N   UNL     1       4.393  -0.054 -10.208  0.00  0.00    +0.000 NA
ATOM     24  C   UNL     1       5.196  -0.517  -9.222  0.00  0.00    +0.000 A 
BRANCH  22  25
ATOM     25  C   UNL     1       3.639  -0.110 -12.577  0.00  0.00    +0.000 C 
ATOM     26  F   UNL     1       3.776  -0.829 -13.733  0.00  0.00    +0.000 F 
ATOM     27  F   UNL     1       2.298  -0.007 -12.365  0.00  0.00    +0.000 F 
ATOM     28  F   UNL     1       4.068   1.149 -12.891  0.00  0.00    +0.000 F 
ENDBRANCH  22  25
ENDBRANCH  18  19
ENDBRANCH   3  18
TORSDOF 8
