REMARK  Name = 
REMARK  5 active torsions:
REMARK  status: ('A' for Active; 'I' for Inactive)
REMARK    1  A    between atoms: C_2  and  C_3
REMARK    2  A    between atoms: C_8  and  N_9
REMARK    3  A    between atoms: N_9  and  C_10
REMARK    4  A    between atoms: C_10  and  C_11
REMARK    5  A    between atoms: C_15  and  C_16
REMARK                            x       y       z     vdW  Elec       q    Type
REMARK                         _______ _______ _______ _____ _____    ______ ____
ROOT
ATOM      1  C   UNL     1       2.305   4.060   0.039  0.00  0.00    +0.000 A 
ATOM      2  C   UNL     1       1.506   5.101  -0.442  0.00  0.00    +0.000 A 
ATOM      3  C   UNL     1       1.923   6.422  -0.298  0.00  0.00    +0.000 A 
ATOM      4  C   UNL     1       3.140   6.714   0.327  0.00  0.00    +0.000 A 
ATOM      5  C   UNL     1       3.974   5.695   0.820  0.00  0.00    +0.000 A 
ATOM      6  C   UNL     1       3.538   4.369   0.640  0.00  0.00    +0.000 A 
ENDROOT
BRANCH   5   7
ATOM      7  C   UNL     1       5.237   5.996   1.535  0.00  0.00    +0.000 A 
ATOM      8  C   UNL     1       6.352   5.138   1.453  0.00  0.00    +0.000 A 
ATOM      9  C   UNL     1       7.540   5.405   2.143  0.00  0.00    +0.000 A 
ATOM     10  C   UNL     1       7.645   6.550   2.924  0.00  0.00    +0.000 A 
ATOM     11  C   UNL     1       6.557   7.405   3.019  0.00  0.00    +0.000 A 
ATOM     12  F   UNL     1       6.651   8.508   3.775  0.00  0.00    +0.000 F 
ATOM     13  C   UNL     1       5.367   7.138   2.347  0.00  0.00    +0.000 A 
ENDBRANCH   5   7
BRANCH   1  14
ATOM     14  C   UNL     1       1.836   2.625  -0.007  0.00  0.00    +0.000 C 
BRANCH  14  15
ATOM     15  N   UNL     1       2.284   1.963  -1.223  0.00  0.00    +0.000 N 
ATOM     16  H   UNL     1       2.247   2.566  -2.043  0.00  0.00    +0.000 HD
BRANCH  15  22
ATOM     17  C   UNL     1       1.466  -0.371  -0.660  0.00  0.00    +0.000 A 
ATOM     18  N   UNL     1       1.327  -1.688  -1.003  0.00  0.00    +0.000 NA
ATOM     19  C   UNL     1       1.767  -2.070  -2.213  0.00  0.00    +0.000 A 
ATOM     20  C   UNL     1       2.342  -1.201  -3.115  0.00  0.00    +0.000 A 
ATOM     21  C   UNL     1       2.471   0.141  -2.748  0.00  0.00    +0.000 A 
ATOM     22  C   UNL     1       2.013   0.618  -1.504  0.00  0.00    +0.000 A 
BRANCH  17  24
ATOM     23  N   UNL     1       0.526   0.127   1.717  0.00  0.00    +0.000 NA
ATOM     24  C   UNL     1       0.951  -0.110   0.658  0.00  0.00    +0.000 C 
ENDBRANCH  17  24
ENDBRANCH  15  22
ENDBRANCH  14  15
ENDBRANCH   1  14
TORSDOF 5
