REMARK  Name = 
REMARK  4 active torsions:
REMARK  status: ('A' for Active; 'I' for Inactive)
REMARK    1  A    between atoms: C_2  and  C_4
REMARK    2  A    between atoms: N_8  and  C_9
REMARK    3  A    between atoms: C_9  and  C_10
REMARK    4  A    between atoms: C_14  and  C_15
REMARK                            x       y       z     vdW  Elec       q    Type
REMARK                         _______ _______ _______ _____ _____    ______ ____
ROOT
ATOM      1  C   UNL     1       5.140   0.361   5.951  0.00  0.00    +0.000 C 
ATOM      2  C   UNL     1       5.105  -1.076   6.459  0.00  0.00    +0.000 C 
ATOM      3  C   UNL     1       3.888  -0.220   6.577  0.00  0.00    +0.000 C 
ENDROOT
BRANCH   1   8
ATOM      4  C   UNL     1       3.443   3.129   1.885  0.00  0.00    +0.000 A 
ATOM      5  C   UNL     1       2.700   2.605   2.939  0.00  0.00    +0.000 A 
ATOM      6  C   UNL     1       3.319   1.750   3.855  0.00  0.00    +0.000 A 
ATOM      7  C   UNL     1       4.662   1.429   3.695  0.00  0.00    +0.000 A 
ATOM      8  N   UNL     1       5.324   0.488   4.493  0.00  0.00    +0.000 N 
ATOM      9  N   UNL     1       5.395   1.939   2.682  0.00  0.00    +0.000 NA
ATOM     10  C   UNL     1       4.778   2.768   1.800  0.00  0.00    +0.000 A 
ATOM     11  H   UNL     1       6.295   0.524   4.183  0.00  0.00    +0.000 HD
BRANCH   4  13
ATOM     12  N   UNL     1       1.739   4.702   1.150  0.00  0.00    +0.000 N 
ATOM     13  C   UNL     1       2.866   3.996   0.835  0.00  0.00    +0.000 C 
ATOM     14  O   UNL     1       3.385   4.096  -0.268  0.00  0.00    +0.000 OA
ATOM     15  H   UNL     1       1.401   5.348   0.448  0.00  0.00    +0.000 HD
ATOM     16  H   UNL     1       1.422   4.836   2.100  0.00  0.00    +0.000 HD
ENDBRANCH   4  13
ENDBRANCH   1   8
BRANCH   1  17
ATOM     17  C   UNL     1       5.942   1.396   6.735  0.00  0.00    +0.000 A 
ATOM     18  C   UNL     1       7.235   1.124   7.208  0.00  0.00    +0.000 A 
ATOM     19  C   UNL     1       8.021   2.120   7.785  0.00  0.00    +0.000 A 
ATOM     20  C   UNL     1       7.535   3.423   7.878  0.00  0.00    +0.000 A 
ATOM     21  C   UNL     1       6.251   3.753   7.416  0.00  0.00    +0.000 A 
ATOM     22  C   UNL     1       5.462   2.713   6.888  0.00  0.00    +0.000 A 
BRANCH  21  23
ATOM     23  C   UNL     1       5.780   5.153   7.382  0.00  0.00    +0.000 A 
ATOM     24  C   UNL     1       4.464   5.517   7.677  0.00  0.00    +0.000 A 
ATOM     25  N   UNL     1       3.968   6.779   7.600  0.00  0.00    +0.000 NA
ATOM     26  C   UNL     1       4.835   7.744   7.212  0.00  0.00    +0.000 A 
ATOM     27  C   UNL     1       6.158   7.497   6.906  0.00  0.00    +0.000 A 
ATOM     28  F   UNL     1       6.970   8.491   6.524  0.00  0.00    +0.000 F 
ATOM     29  C   UNL     1       6.637   6.199   6.991  0.00  0.00    +0.000 A 
ENDBRANCH  21  23
ENDBRANCH   1  17
TORSDOF 4
