REMARK  Name = 
REMARK  11 active torsions:
REMARK  status: ('A' for Active; 'I' for Inactive)
REMARK    1  A    between atoms: N_1  and  C_2
REMARK    2  A    between atoms: C_2  and  C_3
REMARK    3  A    between atoms: C_3  and  N_4
REMARK    4  A    between atoms: C_3  and  C_20
REMARK    5  A    between atoms: C_5  and  C_7
REMARK    6  A    between atoms: N_13  and  C_14
REMARK    7  A    between atoms: C_14  and  C_15
REMARK    8  A    between atoms: C_15  and  O_16
REMARK    9  A    between atoms: C_23  and  C_24
REMARK   10  A    between atoms: C_24  and  N_25
REMARK   11  A    between atoms: C_26  and  C_28
REMARK                            x       y       z     vdW  Elec       q    Type
REMARK                         _______ _______ _______ _____ _____    ______ ____
ROOT
ATOM      1  C   UNL     1       2.906   0.520   1.370  0.00  0.00    +0.000 C 
ENDROOT
BRANCH   1   2
ATOM      2  C   UNL     1       4.422   0.434   1.519  0.00  0.00    +0.000 A 
ATOM      3  C   UNL     1       5.213   1.556   1.222  0.00  0.00    +0.000 A 
ATOM      4  C   UNL     1       6.607   1.519   1.372  0.00  0.00    +0.000 A 
ATOM      5  C   UNL     1       7.250   0.353   1.807  0.00  0.00    +0.000 A 
ATOM      6  C   UNL     1       6.468  -0.775   2.081  0.00  0.00    +0.000 A 
ATOM      7  C   UNL     1       5.077  -0.739   1.922  0.00  0.00    +0.000 A 
BRANCH   5   8
ATOM      8  C   UNL     1       8.749   0.292   1.950  0.00  0.00    +0.000 C 
BRANCH   8   9
ATOM      9  N   UNL     1       9.211   0.639   3.278  0.00  0.00    +0.000 N 
ATOM     10  C   UNL     1      10.566   0.610   3.560  0.00  0.00    +0.000 C 
ATOM     11  O   UNL     1      11.406   0.358   2.702  0.00  0.00    +0.000 OA
ATOM     12  H   UNL     1       8.537   0.659   4.032  0.00  0.00    +0.000 HD
BRANCH  10  13
ATOM     13  C   UNL     1      10.908   0.858   5.025  0.00  0.00    +0.000 C 
ATOM     14  C   UNL     1      10.558   2.258   5.483  0.00  0.00    +0.000 C 
ATOM     15  C   UNL     1      11.877   2.999   5.490  0.00  0.00    +0.000 C 
ATOM     16  O   UNL     1      12.915   2.034   5.631  0.00  0.00    +0.000 OA
ATOM     17  C   UNL     1      12.393   0.732   5.336  0.00  0.00    +0.000 C 
ENDBRANCH  10  13
ENDBRANCH   8   9
ENDBRANCH   5   8
ENDBRANCH   1   2
BRANCH   1  18
ATOM     18  N   UNL     1       2.561   0.195  -0.009  0.00  0.00    +0.000 N 
ATOM     19  C   UNL     1       1.402   0.611  -0.615  0.00  0.00    +0.000 C 
ATOM     20  O   UNL     1       0.643   1.430  -0.108  0.00  0.00    +0.000 OA
ATOM     21  H   UNL     1       3.039  -0.611  -0.388  0.00  0.00    +0.000 HD
BRANCH  19  22
ATOM     22  C   UNL     1       1.154   0.048  -1.951  0.00  0.00    +0.000 A 
ATOM     23  C   UNL     1       0.463   0.766  -2.912  0.00  0.00    +0.000 A 
ATOM     24  S   UNL     1       0.354  -0.041  -4.413  0.00  0.00    +0.000 S 
ATOM     25  C   UNL     1       1.183  -1.399  -3.808  0.00  0.00    +0.000 A 
ATOM     26  N   UNL     1       1.435  -2.479  -4.590  0.00  0.00    +0.000 NA
ATOM     27  C   UNL     1       2.087  -3.433  -4.001  0.00  0.00    +0.000 A 
ATOM     28  N   UNL     1       2.493  -3.424  -2.682  0.00  0.00    +0.000 N 
ATOM     29  C   UNL     1       2.201  -2.356  -1.842  0.00  0.00    +0.000 A 
ATOM     30  O   UNL     1       2.494  -2.352  -0.648  0.00  0.00    +0.000 OA
ATOM     31  C   UNL     1       1.530  -1.239  -2.485  0.00  0.00    +0.000 A 
BRANCH  28  32
ATOM     32  C   UNL     1       3.214  -4.565  -2.123  0.00  0.00    +0.000 C 
BRANCH  32  33
ATOM     33  C   UNL     1       2.275  -5.569  -1.451  0.00  0.00    +0.000 C 
BRANCH  33  34
ATOM     34  O   UNL     1       1.413  -6.163  -2.417  0.00  0.00    +0.000 OA
ATOM     35  H   UNL     1       0.665  -5.555  -2.557  0.00  0.00    +0.000 HD
ENDBRANCH  33  34
ENDBRANCH  32  33
ENDBRANCH  28  32
ENDBRANCH  19  22
ENDBRANCH   1  18
BRANCH   1  36
ATOM     36  C   UNL     1       2.101  -0.378   2.360  0.00  0.00    +0.000 C 
BRANCH  36  37
ATOM     37  N   UNL     1       2.360  -0.084   3.776  0.00  0.00    +0.000 NA
ATOM     38  H   UNL     1       1.769  -0.674   4.358  0.00  0.00    +0.000 HD
ATOM     39  H   UNL     1       2.087   0.879   3.970  0.00  0.00    +0.000 HD
ENDBRANCH  36  37
ENDBRANCH   1  36
TORSDOF 11
