REMARK  Name = 
REMARK  8 active torsions:
REMARK  status: ('A' for Active; 'I' for Inactive)
REMARK    1  A    between atoms: N_1  and  C_2
REMARK    2  A    between atoms: C_2  and  C_3
REMARK    3  A    between atoms: C_3  and  N_4
REMARK    4  A    between atoms: C_3  and  C_27
REMARK    5  A    between atoms: C_5  and  C_7
REMARK    6  A    between atoms: C_10  and  C_11
REMARK    7  A    between atoms: C_11  and  N_12
REMARK    8  A    between atoms: C_13  and  C_15
REMARK                            x       y       z     vdW  Elec       q    Type
REMARK                         _______ _______ _______ _____ _____    ______ ____
ROOT
ATOM      1  C   UNL     1       0.684  -2.315   3.174  0.00  0.00    +0.000 A 
ATOM      2  C   UNL     1       1.166  -2.782   4.377  0.00  0.00    +0.000 A 
ATOM      3  N   UNL     1       0.812  -3.967   4.921  0.00  0.00    +0.000 NA
ATOM      4  C   UNL     1      -0.072  -4.712   4.226  0.00  0.00    +0.000 A 
ATOM      5  N   UNL     1      -0.651  -4.319   3.070  0.00  0.00    +0.000 NA
ATOM      6  C   UNL     1      -0.257  -3.118   2.571  0.00  0.00    +0.000 A 
ENDROOT
BRANCH   1   8
ATOM      7  N   UNL     1       2.376  -0.616   2.893  0.00  0.00    +0.000 N 
ATOM      8  C   UNL     1       1.110  -1.036   2.574  0.00  0.00    +0.000 C 
ATOM      9  O   UNL     1       0.342  -0.414   1.843  0.00  0.00    +0.000 OA
ATOM     10  H   UNL     1       3.036  -1.208   3.388  0.00  0.00    +0.000 HD
BRANCH   7  11
ATOM     11  C   UNL     1       2.963   0.620   2.384  0.00  0.00    +0.000 C 
BRANCH  11  12
ATOM     12  C   UNL     1       3.935   1.178   3.422  0.00  0.00    +0.000 A 
ATOM     13  C   UNL     1       4.096   2.556   3.554  0.00  0.00    +0.000 A 
ATOM     14  C   UNL     1       5.006   3.039   4.489  0.00  0.00    +0.000 A 
ATOM     15  C   UNL     1       5.728   2.141   5.266  0.00  0.00    +0.000 A 
ATOM     16  C   UNL     1       5.512   0.787   5.074  0.00  0.00    +0.000 A 
ATOM     17  N   UNL     1       4.640   0.284   4.172  0.00  0.00    +0.000 NA
ENDBRANCH  11  12
BRANCH  11  18
ATOM     18  C   UNL     1       3.717   0.408   1.044  0.00  0.00    +0.000 C 
BRANCH  18  19
ATOM     19  N   UNL     1       2.890  -0.106  -0.054  0.00  0.00    +0.000 NA
ATOM     20  H   UNL     1       3.305   0.142  -0.951  0.00  0.00    +0.000 HD
ATOM     21  H   UNL     1       1.960   0.318  -0.021  0.00  0.00    +0.000 HD
ENDBRANCH  18  19
ENDBRANCH  11  18
ENDBRANCH   7  11
ENDBRANCH   1   8
BRANCH   4  22
ATOM     22  C   UNL     1      -0.402  -6.082   4.781  0.00  0.00    +0.000 C 
BRANCH  22  23
ATOM     23  N   UNL     1      -1.473  -6.085   5.758  0.00  0.00    +0.000 N 
ATOM     24  C   UNL     1      -1.842  -7.260   6.363  0.00  0.00    +0.000 C 
ATOM     25  O   UNL     1      -1.277  -8.319   6.100  0.00  0.00    +0.000 OA
ATOM     26  H   UNL     1      -1.745  -5.192   6.161  0.00  0.00    +0.000 HD
BRANCH  24  27
ATOM     27  C   UNL     1      -2.998  -7.218   7.267  0.00  0.00    +0.000 A 
ATOM     28  C   UNL     1      -3.475  -8.390   7.840  0.00  0.00    +0.000 A 
ATOM     29  S   UNL     1      -5.001  -8.206   8.583  0.00  0.00    +0.000 S 
ATOM     30  C   UNL     1      -5.031  -6.544   8.223  0.00  0.00    +0.000 A 
ATOM     31  N   UNL     1      -6.125  -5.779   8.484  0.00  0.00    +0.000 NA
ATOM     32  C   UNL     1      -5.974  -4.526   8.209  0.00  0.00    +0.000 A 
ATOM     33  N   UNL     1      -4.814  -3.960   7.745  0.00  0.00    +0.000 N 
ATOM     34  C   UNL     1      -3.680  -4.691   7.490  0.00  0.00    +0.000 A 
ATOM     35  O   UNL     1      -2.624  -4.155   7.171  0.00  0.00    +0.000 OA
ATOM     36  C   UNL     1      -3.839  -6.120   7.663  0.00  0.00    +0.000 A 
ATOM     37  H   UNL     1      -4.736  -2.961   7.628  0.00  0.00    +0.000 HD
ENDBRANCH  24  27
ENDBRANCH  22  23
ENDBRANCH   4  22
TORSDOF 8
