REMARK  Name = 
REMARK  7 active torsions:
REMARK  status: ('A' for Active; 'I' for Inactive)
REMARK    1  A    between atoms: C_1  and  C_2
REMARK    2  A    between atoms: C_2  and  N_3
REMARK    3  A    between atoms: C_2  and  C_16
REMARK    4  A    between atoms: C_4  and  C_6
REMARK    5  A    between atoms: C_19  and  C_20
REMARK    6  A    between atoms: C_20  and  N_21
REMARK    7  A    between atoms: C_22  and  C_24
REMARK                            x       y       z     vdW  Elec       q    Type
REMARK                         _______ _______ _______ _____ _____    ______ ____
ROOT
ATOM      1  C   UNL     1       1.469  -0.365  -0.994  0.00  0.00    +0.000 C 
ATOM      2  C   UNL     1       2.578  -0.084   0.031  0.00  0.00    +0.000 C 
ENDROOT
BRANCH   2   3
ATOM      3  C   UNL     1       2.932  -1.289   0.894  0.00  0.00    +0.000 A 
ATOM      4  C   UNL     1       3.385  -1.085   2.208  0.00  0.00    +0.000 A 
ATOM      5  C   UNL     1       3.695  -2.168   3.040  0.00  0.00    +0.000 A 
ATOM      6  C   UNL     1       3.575  -3.482   2.573  0.00  0.00    +0.000 A 
ATOM      7  C   UNL     1       3.154  -3.690   1.254  0.00  0.00    +0.000 A 
ATOM      8  C   UNL     1       2.852  -2.606   0.422  0.00  0.00    +0.000 A 
BRANCH   6   9
ATOM      9  C   UNL     1       3.835  -4.660   3.478  0.00  0.00    +0.000 C 
BRANCH   9  10
ATOM     10  N   UNL     1       2.628  -5.048   4.174  0.00  0.00    +0.000 N 
ATOM     11  C   UNL     1       2.599  -6.138   5.018  0.00  0.00    +0.000 C 
ATOM     12  O   UNL     1       3.591  -6.822   5.247  0.00  0.00    +0.000 OA
ATOM     13  H   UNL     1       1.780  -4.538   3.968  0.00  0.00    +0.000 HD
BRANCH  11  14
ATOM     14  C   UNL     1       1.243  -6.366   5.684  0.00  0.00    +0.000 C 
ATOM     15  C   UNL     1       1.210  -7.567   6.622  0.00  0.00    +0.000 C 
ATOM     16  C   UNL     1       0.624  -8.672   5.768  0.00  0.00    +0.000 C 
ATOM     17  N   UNL     1      -0.399  -7.997   4.963  0.00  0.00    +0.000 NA
ATOM     18  C   UNL     1       0.148  -6.666   4.657  0.00  0.00    +0.000 C 
ATOM     19  H   UNL     1      -1.242  -7.890   5.528  0.00  0.00    +0.000 HD
ENDBRANCH  11  14
ENDBRANCH   9  10
ENDBRANCH   6   9
ENDBRANCH   2   3
BRANCH   2  20
ATOM     20  N   UNL     1       3.766   0.400  -0.637  0.00  0.00    +0.000 N 
ATOM     21  C   UNL     1       3.905   1.707  -1.038  0.00  0.00    +0.000 C 
ATOM     22  O   UNL     1       3.097   2.577  -0.727  0.00  0.00    +0.000 OA
ATOM     23  H   UNL     1       4.367  -0.306  -1.050  0.00  0.00    +0.000 HD
BRANCH  21  24
ATOM     24  C   UNL     1       5.097   2.016  -1.827  0.00  0.00    +0.000 A 
ATOM     25  C   UNL     1       5.645   3.292  -1.791  0.00  0.00    +0.000 A 
ATOM     26  S   UNL     1       7.019   3.476  -2.787  0.00  0.00    +0.000 S 
ATOM     27  C   UNL     1       6.898   1.873  -3.344  0.00  0.00    +0.000 A 
ATOM     28  N   UNL     1       7.757   1.391  -4.283  0.00  0.00    +0.000 NA
ATOM     29  C   UNL     1       7.522   0.174  -4.646  0.00  0.00    +0.000 A 
ATOM     30  N   UNL     1       6.517  -0.611  -4.141  0.00  0.00    +0.000 N 
ATOM     31  C   UNL     1       5.668  -0.189  -3.146  0.00  0.00    +0.000 A 
ATOM     32  O   UNL     1       4.852  -0.951  -2.638  0.00  0.00    +0.000 OA
ATOM     33  C   UNL     1       5.854   1.192  -2.742  0.00  0.00    +0.000 A 
ATOM     34  H   UNL     1       6.409  -1.568  -4.444  0.00  0.00    +0.000 HD
ENDBRANCH  21  24
ENDBRANCH   2  20
TORSDOF 6
