REMARK  Name = 
REMARK  7 active torsions:
REMARK  status: ('A' for Active; 'I' for Inactive)
REMARK    1  A    between atoms: C_1  and  C_2
REMARK    2  A    between atoms: C_2  and  N_3
REMARK    3  A    between atoms: C_2  and  C_16
REMARK    4  A    between atoms: C_4  and  C_6
REMARK    5  A    between atoms: C_19  and  C_20
REMARK    6  A    between atoms: C_20  and  N_21
REMARK    7  A    between atoms: C_22  and  C_24
REMARK                            x       y       z     vdW  Elec       q    Type
REMARK                         _______ _______ _______ _____ _____    ______ ____
ROOT
ATOM      1  C   UNL     1       2.919  -0.419   1.315  0.00  0.00    +0.000 A 
ATOM      2  C   UNL     1       3.480   0.408   2.290  0.00  0.00    +0.000 A 
ATOM      3  C   UNL     1       3.886  -0.142   3.506  0.00  0.00    +0.000 A 
ATOM      4  C   UNL     1       3.733  -1.509   3.734  0.00  0.00    +0.000 A 
ATOM      5  C   UNL     1       3.208  -2.267   2.693  0.00  0.00    +0.000 A 
ATOM      6  N   UNL     1       2.799  -1.758   1.503  0.00  0.00    +0.000 NA
ENDROOT
BRANCH   1   8
ATOM      7  C   UNL     1       1.193   1.099   0.336  0.00  0.00    +0.000 C 
ATOM      8  C   UNL     1       2.370   0.169   0.012  0.00  0.00    +0.000 C 
BRANCH   8   9
ATOM      9  N   UNL     1       3.422   0.844  -0.742  0.00  0.00    +0.000 N 
ATOM     10  C   UNL     1       3.207   1.414  -1.976  0.00  0.00    +0.000 C 
ATOM     11  O   UNL     1       2.104   1.467  -2.504  0.00  0.00    +0.000 OA
ATOM     12  H   UNL     1       4.366   0.524  -0.538  0.00  0.00    +0.000 HD
BRANCH  10  13
ATOM     13  C   UNL     1       4.378   2.028  -2.616  0.00  0.00    +0.000 A 
ATOM     14  C   UNL     1       4.202   3.079  -3.506  0.00  0.00    +0.000 A 
ATOM     15  S   UNL     1       5.664   3.691  -4.139  0.00  0.00    +0.000 S 
ATOM     16  C   UNL     1       6.581   2.542  -3.281  0.00  0.00    +0.000 A 
ATOM     17  N   UNL     1       7.934   2.491  -3.405  0.00  0.00    +0.000 NA
ATOM     18  C   UNL     1       8.495   1.547  -2.726  0.00  0.00    +0.000 A 
ATOM     19  N   UNL     1       7.828   0.660  -1.922  0.00  0.00    +0.000 N 
ATOM     20  C   UNL     1       6.470   0.710  -1.726  0.00  0.00    +0.000 A 
ATOM     21  O   UNL     1       5.910  -0.041  -0.932  0.00  0.00    +0.000 OA
ATOM     22  C   UNL     1       5.785   1.726  -2.497  0.00  0.00    +0.000 A 
ATOM     23  H   UNL     1       8.329  -0.042  -1.398  0.00  0.00    +0.000 HD
ENDBRANCH  10  13
ENDBRANCH   8   9
ENDBRANCH   1   8
BRANCH   4  24
ATOM     24  C   UNL     1       4.093  -2.129   5.052  0.00  0.00    +0.000 C 
BRANCH  24  25
ATOM     25  N   UNL     1       5.461  -2.583   5.104  0.00  0.00    +0.000 N 
ATOM     26  C   UNL     1       5.939  -3.248   6.214  0.00  0.00    +0.000 C 
ATOM     27  O   UNL     1       5.235  -3.510   7.187  0.00  0.00    +0.000 OA
ATOM     28  H   UNL     1       6.168  -2.174   4.499  0.00  0.00    +0.000 HD
BRANCH  26  29
ATOM     29  C   UNL     1       7.427  -3.663   6.139  0.00  0.00    +0.000 C 
ATOM     30  C   UNL     1       8.231  -2.935   7.221  0.00  0.00    +0.000 C 
ATOM     31  C   UNL     1       9.714  -3.287   7.143  0.00  0.00    +0.000 C 
ATOM     32  C   UNL     1      10.243  -3.073   5.730  0.00  0.00    +0.000 C 
ATOM     33  C   UNL     1       9.383  -3.806   4.704  0.00  0.00    +0.000 C 
ATOM     34  N   UNL     1       7.978  -3.394   4.782  0.00  0.00    +0.000 NA
ATOM     35  H   UNL     1       7.443  -3.960   4.118  0.00  0.00    +0.000 HD
ENDBRANCH  26  29
ENDBRANCH  24  25
ENDBRANCH   4  24
TORSDOF 6
