REMARK  Name = 
REMARK  7 active torsions:
REMARK  status: ('A' for Active; 'I' for Inactive)
REMARK    1  A    between atoms: C_1  and  N_2
REMARK    2  A    between atoms: C_8  and  C_9
REMARK    3  A    between atoms: N_11  and  C_12
REMARK    4  A    between atoms: C_12  and  C_13
REMARK    5  A    between atoms: C_16  and  O_17
REMARK    6  A    between atoms: O_17  and  C_18
REMARK    7  A    between atoms: C_18  and  C_19
REMARK                            x       y       z     vdW  Elec       q    Type
REMARK                         _______ _______ _______ _____ _____    ______ ____
ROOT
ATOM      1  C   UNL     1       6.387  -3.710  -1.115  0.00  0.00    +0.000 C 
ATOM      2  O   UNL     1       6.419  -4.205  -2.238  0.00  0.00    +0.000 OA
ATOM      3  N   UNL     1       6.321  -4.469   0.025  0.00  0.00    +0.000 N 
ATOM      4  H   UNL     1       6.161  -4.005   0.911  0.00  0.00    +0.000 HD
ENDROOT
BRANCH   1  12
ATOM      5  C   UNL     1       4.085  -1.023   3.371  0.00  0.00    +0.000 C 
ATOM      6  N   UNL     1       4.833  -0.734   2.165  0.00  0.00    +0.000 N 
ATOM      7  C   UNL     1       5.199   0.561   1.858  0.00  0.00    +0.000 A 
ATOM      8  N   UNL     1       5.868   0.921   0.813  0.00  0.00    +0.000 NA
ATOM      9  C   UNL     1       6.216  -0.096  -0.014  0.00  0.00    +0.000 A 
ATOM     10  S   UNL     1       7.064   0.202  -1.460  0.00  0.00    +0.000 S 
ATOM     11  C   UNL     1       7.061  -1.453  -1.870  0.00  0.00    +0.000 A 
ATOM     12  C   UNL     1       6.455  -2.257  -0.915  0.00  0.00    +0.000 A 
ATOM     13  C   UNL     1       5.946  -1.438   0.162  0.00  0.00    +0.000 A 
ATOM     14  C   UNL     1       5.202  -1.805   1.356  0.00  0.00    +0.000 A 
ATOM     15  O   UNL     1       4.949  -2.973   1.645  0.00  0.00    +0.000 OA
ENDBRANCH   1  12
BRANCH   3  16
ATOM     16  C   UNL     1       6.127  -5.895  -0.000  0.00  0.00    +0.000 C 
BRANCH  16  17
ATOM     17  C   UNL     1       7.427  -6.640   0.009  0.00  0.00    +0.000 A 
ATOM     18  C   UNL     1       8.087  -6.968  -1.178  0.00  0.00    +0.000 A 
ATOM     19  C   UNL     1       9.287  -7.673  -1.128  0.00  0.00    +0.000 A 
ATOM     20  C   UNL     1       9.779  -8.044   0.110  0.00  0.00    +0.000 A 
ATOM     21  N   UNL     1       9.183  -7.725   1.279  0.00  0.00    +0.000 NA
ATOM     22  C   UNL     1       8.032  -7.021   1.202  0.00  0.00    +0.000 A 
BRANCH  20  23
ATOM     23  O   UNL     1      10.965  -8.750   0.123  0.00  0.00    +0.000 OA
BRANCH  23  24
ATOM     24  C   UNL     1      11.139  -9.478   1.339  0.00  0.00    +0.000 C 
BRANCH  24  25
ATOM     25  C   UNL     1      12.499 -10.130   1.321  0.00  0.00    +0.000 A 
ATOM     26  C   UNL     1      13.656  -9.345   1.328  0.00  0.00    +0.000 A 
ATOM     27  C   UNL     1      14.888  -9.976   1.349  0.00  0.00    +0.000 A 
ATOM     28  N   UNL     1      15.046 -11.317   1.363  0.00  0.00    +0.000 NA
ATOM     29  C   UNL     1      13.917 -12.057   1.349  0.00  0.00    +0.000 A 
ATOM     30  C   UNL     1      12.639 -11.520   1.328  0.00  0.00    +0.000 A 
ENDBRANCH  24  25
ENDBRANCH  23  24
ENDBRANCH  20  23
ENDBRANCH  16  17
ENDBRANCH   3  16
TORSDOF 6
