REMARK  Name = 
REMARK  8 active torsions:
REMARK  status: ('A' for Active; 'I' for Inactive)
REMARK    1  A    between atoms: C_2  and  C_20
REMARK    2  A    between atoms: N_3  and  C_4
REMARK    3  A    between atoms: C_4  and  C_5
REMARK    4  A    between atoms: C_8  and  C_9
REMARK    5  A    between atoms: C_9  and  N_10
REMARK    6  A    between atoms: N_10  and  C_11
REMARK    7  A    between atoms: C_11  and  C_12
REMARK    8  A    between atoms: C_15  and  O_16
REMARK                            x       y       z     vdW  Elec       q    Type
REMARK                         _______ _______ _______ _____ _____    ______ ____
ROOT
ATOM      1  C   UNL     1      12.469  -5.037  -4.748  0.00  0.00    +0.000 A 
ATOM      2  C   UNL     1      11.124  -4.740  -4.972  0.00  0.00    +0.000 A 
ATOM      3  C   UNL     1      10.777  -3.771  -5.906  0.00  0.00    +0.000 A 
ATOM      4  C   UNL     1      11.787  -3.119  -6.607  0.00  0.00    +0.000 A 
ATOM      5  N   UNL     1      13.103  -3.421  -6.443  0.00  0.00    +0.000 NA
ATOM      6  C   UNL     1      13.408  -4.369  -5.525  0.00  0.00    +0.000 A 
ENDROOT
BRANCH   1   7
ATOM      7  C   UNL     1      12.872  -6.059  -3.727  0.00  0.00    +0.000 C 
BRANCH   7  10
ATOM      8  O   UNL     1      10.778  -7.946  -3.720  0.00  0.00    +0.000 OA
ATOM      9  C   UNL     1      11.827  -8.219  -4.296  0.00  0.00    +0.000 C 
ATOM     10  N   UNL     1      12.914  -7.382  -4.292  0.00  0.00    +0.000 N 
ATOM     11  H   UNL     1      13.671  -7.565  -4.940  0.00  0.00    +0.000 HD
BRANCH   9  12
ATOM     12  C   UNL     1      12.013  -9.498  -4.988  0.00  0.00    +0.000 A 
ATOM     13  C   UNL     1      11.274 -10.610  -4.612  0.00  0.00    +0.000 A 
ATOM     14  S   UNL     1      11.641 -12.007  -5.521  0.00  0.00    +0.000 S 
ATOM     15  C   UNL     1      12.768 -11.161  -6.475  0.00  0.00    +0.000 A 
ATOM     16  N   UNL     1      13.440 -11.778  -7.484  0.00  0.00    +0.000 NA
ATOM     17  C   UNL     1      14.226 -11.003  -8.154  0.00  0.00    +0.000 A 
ATOM     18  N   UNL     1      14.412  -9.669  -7.897  0.00  0.00    +0.000 N 
ATOM     19  C   UNL     1      13.818  -9.024  -6.842  0.00  0.00    +0.000 A 
ATOM     20  O   UNL     1      14.124  -7.872  -6.547  0.00  0.00    +0.000 OA
ATOM     21  C   UNL     1      12.883  -9.838  -6.089  0.00  0.00    +0.000 A 
ATOM     22  H   UNL     1      15.060  -9.122  -8.452  0.00  0.00    +0.000 HD
ENDBRANCH   9  12
ENDBRANCH   7  10
ENDBRANCH   1   7
BRANCH   4  23
ATOM     23  C   UNL     1      11.428  -2.056  -7.631  0.00  0.00    +0.000 C 
BRANCH  23  24
ATOM     24  N   UNL     1      11.928  -2.334  -8.988  0.00  0.00    +0.000 NA
ATOM     25  H   UNL     1      12.939  -2.441  -8.890  0.00  0.00    +0.000 HD
BRANCH  24  26
ATOM     26  C   UNL     1      11.358  -3.570  -9.532  0.00  0.00    +0.000 C 
BRANCH  26  27
ATOM     27  C   UNL     1      11.922  -3.871 -10.931  0.00  0.00    +0.000 C 
ATOM     28  C   UNL     1      13.454  -4.045 -10.951  0.00  0.00    +0.000 C 
ATOM     29  C   UNL     1      13.734  -5.434 -11.521  0.00  0.00    +0.000 C 
ATOM     30  C   UNL     1      12.460  -6.220 -11.259  0.00  0.00    +0.000 C 
ATOM     31  C   UNL     1      11.362  -5.190 -11.491  0.00  0.00    +0.000 C 
BRANCH  30  32
ATOM     32  O   UNL     1      12.434  -6.731  -9.932  0.00  0.00    +0.000 OA
ATOM     33  H   UNL     1      12.755  -6.046  -9.318  0.00  0.00    +0.000 HD
ENDBRANCH  30  32
ENDBRANCH  26  27
ENDBRANCH  24  26
ENDBRANCH  23  24
ENDBRANCH   4  23
TORSDOF 8
