REMARK  Name = 
REMARK  7 active torsions:
REMARK  status: ('A' for Active; 'I' for Inactive)
REMARK    1  A    between atoms: C_2  and  C_3
REMARK    2  A    between atoms: C_3  and  C_4
REMARK    3  A    between atoms: C_3  and  C_25
REMARK    4  A    between atoms: C_4  and  C_5
REMARK    5  A    between atoms: C_8  and  C_9
REMARK    6  A    between atoms: C_9  and  N_10
REMARK    7  A    between atoms: C_11  and  C_13
REMARK                            x       y       z     vdW  Elec       q    Type
REMARK                         _______ _______ _______ _____ _____    ______ ____
ROOT
ATOM      1  C   UNL     1       3.813   1.005   2.351  0.00  0.00    +0.000 A 
ATOM      2  C   UNL     1       3.045   0.800   3.496  0.00  0.00    +0.000 A 
ATOM      3  C   UNL     1       2.678   1.897   4.268  0.00  0.00    +0.000 A 
ATOM      4  C   UNL     1       3.112   3.172   3.906  0.00  0.00    +0.000 A 
ATOM      5  C   UNL     1       3.851   3.283   2.733  0.00  0.00    +0.000 A 
ATOM      6  N   UNL     1       4.199   2.235   1.946  0.00  0.00    +0.000 NA
ENDROOT
BRANCH   1   7
ATOM      7  C   UNL     1       4.227  -0.164   1.492  0.00  0.00    +0.000 C 
BRANCH   7   8
ATOM      8  C   UNL     1       3.225  -0.465   0.363  0.00  0.00    +0.000 C 
BRANCH   8   9
ATOM      9  C   UNL     1       3.674  -1.659  -0.461  0.00  0.00    +0.000 A 
ATOM     10  C   UNL     1       3.341  -1.755  -1.811  0.00  0.00    +0.000 A 
ATOM     11  C   UNL     1       3.682  -2.913  -2.508  0.00  0.00    +0.000 A 
ATOM     12  C   UNL     1       4.338  -3.945  -1.848  0.00  0.00    +0.000 A 
ATOM     13  C   UNL     1       4.636  -3.774  -0.509  0.00  0.00    +0.000 A 
ATOM     14  N   UNL     1       4.319  -2.664   0.191  0.00  0.00    +0.000 NA
ENDBRANCH   8   9
BRANCH   8  16
ATOM     15  N   UNL     1       0.738  -1.055   1.460  0.00  0.00    +0.000 NA
ATOM     16  C   UNL     1       1.866  -0.787   0.963  0.00  0.00    +0.000 C 
ENDBRANCH   8  16
ENDBRANCH   7   8
ENDBRANCH   1   7
BRANCH   4  17
ATOM     17  C   UNL     1       2.774   4.375   4.733  0.00  0.00    +0.000 C 
BRANCH  17  18
ATOM     18  N   UNL     1       1.544   4.986   4.300  0.00  0.00    +0.000 N 
ATOM     19  C   UNL     1       1.107   6.162   4.857  0.00  0.00    +0.000 C 
ATOM     20  O   UNL     1       1.774   6.774   5.688  0.00  0.00    +0.000 OA
ATOM     21  H   UNL     1       0.878   4.394   3.813  0.00  0.00    +0.000 HD
BRANCH  19  22
ATOM     22  C   UNL     1      -0.173   6.686   4.366  0.00  0.00    +0.000 A 
ATOM     23  C   UNL     1      -0.448   8.043   4.471  0.00  0.00    +0.000 A 
ATOM     24  S   UNL     1      -1.964   8.486   3.827  0.00  0.00    +0.000 S 
ATOM     25  C   UNL     1      -2.326   6.872   3.426  0.00  0.00    +0.000 A 
ATOM     26  N   UNL     1      -3.516   6.542   2.855  0.00  0.00    +0.000 NA
ATOM     27  C   UNL     1      -3.666   5.281   2.625  0.00  0.00    +0.000 A 
ATOM     28  N   UNL     1      -2.732   4.318   2.909  0.00  0.00    +0.000 N 
ATOM     29  C   UNL     1      -1.507   4.608   3.458  0.00  0.00    +0.000 A 
ATOM     30  O   UNL     1      -0.669   3.732   3.657  0.00  0.00    +0.000 OA
ATOM     31  C   UNL     1      -1.294   6.011   3.753  0.00  0.00    +0.000 A 
ATOM     32  H   UNL     1      -2.906   3.347   2.691  0.00  0.00    +0.000 HD
ENDBRANCH  19  22
ENDBRANCH  17  18
ENDBRANCH   4  17
TORSDOF 7
