REMARK  Name = 
REMARK  5 active torsions:
REMARK  status: ('A' for Active; 'I' for Inactive)
REMARK    1  A    between atoms: N_1  and  C_2
REMARK    2  A    between atoms: C_2  and  C_3
REMARK    3  A    between atoms: C_7  and  N_8
REMARK    4  A    between atoms: N_8  and  C_9
REMARK    5  A    between atoms: C_9  and  C_10
REMARK                            x       y       z     vdW  Elec       q    Type
REMARK                         _______ _______ _______ _____ _____    ______ ____
ROOT
ATOM      1  C   UNL     1       2.992  -0.218  -1.430  0.00  0.00    +0.000 A 
ATOM      2  C   UNL     1       3.428   0.852  -2.218  0.00  0.00    +0.000 A 
ATOM      3  C   UNL     1       3.949   0.618  -3.490  0.00  0.00    +0.000 A 
ATOM      4  C   UNL     1       4.066  -0.690  -3.970  0.00  0.00    +0.000 A 
ATOM      5  C   UNL     1       3.696  -1.780  -3.178  0.00  0.00    +0.000 A 
ATOM      6  C   UNL     1       3.106  -1.523  -1.936  0.00  0.00    +0.000 A 
ENDROOT
BRANCH   5   7
ATOM      7  N   UNL     1       3.858  -3.073  -3.707  0.00  0.00    +0.000 N 
ATOM      8  H   UNL     1       3.083  -3.275  -4.338  0.00  0.00    +0.000 HD
BRANCH   7   9
ATOM      9  C   UNL     1       4.002  -4.152  -2.722  0.00  0.00    +0.000 C 
BRANCH   9  10
ATOM     10  C   UNL     1       4.692  -5.351  -3.325  0.00  0.00    +0.000 A 
ATOM     11  C   UNL     1       5.982  -5.233  -3.838  0.00  0.00    +0.000 A 
ATOM     12  N   UNL     1       6.682  -6.284  -4.323  0.00  0.00    +0.000 NA
ATOM     13  C   UNL     1       6.039  -7.470  -4.281  0.00  0.00    +0.000 A 
ATOM     14  C   UNL     1       4.756  -7.602  -3.777  0.00  0.00    +0.000 A 
ATOM     15  N   UNL     1       4.053  -6.555  -3.290  0.00  0.00    +0.000 NA
ENDBRANCH   9  10
ENDBRANCH   7   9
ENDBRANCH   5   7
BRANCH   1  16
ATOM     16  C   UNL     1       2.408   0.004  -0.059  0.00  0.00    +0.000 C 
BRANCH  16  17
ATOM     17  N   UNL     1       3.170  -0.709   0.961  0.00  0.00    +0.000 NA
ATOM     18  H   UNL     1       2.808  -0.466   1.881  0.00  0.00    +0.000 HD
ATOM     19  H   UNL     1       4.135  -0.383   0.935  0.00  0.00    +0.000 HD
ENDBRANCH  16  17
ENDBRANCH   1  16
TORSDOF 5
