REMARK  Name = 
REMARK  4 active torsions:
REMARK  status: ('A' for Active; 'I' for Inactive)
REMARK    1  A    between atoms: C_2  and  C_4
REMARK    2  A    between atoms: N_8  and  C_9
REMARK    3  A    between atoms: C_9  and  C_10
REMARK    4  A    between atoms: C_14  and  C_15
REMARK                            x       y       z     vdW  Elec       q    Type
REMARK                         _______ _______ _______ _____ _____    ______ ____
ROOT
ATOM      1  C   UNL     1       4.942   3.602   4.809  0.00  0.00    +0.000 C 
ENDROOT
BRANCH   1   6
ATOM      2  C   UNL     1       6.167   3.797  -0.171  0.00  0.00    +0.000 A 
ATOM      3  C   UNL     1       6.376   2.767   0.739  0.00  0.00    +0.000 A 
ATOM      4  C   UNL     1       5.812   2.859   2.012  0.00  0.00    +0.000 A 
ATOM      5  C   UNL     1       5.061   3.976   2.359  0.00  0.00    +0.000 A 
ATOM      6  N   UNL     1       4.395   4.095   3.558  0.00  0.00    +0.000 N 
ATOM      7  N   UNL     1       4.867   4.990   1.490  0.00  0.00    +0.000 NA
ATOM      8  C   UNL     1       5.428   4.889   0.255  0.00  0.00    +0.000 A 
ATOM      9  H   UNL     1       3.960   5.010   3.591  0.00  0.00    +0.000 HD
BRANCH   2  11
ATOM     10  N   UNL     1       6.929   2.534  -2.099  0.00  0.00    +0.000 N 
ATOM     11  C   UNL     1       6.699   3.766  -1.549  0.00  0.00    +0.000 C 
ATOM     12  O   UNL     1       6.894   4.792  -2.183  0.00  0.00    +0.000 OA
ATOM     13  H   UNL     1       7.208   2.519  -3.074  0.00  0.00    +0.000 HD
ATOM     14  H   UNL     1       6.555   1.679  -1.709  0.00  0.00    +0.000 HD
ENDBRANCH   2  11
ENDBRANCH   1   6
BRANCH   1  15
ATOM     15  C   UNL     1       5.942   4.527   5.455  0.00  0.00    +0.000 A 
ATOM     16  C   UNL     1       7.011   4.002   6.172  0.00  0.00    +0.000 A 
ATOM     17  N   UNL     1       7.901   4.745   6.863  0.00  0.00    +0.000 NA
ATOM     18  C   UNL     1       7.719   6.088   6.840  0.00  0.00    +0.000 A 
ATOM     19  C   UNL     1       6.687   6.749   6.173  0.00  0.00    +0.000 A 
ATOM     20  C   UNL     1       5.788   5.920   5.481  0.00  0.00    +0.000 A 
BRANCH  19  21
ATOM     21  C   UNL     1       6.536   8.221   6.194  0.00  0.00    +0.000 A 
ATOM     22  C   UNL     1       6.007   8.919   5.088  0.00  0.00    +0.000 A 
ATOM     23  C   UNL     1       5.848  10.310   5.101  0.00  0.00    +0.000 A 
ATOM     24  C   UNL     1       6.228  11.040   6.221  0.00  0.00    +0.000 A 
ATOM     25  C   UNL     1       6.757  10.372   7.316  0.00  0.00    +0.000 A 
ATOM     26  F   UNL     1       7.128  11.070   8.396  0.00  0.00    +0.000 F 
ATOM     27  C   UNL     1       6.907   8.986   7.315  0.00  0.00    +0.000 A 
ENDBRANCH  19  21
ENDBRANCH   1  15
TORSDOF 4
