REMARK  Name = 
REMARK  9 active torsions:
REMARK  status: ('A' for Active; 'I' for Inactive)
REMARK    1  A    between atoms: C_2  and  O_3
REMARK    2  A    between atoms: C_2  and  C_4
REMARK    3  A    between atoms: N_8  and  C_9
REMARK    4  A    between atoms: C_9  and  C_10
REMARK    5  A    between atoms: C_10  and  C_13
REMARK    6  A    between atoms: C_17  and  N_18
REMARK    7  A    between atoms: C_21  and  C_22
REMARK    8  A    between atoms: C_22  and  C_23
REMARK    9  A    between atoms: C_23  and  O_24
REMARK                            x       y       z     vdW  Elec       q    Type
REMARK                         _______ _______ _______ _____ _____    ______ ____
ROOT
ATOM      1  C   UNL     1       6.109  -6.922   0.964  0.00  0.00    +0.000 C 
ATOM      2  F   UNL     1       7.385  -6.537   0.647  0.00  0.00    +0.000 F 
ATOM      3  F   UNL     1       6.078  -6.929   2.334  0.00  0.00    +0.000 F 
ENDROOT
BRANCH   1   4
ATOM      4  C   UNL     1       5.807  -8.309   0.412  0.00  0.00    +0.000 A 
ATOM      5  C   UNL     1       6.648  -9.364   0.788  0.00  0.00    +0.000 A 
ATOM      6  C   UNL     1       6.390 -10.663   0.361  0.00  0.00    +0.000 A 
ATOM      7  C   UNL     1       5.276 -10.927  -0.442  0.00  0.00    +0.000 A 
ATOM      8  C   UNL     1       4.409  -9.909  -0.850  0.00  0.00    +0.000 A 
ATOM      9  C   UNL     1       4.708  -8.604  -0.421  0.00  0.00    +0.000 A 
BRANCH   8  10
ATOM     10  N   UNL     1       3.282 -10.162  -1.611  0.00  0.00    +0.000 N 
ATOM     11  C   UNL     1       2.518 -11.402  -1.455  0.00  0.00    +0.000 C 
ATOM     12  C   UNL     1       2.578 -12.227  -2.740  0.00  0.00    +0.000 C 
ATOM     13  C   UNL     1       2.158 -11.410  -3.978  0.00  0.00    +0.000 C 
ATOM     14  C   UNL     1       3.035 -10.147  -4.044  0.00  0.00    +0.000 C 
ATOM     15  C   UNL     1       2.953  -9.316  -2.760  0.00  0.00    +0.000 C 
BRANCH  13  16
ATOM     16  C   UNL     1       0.645 -11.106  -3.971  0.00  0.00    +0.000 C 
BRANCH  16  17
ATOM     17  C   UNL     1       0.171 -10.334  -5.199  0.00  0.00    +0.000 C 
BRANCH  17  18
ATOM     18  O   UNL     1      -1.228 -10.093  -5.105  0.00  0.00    +0.000 OA
ATOM     19  H   UNL     1      -1.675 -10.953  -5.114  0.00  0.00    +0.000 HD
ENDBRANCH  17  18
ENDBRANCH  16  17
ENDBRANCH  13  16
ENDBRANCH   8  10
ENDBRANCH   1   4
BRANCH   1  20
ATOM     20  C   UNL     1       5.144  -5.814   0.479  0.00  0.00    +0.000 C 
BRANCH  20  25
ATOM     21  C   UNL     1       3.132  -1.107   0.293  0.00  0.00    +0.000 A 
ATOM     22  C   UNL     1       2.804  -2.275  -0.378  0.00  0.00    +0.000 A 
ATOM     23  C   UNL     1       3.547  -3.429  -0.135  0.00  0.00    +0.000 A 
ATOM     24  C   UNL     1       4.602  -3.401   0.777  0.00  0.00    +0.000 A 
ATOM     25  N   UNL     1       5.402  -4.484   1.026  0.00  0.00    +0.000 N 
ATOM     26  N   UNL     1       4.909  -2.274   1.451  0.00  0.00    +0.000 NA
ATOM     27  C   UNL     1       4.166  -1.162   1.214  0.00  0.00    +0.000 A 
ATOM     28  H   UNL     1       6.092  -4.362   1.760  0.00  0.00    +0.000 HD
BRANCH  21  30
ATOM     29  O   UNL     1       1.167   0.089  -0.245  0.00  0.00    +0.000 OA
ATOM     30  C   UNL     1       2.353   0.118   0.038  0.00  0.00    +0.000 C 
BRANCH  30  31
ATOM     31  O   UNL     1       3.075   1.255   0.086  0.00  0.00    +0.000 OA
ATOM     32  H   UNL     1       4.045   1.150   0.108  0.00  0.00    +0.000 HD
ENDBRANCH  30  31
ENDBRANCH  21  30
ENDBRANCH  20  25
ENDBRANCH   1  20
TORSDOF 9
