REMARK  Name = 
REMARK  8 active torsions:
REMARK  status: ('A' for Active; 'I' for Inactive)
REMARK    1  A    between atoms: C_1  and  C_2
REMARK    2  A    between atoms: C_9  and  C_10
REMARK    3  A    between atoms: C_13  and  O_14
REMARK    4  A    between atoms: O_14  and  C_15
REMARK    5  A    between atoms: C_15  and  N_16
REMARK    6  A    between atoms: N_16  and  C_17
REMARK    7  A    between atoms: C_20  and  C_21
REMARK    8  A    between atoms: C_32  and  C_33
REMARK                            x       y       z     vdW  Elec       q    Type
REMARK                         _______ _______ _______ _____ _____    ______ ____
ROOT
ATOM      1  C   UNL     1       2.295   4.629  -4.811  0.00  0.00    +0.000 C 
ATOM      2  C   UNL     1       3.549   4.688  -5.587  0.00  0.00    +0.000 C 
ATOM      3  C   UNL     1       3.715   6.088  -5.801  0.00  0.00    +0.000 C 
ATOM      4  C   UNL     1       2.660   6.687  -5.234  0.00  0.00    +0.000 C 
ATOM      5  N   UNL     1       1.792   5.812  -4.598  0.00  0.00    +0.000 NA
ENDROOT
BRANCH   1  14
ATOM      6  C   UNL     1       5.909  -1.295  -5.596  0.00  0.00    +0.000 C 
ATOM      7  C   UNL     1       4.607  -1.097  -4.832  0.00  0.00    +0.000 C 
ATOM      8  C   UNL     1       3.667  -0.117  -5.572  0.00  0.00    +0.000 C 
ATOM      9  N   UNL     1       2.384  -0.085  -4.884  0.00  0.00    +0.000 N 
ATOM     10  C   UNL     1       1.769   1.075  -4.511  0.00  0.00    +0.000 A 
ATOM     11  N   UNL     1       0.605   0.995  -3.845  0.00  0.00    +0.000 NA
ATOM     12  C   UNL     1       0.014   2.130  -3.440  0.00  0.00    +0.000 A 
ATOM     13  C   UNL     1       0.537   3.366  -3.687  0.00  0.00    +0.000 A 
ATOM     14  C   UNL     1       1.708   3.349  -4.400  0.00  0.00    +0.000 A 
ATOM     15  N   UNL     1       2.348   2.238  -4.807  0.00  0.00    +0.000 NA
ATOM     16  C   UNL     1       1.760  -1.374  -4.619  0.00  0.00    +0.000 C 
ATOM     17  C   UNL     1       2.772  -2.290  -3.908  0.00  0.00    +0.000 C 
ATOM     18  C   UNL     1       2.188  -3.686  -3.745  0.00  0.00    +0.000 C 
ATOM     19  O   UNL     1       3.992  -2.395  -4.670  0.00  0.00    +0.000 OA
ENDBRANCH   1  14
BRANCH   4  20
ATOM     20  O   UNL     1       2.562   8.055  -5.221  0.00  0.00    +0.000 OA
BRANCH  20  21
ATOM     21  C   UNL     1       1.301   8.756  -5.270  0.00  0.00    +0.000 C 
ATOM     22  C   UNL     1       0.495   8.637  -3.984  0.00  0.00    +0.000 C 
ATOM     23  C   UNL     1      -0.057   8.097  -5.265  0.00  0.00    +0.000 C 
BRANCH  21  24
ATOM     24  N   UNL     1       1.483  10.088  -5.913  0.00  0.00    +0.000 N 
ATOM     25  H   UNL     1       2.429  10.423  -5.726  0.00  0.00    +0.000 HD
BRANCH  24  26
ATOM     26  C   UNL     1       1.328  10.186  -7.325  0.00  0.00    +0.000 A 
ATOM     27  N   UNL     1       0.900   9.104  -8.023  0.00  0.00    +0.000 NA
ATOM     28  C   UNL     1       0.784   9.212  -9.371  0.00  0.00    +0.000 A 
ATOM     29  C   UNL     1       1.048  10.365 -10.087  0.00  0.00    +0.000 A 
ATOM     30  C   UNL     1       1.461  11.488  -9.368  0.00  0.00    +0.000 A 
ATOM     31  C   UNL     1       1.611  11.390  -7.988  0.00  0.00    +0.000 A 
ATOM     32  F   UNL     1       2.058  12.460  -7.310  0.00  0.00    +0.000 F 
BRANCH  29  33
ATOM     33  C   UNL     1       0.931  10.461 -11.563  0.00  0.00    +0.000 C 
ATOM     34  N   UNL     1       0.564   9.359 -12.279  0.00  0.00    +0.000 N 
ATOM     35  O   UNL     1       1.170  11.516 -12.144  0.00  0.00    +0.000 OA
ATOM     36  H   UNL     1       0.353   8.444 -11.913  0.00  0.00    +0.000 HD
ATOM     37  H   UNL     1       0.513   9.475 -13.289  0.00  0.00    +0.000 HD
ENDBRANCH  29  33
ENDBRANCH  24  26
ENDBRANCH  21  24
ENDBRANCH  20  21
ENDBRANCH   4  20
TORSDOF 6
