REMARK  Name = 
REMARK  7 active torsions:
REMARK  status: ('A' for Active; 'I' for Inactive)
REMARK    1  A    between atoms: C_1  and  C_2
REMARK    2  A    between atoms: C_2  and  C_3
REMARK    3  A    between atoms: C_5  and  N_6
REMARK    4  A    between atoms: C_5  and  C_12
REMARK    5  A    between atoms: N_6  and  C_7
REMARK    6  A    between atoms: C_7  and  C_8
REMARK    7  A    between atoms: C_16  and  C_17
REMARK                            x       y       z     vdW  Elec       q    Type
REMARK                         _______ _______ _______ _____ _____    ______ ____
ROOT
ATOM      1  C   UNL     1       1.281  -1.298  -0.132  0.00  0.00    +0.000 C 
ATOM      2  C   UNL     1       0.571   0.057  -0.102  0.00  0.00    +0.000 C 
ATOM      3  C   UNL     1       1.597   1.190  -0.031  0.00  0.00    +0.000 C 
ATOM      4  C   UNL     1      -0.561   0.126   0.954  0.00  0.00    +0.000 C 
ATOM      5  C   UNL     1      -1.648  -0.030  -0.153  0.00  0.00    +0.000 C 
ATOM      6  C   UNL     1      -0.515   0.319  -1.188  0.00  0.00    +0.000 C 
ENDROOT
BRANCH   5   7
ATOM      7  C   UNL     1      -2.928   0.904  -0.107  0.00  0.00    +0.000 A 
ATOM      8  C   UNL     1      -3.444   1.431   1.085  0.00  0.00    +0.000 A 
ATOM      9  N   UNL     1      -4.512   2.261   1.195  0.00  0.00    +0.000 NA
ATOM     10  C   UNL     1      -5.128   2.616   0.046  0.00  0.00    +0.000 A 
ATOM     11  C   UNL     1      -4.726   2.180  -1.204  0.00  0.00    +0.000 A 
ATOM     12  C   UNL     1      -3.620   1.318  -1.262  0.00  0.00    +0.000 A 
BRANCH  11  13
ATOM     13  C   UNL     1      -5.391   2.581  -2.468  0.00  0.00    +0.000 C 
ATOM     14  N   UNL     1      -6.459   3.433  -2.424  0.00  0.00    +0.000 N 
ATOM     15  O   UNL     1      -4.995   2.154  -3.547  0.00  0.00    +0.000 OA
ATOM     16  H   UNL     1      -6.867   3.838  -1.596  0.00  0.00    +0.000 HD
ATOM     17  H   UNL     1      -6.881   3.671  -3.313  0.00  0.00    +0.000 HD
ENDBRANCH  11  13
ENDBRANCH   5   7
BRANCH   5  18
ATOM     18  N   UNL     1      -1.978  -1.428  -0.491  0.00  0.00    +0.000 NA
ATOM     19  H   UNL     1      -2.357  -1.538  -1.430  0.00  0.00    +0.000 HD
BRANCH  18  20
ATOM     20  C   UNL     1      -2.681  -2.317   0.467  0.00  0.00    +0.000 C 
ATOM     21  C   UNL     1      -4.175  -2.250   0.683  0.00  0.00    +0.000 C 
ATOM     22  C   UNL     1      -3.628  -3.319  -0.204  0.00  0.00    +0.000 C 
BRANCH  20  23
ATOM     23  C   UNL     1      -1.903  -2.858   1.565  0.00  0.00    +0.000 C 
ATOM     24  N   UNL     1      -1.301  -3.295   2.452  0.00  0.00    +0.000 NA
ENDBRANCH  20  23
ENDBRANCH  18  20
ENDBRANCH   5  18
TORSDOF 5
