REMARK  Name = 
REMARK  7 active torsions:
REMARK  status: ('A' for Active; 'I' for Inactive)
REMARK    1  A    between atoms: C_1  and  C_2
REMARK    2  A    between atoms: C_4  and  C_5
REMARK    3  A    between atoms: C_5  and  N_6
REMARK    4  A    between atoms: C_7  and  C_9
REMARK    5  A    between atoms: C_16  and  C_17
REMARK    6  A    between atoms: C_17  and  N_18
REMARK    7  A    between atoms: C_19  and  C_21
REMARK                            x       y       z     vdW  Elec       q    Type
REMARK                         _______ _______ _______ _____ _____    ______ ____
ROOT
ATOM      1  C   UNL     1       2.560   0.247  -0.150  0.00  0.00    +0.000 C 
ATOM      2  C   UNL     1       1.061   0.129  -0.102  0.00  0.00    +0.000 A 
ATOM      3  C   UNL     1       0.298   1.315  -0.088  0.00  0.00    +0.000 A 
ATOM      4  C   UNL     1      -1.102   1.290  -0.026  0.00  0.00    +0.000 A 
ATOM      5  C   UNL     1      -1.745   0.049  -0.023  0.00  0.00    +0.000 A 
ATOM      6  C   UNL     1      -1.000  -1.137  -0.023  0.00  0.00    +0.000 A 
ATOM      7  C   UNL     1       0.407  -1.119  -0.030  0.00  0.00    +0.000 A 
ENDROOT
BRANCH   4   8
ATOM      8  C   UNL     1      -1.885   2.578   0.014  0.00  0.00    +0.000 C 
BRANCH   8   9
ATOM      9  N   UNL     1      -2.157   3.074  -1.313  0.00  0.00    +0.000 N 
ATOM     10  C   UNL     1      -2.892   4.217  -1.517  0.00  0.00    +0.000 C 
ATOM     11  O   UNL     1      -3.370   4.872  -0.596  0.00  0.00    +0.000 OA
ATOM     12  H   UNL     1      -1.705   2.619  -2.091  0.00  0.00    +0.000 HD
BRANCH  10  13
ATOM     13  C   UNL     1      -3.056   4.598  -2.898  0.00  0.00    +0.000 A 
ATOM     14  C   UNL     1      -2.669   4.015  -4.091  0.00  0.00    +0.000 A 
ATOM     15  C   UNL     1      -3.141   4.879  -5.096  0.00  0.00    +0.000 A 
ATOM     16  N   UNL     1      -3.777   5.935  -4.595  0.00  0.00    +0.000 NA
ATOM     17  N   UNL     1      -3.719   5.737  -3.264  0.00  0.00    +0.000 N 
ATOM     18  H   UNL     1      -4.150   6.423  -2.647  0.00  0.00    +0.000 HD
ENDBRANCH  10  13
ENDBRANCH   8   9
ENDBRANCH   4   8
BRANCH   7  19
ATOM     19  C   UNL     1       1.152  -2.440   0.014  0.00  0.00    +0.000 C 
BRANCH  19  20
ATOM     20  N   UNL     1       1.330  -2.984  -1.310  0.00  0.00    +0.000 N 
ATOM     21  C   UNL     1       1.802  -4.254  -1.529  0.00  0.00    +0.000 C 
ATOM     22  O   UNL     1       2.080  -5.019  -0.609  0.00  0.00    +0.000 OA
ATOM     23  H   UNL     1       1.372  -2.308  -2.064  0.00  0.00    +0.000 HD
BRANCH  21  24
ATOM     24  C   UNL     1       1.882  -4.680  -2.936  0.00  0.00    +0.000 A 
ATOM     25  C   UNL     1       1.904  -6.031  -3.259  0.00  0.00    +0.000 A 
ATOM     26  S   UNL     1       1.863  -6.334  -4.939  0.00  0.00    +0.000 S 
ATOM     27  C   UNL     1       1.868  -4.670  -5.295  0.00  0.00    +0.000 A 
ATOM     28  N   UNL     1       1.821  -4.225  -6.580  0.00  0.00    +0.000 NA
ATOM     29  C   UNL     1       1.847  -2.940  -6.702  0.00  0.00    +0.000 A 
ATOM     30  N   UNL     1       1.933  -2.059  -5.656  0.00  0.00    +0.000 N 
ATOM     31  C   UNL     1       1.996  -2.463  -4.345  0.00  0.00    +0.000 A 
ATOM     32  O   UNL     1       2.099  -1.647  -3.435  0.00  0.00    +0.000 OA
ATOM     33  C   UNL     1       1.923  -3.897  -4.150  0.00  0.00    +0.000 A 
ATOM     34  H   UNL     1       1.972  -1.064  -5.817  0.00  0.00    +0.000 HD
ENDBRANCH  21  24
ENDBRANCH  19  20
ENDBRANCH   7  19
TORSDOF 6
