REMARK  Name = 
REMARK  8 active torsions:
REMARK  status: ('A' for Active; 'I' for Inactive)
REMARK    1  A    between atoms: C_1  and  C_2
REMARK    2  A    between atoms: C_9  and  C_10
REMARK    3  A    between atoms: N_12  and  C_13
REMARK    4  A    between atoms: C_13  and  C_14
REMARK    5  A    between atoms: C_17  and  N_18
REMARK    6  A    between atoms: N_18  and  C_19
REMARK    7  A    between atoms: C_19  and  C_20
REMARK    8  A    between atoms: C_20  and  C_21
REMARK                            x       y       z     vdW  Elec       q    Type
REMARK                         _______ _______ _______ _____ _____    ______ ____
ROOT
ATOM      1  C   UNL     1      -0.024  -6.464   0.074  0.00  0.00    +0.000 A 
ATOM      2  C   UNL     1      -1.215  -7.196  -0.030  0.00  0.00    +0.000 A 
ATOM      3  C   UNL     1      -1.183  -8.593  -0.071  0.00  0.00    +0.000 A 
ATOM      4  C   UNL     1       0.029  -9.288  -0.012  0.00  0.00    +0.000 A 
ATOM      5  C   UNL     1       1.202  -8.548   0.186  0.00  0.00    +0.000 A 
ATOM      6  C   UNL     1       1.181  -7.152   0.215  0.00  0.00    +0.000 A 
ENDROOT
BRANCH   4   7
ATOM      7  N   UNL     1       0.150 -10.672  -0.153  0.00  0.00    +0.000 N 
ATOM      8  H   UNL     1       0.444 -11.111   0.716  0.00  0.00    +0.000 HD
BRANCH   7   9
ATOM      9  C   UNL     1      -0.883 -11.417  -0.876  0.00  0.00    +0.000 C 
BRANCH   9  10
ATOM     10  C   UNL     1      -0.861 -11.045  -2.361  0.00  0.00    +0.000 C 
BRANCH  10  11
ATOM     11  C   UNL     1      -1.871 -11.817  -3.156  0.00  0.00    +0.000 A 
ATOM     12  C   UNL     1      -1.483 -12.583  -4.252  0.00  0.00    +0.000 A 
ATOM     13  N   UNL     1      -2.364 -13.256  -5.028  0.00  0.00    +0.000 NA
ATOM     14  C   UNL     1      -3.661 -13.119  -4.674  0.00  0.00    +0.000 A 
ATOM     15  C   UNL     1      -4.059 -12.354  -3.592  0.00  0.00    +0.000 A 
ATOM     16  N   UNL     1      -3.178 -11.691  -2.810  0.00  0.00    +0.000 NA
ENDBRANCH  10  11
ENDBRANCH   9  10
ENDBRANCH   7   9
ENDBRANCH   4   7
BRANCH   1  17
ATOM     17  C   UNL     1      -0.051  -4.960   0.034  0.00  0.00    +0.000 C 
BRANCH  17  20
ATOM     18  C   UNL     1      -0.313  -3.035   1.511  0.00  0.00    +0.000 C 
ATOM     19  O   UNL     1      -0.327  -2.271   0.554  0.00  0.00    +0.000 OA
ATOM     20  N   UNL     1      -0.206  -4.400   1.353  0.00  0.00    +0.000 N 
ATOM     21  H   UNL     1      -0.031  -4.996   2.149  0.00  0.00    +0.000 HD
BRANCH  18  30
ATOM     22  C   UNL     1       1.213  -0.029   1.464  0.00  0.00    +0.000 C 
ATOM     23  C   UNL     1       0.746  -0.180   2.880  0.00  0.00    +0.000 A 
ATOM     24  N   UNL     1       1.036   0.873   3.695  0.00  0.00    +0.000 NA
ATOM     25  C   UNL     1       0.671   0.828   4.982  0.00  0.00    +0.000 A 
ATOM     26  N   UNL     1       0.038  -0.165   5.600  0.00  0.00    +0.000 NA
ATOM     27  C   UNL     1      -0.239  -1.192   4.781  0.00  0.00    +0.000 A 
ATOM     28  S   UNL     1      -1.044  -2.555   5.400  0.00  0.00    +0.000 S 
ATOM     29  C   UNL     1      -1.027  -3.323   3.883  0.00  0.00    +0.000 A 
ATOM     30  C   UNL     1      -0.406  -2.572   2.896  0.00  0.00    +0.000 A 
ATOM     31  C   UNL     1       0.061  -1.294   3.425  0.00  0.00    +0.000 A 
ENDBRANCH  18  30
ENDBRANCH  17  20
ENDBRANCH   1  17
TORSDOF 7
