REMARK  Name = 
REMARK  9 active torsions:
REMARK  status: ('A' for Active; 'I' for Inactive)
REMARK    1  A    between atoms: N_1  and  C_2
REMARK    2  A    between atoms: C_2  and  C_3
REMARK    3  A    between atoms: C_3  and  C_4
REMARK    4  A    between atoms: C_4  and  N_5
REMARK    5  A    between atoms: N_5  and  C_6
REMARK    6  A    between atoms: C_6  and  C_7
REMARK    7  A    between atoms: C_10  and  C_11
REMARK    8  A    between atoms: C_12  and  C_13
REMARK    9  A    between atoms: C_16  and  C_17
REMARK                            x       y       z     vdW  Elec       q    Type
REMARK                         _______ _______ _______ _____ _____    ______ ____
ROOT
ATOM      1  C   UNL     1       6.905  -1.756   3.902  0.00  0.00    +0.000 A 
ATOM      2  C   UNL     1       7.426  -0.894   4.864  0.00  0.00    +0.000 A 
ATOM      3  C   UNL     1       7.818  -1.413   6.094  0.00  0.00    +0.000 A 
ATOM      4  C   UNL     1       7.664  -2.775   6.357  0.00  0.00    +0.000 A 
ATOM      5  C   UNL     1       7.157  -3.561   5.326  0.00  0.00    +0.000 A 
ATOM      6  N   UNL     1       6.774  -3.089   4.115  0.00  0.00    +0.000 NA
ENDROOT
BRANCH   4   7
ATOM      7  C   UNL     1       8.080  -3.392   7.623  0.00  0.00    +0.000 C 
ATOM      8  C   UNL     1       8.049  -2.751   8.802  0.00  0.00    +0.000 C 
BRANCH   8   9
ATOM      9  C   UNL     1       8.511  -3.317  10.078  0.00  0.00    +0.000 A 
ATOM     10  C   UNL     1       9.537  -4.268  10.150  0.00  0.00    +0.000 A 
ATOM     11  C   UNL     1      10.010  -4.715  11.385  0.00  0.00    +0.000 A 
ATOM     12  C   UNL     1       9.478  -4.209  12.578  0.00  0.00    +0.000 A 
ATOM     13  C   UNL     1       8.450  -3.258  12.508  0.00  0.00    +0.000 A 
ATOM     14  C   UNL     1       7.975  -2.815  11.270  0.00  0.00    +0.000 A 
BRANCH  12  15
ATOM     15  C   UNL     1      10.007  -4.653  13.918  0.00  0.00    +0.000 C 
ATOM     16  F   UNL     1      11.005  -5.576  13.833  0.00  0.00    +0.000 F 
ATOM     17  F   UNL     1      10.519  -3.619  14.642  0.00  0.00    +0.000 F 
ATOM     18  F   UNL     1       9.044  -5.215  14.700  0.00  0.00    +0.000 F 
ENDBRANCH  12  15
ENDBRANCH   8   9
ENDBRANCH   4   7
BRANCH   1  19
ATOM     19  C   UNL     1       6.516  -1.222   2.537  0.00  0.00    +0.000 C 
BRANCH  19  20
ATOM     20  N   UNL     1       7.604  -0.518   1.834  0.00  0.00    +0.000 NA
ATOM     21  H   UNL     1       7.236  -0.164   0.952  0.00  0.00    +0.000 HD
BRANCH  20  22
ATOM     22  C   UNL     1       8.724  -1.422   1.551  0.00  0.00    +0.000 C 
BRANCH  22  23
ATOM     23  C   UNL     1       9.837  -0.659   0.835  0.00  0.00    +0.000 C 
BRANCH  23  24
ATOM     24  C   UNL     1      11.021  -1.584   0.562  0.00  0.00    +0.000 C 
BRANCH  24  25
ATOM     25  N   UNL     1      12.085  -0.863  -0.125  0.00  0.00    +0.000 NA
ATOM     26  H   UNL     1      12.890  -1.479  -0.240  0.00  0.00    +0.000 HD
ATOM     27  H   UNL     1      12.401  -0.087   0.455  0.00  0.00    +0.000 HD
ENDBRANCH  24  25
ENDBRANCH  23  24
ENDBRANCH  22  23
ENDBRANCH  20  22
ENDBRANCH  19  20
ENDBRANCH   1  19
TORSDOF 9
