REMARK  Name = 
REMARK  7 active torsions:
REMARK  status: ('A' for Active; 'I' for Inactive)
REMARK    1  A    between atoms: C_1  and  S_2
REMARK    2  A    between atoms: S_2  and  C_5
REMARK    3  A    between atoms: C_8  and  C_9
REMARK    4  A    between atoms: C_13  and  C_14
REMARK    5  A    between atoms: C_14  and  O_15
REMARK    6  A    between atoms: O_15  and  C_16
REMARK    7  A    between atoms: C_19  and  C_20
REMARK                            x       y       z     vdW  Elec       q    Type
REMARK                         _______ _______ _______ _____ _____    ______ ____
ROOT
ATOM      1  C   UNL     1       4.621   2.984  -4.851  0.00  0.00    +0.000 A 
ATOM      2  C   UNL     1       5.338   4.187  -4.864  0.00  0.00    +0.000 A 
ATOM      3  C   UNL     1       5.673   4.767  -6.079  0.00  0.00    +0.000 A 
ATOM      4  N   UNL     1       5.346   4.245  -7.277  0.00  0.00    +0.000 NA
ATOM      5  C   UNL     1       4.641   3.091  -7.274  0.00  0.00    +0.000 A 
ATOM      6  C   UNL     1       4.266   2.447  -6.097  0.00  0.00    +0.000 A 
ENDROOT
BRANCH   1  10
ATOM      7  C   UNL     1       3.698   0.801  -1.260  0.00  0.00    +0.000 A 
ATOM      8  C   UNL     1       2.819   0.759  -2.340  0.00  0.00    +0.000 A 
ATOM      9  C   UNL     1       3.112   1.493  -3.492  0.00  0.00    +0.000 A 
ATOM     10  C   UNL     1       4.281   2.274  -3.596  0.00  0.00    +0.000 A 
ATOM     11  C   UNL     1       5.130   2.319  -2.473  0.00  0.00    +0.000 A 
ATOM     12  C   UNL     1       4.843   1.594  -1.311  0.00  0.00    +0.000 A 
BRANCH   7  14
ATOM     13  C   UNL     1       4.072  -1.691  -0.064  0.00  0.00    +0.000 C 
ATOM     14  S   UNL     1       3.320  -0.110   0.216  0.00  0.00    +0.000 S 
ATOM     15  O   UNL     1       1.882  -0.296   0.253  0.00  0.00    +0.000 OA
ATOM     16  O   UNL     1       4.016   0.532   1.314  0.00  0.00    +0.000 OA
ENDBRANCH   7  14
ENDBRANCH   1  10
BRANCH   5  17
ATOM     17  C   UNL     1       4.303   2.467  -8.606  0.00  0.00    +0.000 C 
BRANCH  17  18
ATOM     18  O   UNL     1       3.020   2.909  -9.061  0.00  0.00    +0.000 OA
BRANCH  18  19
ATOM     19  C   UNL     1       2.621   2.407 -10.267  0.00  0.00    +0.000 A 
ATOM     20  C   UNL     1       3.349   1.511 -11.054  0.00  0.00    +0.000 A 
ATOM     21  C   UNL     1       2.822   1.071 -12.265  0.00  0.00    +0.000 A 
ATOM     22  C   UNL     1       1.579   1.539 -12.658  0.00  0.00    +0.000 A 
ATOM     23  N   UNL     1       0.834   2.411 -11.922  0.00  0.00    +0.000 NA
ATOM     24  C   UNL     1       1.381   2.818 -10.749  0.00  0.00    +0.000 A 
BRANCH  22  25
ATOM     25  C   UNL     1       1.008   1.077 -13.960  0.00  0.00    +0.000 C 
ATOM     26  N   UNL     1      -0.222   1.581 -14.283  0.00  0.00    +0.000 N 
ATOM     27  O   UNL     1       1.599   0.300 -14.702  0.00  0.00    +0.000 OA
ATOM     28  H   UNL     1      -0.674   2.236 -13.655  0.00  0.00    +0.000 HD
ATOM     29  H   UNL     1      -0.651   1.322 -15.159  0.00  0.00    +0.000 HD
ENDBRANCH  22  25
ENDBRANCH  18  19
ENDBRANCH  17  18
ENDBRANCH   5  17
TORSDOF 6
