REMARK  Name = 
REMARK  5 active torsions:
REMARK  status: ('A' for Active; 'I' for Inactive)
REMARK    1  A    between atoms: C_1  and  C_2
REMARK    2  A    between atoms: C_2  and  C_3
REMARK    3  A    between atoms: C_2  and  C_14
REMARK    4  A    between atoms: C_3  and  N_4
REMARK    5  A    between atoms: C_8  and  C_9
REMARK                            x       y       z     vdW  Elec       q    Type
REMARK                         _______ _______ _______ _____ _____    ______ ____
ROOT
ATOM      1  N   UNL     1       2.775  -2.482   0.305  0.00  0.00    +0.000 N 
ATOM      2  C   UNL     1       3.390  -3.709   0.003  0.00  0.00    +0.000 A 
ATOM      3  C   UNL     1       3.180  -4.823   0.832  0.00  0.00    +0.000 A 
ATOM      4  N   UNL     1       3.730  -6.051   0.622  0.00  0.00    +0.000 NA
ATOM      5  C   UNL     1       4.532  -6.122  -0.474  0.00  0.00    +0.000 A 
ATOM      6  C   UNL     1       4.766  -5.032  -1.293  0.00  0.00    +0.000 A 
ATOM      7  N   UNL     1       4.208  -3.815  -1.067  0.00  0.00    +0.000 NA
ATOM      8  H   UNL     1       1.770  -2.619   0.386  0.00  0.00    +0.000 HD
ENDROOT
BRANCH   5   9
ATOM      9  C   UNL     1       5.173  -7.426  -0.799  0.00  0.00    +0.000 C 
ATOM     10  N   UNL     1       4.903  -8.460   0.056  0.00  0.00    +0.000 N 
ATOM     11  O   UNL     1       5.895  -7.573  -1.777  0.00  0.00    +0.000 OA
ATOM     12  H   UNL     1       4.303  -8.314   0.860  0.00  0.00    +0.000 HD
ATOM     13  H   UNL     1       5.310  -9.365  -0.119  0.00  0.00    +0.000 HD
ENDBRANCH   5   9
BRANCH   1  14
ATOM     14  C   UNL     1       3.080  -1.425  -0.656  0.00  0.00    +0.000 C 
BRANCH  14  16
ATOM     15  C   UNL     1       2.728   0.509   1.005  0.00  0.00    +0.000 C 
ATOM     16  C   UNL     1       2.308  -0.210  -0.240  0.00  0.00    +0.000 C 
BRANCH  16  17
ATOM     17  C   UNL     1       1.060   0.172  -0.918  0.00  0.00    +0.000 A 
ATOM     18  C   UNL     1       0.946   0.157  -2.315  0.00  0.00    +0.000 A 
ATOM     19  C   UNL     1      -0.246   0.541  -2.938  0.00  0.00    +0.000 A 
ATOM     20  C   UNL     1      -1.341   0.936  -2.173  0.00  0.00    +0.000 A 
ATOM     21  C   UNL     1      -1.244   0.949  -0.785  0.00  0.00    +0.000 A 
ATOM     22  C   UNL     1      -0.051   0.576  -0.164  0.00  0.00    +0.000 A 
ENDBRANCH  16  17
ENDBRANCH  14  16
ENDBRANCH   1  14
TORSDOF 4
