REMARK  Name = 
REMARK  8 active torsions:
REMARK  status: ('A' for Active; 'I' for Inactive)
REMARK    1  A    between atoms: N_1  and  C_2
REMARK    2  A    between atoms: C_2  and  C_3
REMARK    3  A    between atoms: C_3  and  N_4
REMARK    4  A    between atoms: N_4  and  C_5
REMARK    5  A    between atoms: C_5  and  C_6
REMARK    6  A    between atoms: C_9  and  C_10
REMARK    7  A    between atoms: C_10  and  N_11
REMARK    8  A    between atoms: C_12  and  C_14
REMARK                            x       y       z     vdW  Elec       q    Type
REMARK                         _______ _______ _______ _____ _____    ______ ____
ROOT
ATOM      1  C   UNL     1      10.705  -2.291   1.725  0.00  0.00    +0.000 C 
ENDROOT
BRANCH   1   5
ATOM      2  C   UNL     1       6.446  -2.249   1.798  0.00  0.00    +0.000 A 
ATOM      3  C   UNL     1       7.125  -1.034   1.821  0.00  0.00    +0.000 A 
ATOM      4  C   UNL     1       8.516  -1.036   1.799  0.00  0.00    +0.000 A 
ATOM      5  C   UNL     1       9.207  -2.248   1.772  0.00  0.00    +0.000 A 
ATOM      6  C   UNL     1       8.450  -3.413   1.740  0.00  0.00    +0.000 A 
ATOM      7  N   UNL     1       7.095  -3.443   1.749  0.00  0.00    +0.000 NA
BRANCH   2   8
ATOM      8  C   UNL     1       4.931  -2.272   1.763  0.00  0.00    +0.000 C 
BRANCH   8   9
ATOM      9  N   UNL     1       4.332  -1.618   0.580  0.00  0.00    +0.000 NA
ATOM     10  H   UNL     1       3.325  -1.796   0.637  0.00  0.00    +0.000 HD
BRANCH   9  11
ATOM     11  C   UNL     1       4.773  -2.240  -0.683  0.00  0.00    +0.000 C 
BRANCH  11  12
ATOM     12  C   UNL     1       4.297  -3.694  -0.863  0.00  0.00    +0.000 C 
BRANCH  12  13
ATOM     13  N   UNL     1       2.843  -3.804  -0.690  0.00  0.00    +0.000 NA
ATOM     14  H   UNL     1       2.575  -4.783  -0.788  0.00  0.00    +0.000 HD
ATOM     15  H   UNL     1       2.382  -3.306  -1.451  0.00  0.00    +0.000 HD
ENDBRANCH  12  13
ENDBRANCH  11  12
ENDBRANCH   9  11
ENDBRANCH   8   9
ENDBRANCH   2   8
ENDBRANCH   1   5
BRANCH   1  16
ATOM     16  N   UNL     1      11.186  -2.276   0.365  0.00  0.00    +0.000 N 
ATOM     17  C   UNL     1      12.519  -2.438   0.087  0.00  0.00    +0.000 C 
ATOM     18  O   UNL     1      13.343  -2.658   0.971  0.00  0.00    +0.000 OA
ATOM     19  H   UNL     1      10.577  -1.871  -0.340  0.00  0.00    +0.000 HD
BRANCH  17  20
ATOM     20  C   UNL     1      12.908  -2.402  -1.329  0.00  0.00    +0.000 A 
ATOM     21  C   UNL     1      14.094  -3.003  -1.730  0.00  0.00    +0.000 A 
ATOM     22  S   UNL     1      14.374  -2.916  -3.409  0.00  0.00    +0.000 S 
ATOM     23  C   UNL     1      12.945  -2.026  -3.656  0.00  0.00    +0.000 A 
ATOM     24  N   UNL     1      12.594  -1.600  -4.899  0.00  0.00    +0.000 NA
ATOM     25  C   UNL     1      11.504  -0.909  -4.938  0.00  0.00    +0.000 A 
ATOM     26  N   UNL     1      10.729  -0.611  -3.846  0.00  0.00    +0.000 N 
ATOM     27  C   UNL     1      11.029  -1.044  -2.577  0.00  0.00    +0.000 A 
ATOM     28  O   UNL     1      10.294  -0.795  -1.627  0.00  0.00    +0.000 OA
ATOM     29  C   UNL     1      12.254  -1.815  -2.475  0.00  0.00    +0.000 A 
ATOM     30  H   UNL     1       9.883  -0.071  -3.946  0.00  0.00    +0.000 HD
ENDBRANCH  17  20
ENDBRANCH   1  16
TORSDOF 8
