REMARK  Name = 
REMARK  6 active torsions:
REMARK  status: ('A' for Active; 'I' for Inactive)
REMARK    1  A    between atoms: C_1  and  C_2
REMARK    2  A    between atoms: C_2  and  N_3
REMARK    3  A    between atoms: C_2  and  C_16
REMARK    4  A    between atoms: C_4  and  C_6
REMARK    5  A    between atoms: C_19  and  O_20
REMARK    6  A    between atoms: O_20  and  C_21
REMARK                            x       y       z     vdW  Elec       q    Type
REMARK                         _______ _______ _______ _____ _____    ______ ____
ROOT
ATOM      1  C   UNL     1       0.847  -0.140   0.061  0.00  0.00    +0.000 C 
ATOM      2  C   UNL     1       2.374  -0.102  -0.065  0.00  0.00    +0.000 C 
ENDROOT
BRANCH   2   3
ATOM      3  C   UNL     1       2.928   1.089   0.701  0.00  0.00    +0.000 A 
ATOM      4  C   UNL     1       3.750   0.889   1.817  0.00  0.00    +0.000 A 
ATOM      5  C   UNL     1       4.297   1.977   2.498  0.00  0.00    +0.000 A 
ATOM      6  C   UNL     1       4.069   3.280   2.047  0.00  0.00    +0.000 A 
ATOM      7  C   UNL     1       3.213   3.495   0.968  0.00  0.00    +0.000 A 
ATOM      8  C   UNL     1       2.648   2.408   0.297  0.00  0.00    +0.000 A 
BRANCH   6   9
ATOM      9  O   UNL     1       4.590   4.401   2.651  0.00  0.00    +0.000 OA
BRANCH   9  10
ATOM     10  C   UNL     1       5.896   4.343   3.123  0.00  0.00    +0.000 A 
ATOM     11  N   UNL     1       6.775   3.489   2.563  0.00  0.00    +0.000 NA
ATOM     12  C   UNL     1       8.001   3.451   3.111  0.00  0.00    +0.000 A 
ATOM     13  C   UNL     1       8.385   4.251   4.159  0.00  0.00    +0.000 A 
ATOM     14  C   UNL     1       7.426   5.120   4.625  0.00  0.00    +0.000 A 
ATOM     15  N   UNL     1       6.177   5.190   4.127  0.00  0.00    +0.000 NA
ENDBRANCH   9  10
ENDBRANCH   6   9
ENDBRANCH   2   3
BRANCH   2  16
ATOM     16  N   UNL     1       2.833  -0.036  -1.445  0.00  0.00    +0.000 N 
ATOM     17  C   UNL     1       2.565  -1.012  -2.370  0.00  0.00    +0.000 C 
ATOM     18  O   UNL     1       1.860  -1.986  -2.124  0.00  0.00    +0.000 OA
ATOM     19  H   UNL     1       3.653   0.543  -1.604  0.00  0.00    +0.000 HD
BRANCH  17  20
ATOM     20  C   UNL     1       3.104  -0.793  -3.716  0.00  0.00    +0.000 A 
ATOM     21  C   UNL     1       2.433  -1.308  -4.817  0.00  0.00    +0.000 A 
ATOM     22  S   UNL     1       3.185  -0.953  -6.305  0.00  0.00    +0.000 S 
ATOM     23  C   UNL     1       4.460  -0.136  -5.527  0.00  0.00    +0.000 A 
ATOM     24  N   UNL     1       5.492   0.392  -6.239  0.00  0.00    +0.000 NA
ATOM     25  C   UNL     1       6.404   0.955  -5.518  0.00  0.00    +0.000 A 
ATOM     26  N   UNL     1       6.372   1.045  -4.150  0.00  0.00    +0.000 N 
ATOM     27  C   UNL     1       5.333   0.557  -3.393  0.00  0.00    +0.000 A 
ATOM     28  O   UNL     1       5.300   0.702  -2.174  0.00  0.00    +0.000 OA
ATOM     29  C   UNL     1       4.296  -0.108  -4.155  0.00  0.00    +0.000 A 
ATOM     30  H   UNL     1       7.111   1.513  -3.644  0.00  0.00    +0.000 HD
ENDBRANCH  17  20
ENDBRANCH   2  16
TORSDOF 5
