REMARK  Name = 
REMARK  9 active torsions:
REMARK  status: ('A' for Active; 'I' for Inactive)
REMARK    1  A    between atoms: C_1  and  O_2
REMARK    2  A    between atoms: O_2  and  C_3
REMARK    3  A    between atoms: C_10  and  C_11
REMARK    4  A    between atoms: N_13  and  C_14
REMARK    5  A    between atoms: C_14  and  C_15
REMARK    6  A    between atoms: C_18  and  C_19
REMARK    7  A    between atoms: C_19  and  O_20
REMARK    8  A    between atoms: O_20  and  C_21
REMARK    9  A    between atoms: C_21  and  C_22
REMARK                            x       y       z     vdW  Elec       q    Type
REMARK                         _______ _______ _______ _____ _____    ______ ____
ROOT
ATOM      1  C   UNL     1       3.316  -3.269  -0.142  0.00  0.00    +0.000 C 
ENDROOT
BRANCH   1   2
ATOM      2  C   UNL     1       2.297  -3.237   0.976  0.00  0.00    +0.000 A 
ATOM      3  C   UNL     1       1.594  -4.395   1.332  0.00  0.00    +0.000 A 
ATOM      4  C   UNL     1       0.602  -4.357   2.320  0.00  0.00    +0.000 A 
ATOM      5  C   UNL     1       0.273  -3.153   2.958  0.00  0.00    +0.000 A 
ATOM      6  C   UNL     1       0.990  -1.998   2.614  0.00  0.00    +0.000 A 
ATOM      7  C   UNL     1       1.993  -2.040   1.640  0.00  0.00    +0.000 A 
BRANCH   5   8
ATOM      8  C   UNL     1      -0.842  -3.094   3.972  0.00  0.00    +0.000 C 
BRANCH   8   9
ATOM      9  O   UNL     1      -0.532  -3.942   5.069  0.00  0.00    +0.000 OA
BRANCH   9  10
ATOM     10  C   UNL     1      -1.549  -3.891   6.077  0.00  0.00    +0.000 C 
BRANCH  10  11
ATOM     11  C   UNL     1      -1.197  -4.802   7.231  0.00  0.00    +0.000 A 
ATOM     12  N   UNL     1      -0.470  -4.285   8.246  0.00  0.00    +0.000 NA
ATOM     13  C   UNL     1      -0.138  -5.131   9.238  0.00  0.00    +0.000 A 
ATOM     14  C   UNL     1      -0.510  -6.454   9.264  0.00  0.00    +0.000 A 
ATOM     15  C   UNL     1      -1.259  -6.881   8.195  0.00  0.00    +0.000 A 
ATOM     16  N   UNL     1      -1.621  -6.084   7.173  0.00  0.00    +0.000 NA
ENDBRANCH  10  11
ENDBRANCH   9  10
ENDBRANCH   8   9
ENDBRANCH   5   8
ENDBRANCH   1   2
BRANCH   1  19
ATOM     17  C   UNL     1       3.394  -2.949  -2.593  0.00  0.00    +0.000 C 
ATOM     18  O   UNL     1       4.604  -3.159  -2.624  0.00  0.00    +0.000 OA
ATOM     19  N   UNL     1       2.695  -2.992  -1.416  0.00  0.00    +0.000 N 
ATOM     20  H   UNL     1       1.688  -2.909  -1.430  0.00  0.00    +0.000 HD
BRANCH  17  28
ATOM     21  C   UNL     1       0.076  -2.278  -3.231  0.00  0.00    +0.000 A 
ATOM     22  N   UNL     1      -1.113  -1.878  -3.727  0.00  0.00    +0.000 NA
ATOM     23  C   UNL     1      -1.172  -1.528  -5.014  0.00  0.00    +0.000 A 
ATOM     24  N   UNL     1      -0.175  -1.544  -5.895  0.00  0.00    +0.000 NA
ATOM     25  C   UNL     1       0.992  -1.940  -5.360  0.00  0.00    +0.000 A 
ATOM     26  S   UNL     1       2.372  -2.041  -6.340  0.00  0.00    +0.000 S 
ATOM     27  C   UNL     1       3.333  -2.532  -5.026  0.00  0.00    +0.000 A 
ATOM     28  C   UNL     1       2.643  -2.611  -3.821  0.00  0.00    +0.000 A 
ATOM     29  C   UNL     1       1.229  -2.306  -4.033  0.00  0.00    +0.000 A 
BRANCH  21  31
ATOM     30  C   UNL     1      -1.101  -2.577  -1.219  0.00  0.00    +0.000 C 
ATOM     31  O   UNL     1       0.134  -2.692  -1.918  0.00  0.00    +0.000 OA
ENDBRANCH  21  31
ENDBRANCH  17  28
ENDBRANCH   1  19
TORSDOF 8
