REMARK  Name = 
REMARK  6 active torsions:
REMARK  status: ('A' for Active; 'I' for Inactive)
REMARK    1  A    between atoms: C_1  and  C_2
REMARK    2  A    between atoms: C_2  and  C_3
REMARK    3  A    between atoms: C_2  and  C_4
REMARK    4  A    between atoms: C_2  and  C_18
REMARK    5  A    between atoms: C_4  and  N_5
REMARK    6  A    between atoms: C_10  and  C_11
REMARK                            x       y       z     vdW  Elec       q    Type
REMARK                         _______ _______ _______ _____ _____    ______ ____
ROOT
ATOM      1  N   UNL     1       2.597  -1.775  -1.889  0.00  0.00    +0.000 N 
ATOM      2  C   UNL     1       3.004  -2.203  -3.140  0.00  0.00    +0.000 A 
ATOM      3  N   UNL     1       2.149  -3.030  -3.753  0.00  0.00    +0.000 NA
ATOM      4  C   UNL     1       2.527  -3.517  -4.946  0.00  0.00    +0.000 A 
ATOM      5  C   UNL     1       3.715  -3.193  -5.551  0.00  0.00    +0.000 A 
ATOM      6  C   UNL     1       4.529  -2.313  -4.866  0.00  0.00    +0.000 A 
ATOM      7  N   UNL     1       4.175  -1.818  -3.656  0.00  0.00    +0.000 NA
ATOM      8  H   UNL     1       1.593  -1.925  -1.883  0.00  0.00    +0.000 HD
ENDROOT
BRANCH   6   9
ATOM      9  C   UNL     1       5.842  -1.864  -5.382  0.00  0.00    +0.000 A 
ATOM     10  C   UNL     1       6.120  -1.782  -6.760  0.00  0.00    +0.000 A 
ATOM     11  C   UNL     1       7.371  -1.363  -7.228  0.00  0.00    +0.000 A 
ATOM     12  C   UNL     1       8.372  -1.011  -6.328  0.00  0.00    +0.000 A 
ATOM     13  C   UNL     1       8.123  -1.074  -4.961  0.00  0.00    +0.000 A 
ATOM     14  C   UNL     1       6.872  -1.494  -4.497  0.00  0.00    +0.000 A 
ENDBRANCH   6   9
BRANCH   1  15
ATOM     15  C   UNL     1       3.018  -0.439  -1.489  0.00  0.00    +0.000 C 
BRANCH  15  17
ATOM     16  C   UNL     1       3.150  -1.067   0.977  0.00  0.00    +0.000 C 
ATOM     17  C   UNL     1       2.516  -0.091  -0.047  0.00  0.00    +0.000 C 
ATOM     18  C   UNL     1       3.070   1.311   0.319  0.00  0.00    +0.000 C 
BRANCH  17  19
ATOM     19  C   UNL     1       0.969  -0.128  -0.006  0.00  0.00    +0.000 A 
ATOM     20  C   UNL     1       0.191   1.003  -0.317  0.00  0.00    +0.000 A 
ATOM     21  C   UNL     1      -1.208   0.937  -0.355  0.00  0.00    +0.000 A 
ATOM     22  C   UNL     1      -1.855  -0.266  -0.096  0.00  0.00    +0.000 A 
ATOM     23 CL   UNL     1      -3.570  -0.355  -0.180  0.00  0.00    +0.000 Cl
ATOM     24  C   UNL     1      -1.117  -1.399   0.217  0.00  0.00    +0.000 A 
ATOM     25  C   UNL     1       0.279  -1.327   0.267  0.00  0.00    +0.000 A 
ENDBRANCH  17  19
ENDBRANCH  15  17
ENDBRANCH   1  15
TORSDOF 4
