REMARK  Name = 
REMARK  6 active torsions:
REMARK  status: ('A' for Active; 'I' for Inactive)
REMARK    1  A    between atoms: C_1  and  C_2
REMARK    2  A    between atoms: C_2  and  O_3
REMARK    3  A    between atoms: C_2  and  C_13
REMARK    4  A    between atoms: O_3  and  C_4
REMARK    5  A    between atoms: C_7  and  C_8
REMARK    6  A    between atoms: C_16  and  C_17
REMARK                            x       y       z     vdW  Elec       q    Type
REMARK                         _______ _______ _______ _____ _____    ______ ____
ROOT
ATOM      1  C   UNL     1       0.850   0.142   0.011  0.00  0.00    +0.000 C 
ATOM      2  C   UNL     1       2.381   0.010  -0.018  0.00  0.00    +0.000 C 
ENDROOT
BRANCH   2   3
ATOM      3  C   UNL     1       2.953   1.264  -0.683  0.00  0.00    +0.000 A 
ATOM      4  C   UNL     1       3.254   2.383   0.115  0.00  0.00    +0.000 A 
ATOM      5  C   UNL     1       3.651   3.595  -0.457  0.00  0.00    +0.000 A 
ATOM      6  C   UNL     1       3.770   3.724  -1.846  0.00  0.00    +0.000 A 
ATOM      7  C   UNL     1       3.508   2.600  -2.647  0.00  0.00    +0.000 A 
ATOM      8  C   UNL     1       3.096   1.387  -2.073  0.00  0.00    +0.000 A 
BRANCH   6   9
ATOM      9  C   UNL     1       4.149   5.047  -2.471  0.00  0.00    +0.000 C 
ATOM     10  F   UNL     1       4.345   6.042  -1.560  0.00  0.00    +0.000 F 
ATOM     11  F   UNL     1       5.298   4.978  -3.197  0.00  0.00    +0.000 F 
ATOM     12  F   UNL     1       3.195   5.515  -3.325  0.00  0.00    +0.000 F 
ENDBRANCH   6   9
ENDBRANCH   2   3
BRANCH   2  13
ATOM     13  O   UNL     1       2.798  -1.177  -0.725  0.00  0.00    +0.000 OA
BRANCH  13  14
ATOM     14  C   UNL     1       2.917  -2.339  -0.010  0.00  0.00    +0.000 A 
ATOM     15  C   UNL     1       2.253  -2.632   1.176  0.00  0.00    +0.000 A 
ATOM     16  C   UNL     1       2.440  -3.863   1.800  0.00  0.00    +0.000 A 
ATOM     17  C   UNL     1       3.288  -4.790   1.213  0.00  0.00    +0.000 A 
ATOM     18  N   UNL     1       3.955  -4.560   0.049  0.00  0.00    +0.000 NA
ATOM     19  C   UNL     1       3.742  -3.341  -0.529  0.00  0.00    +0.000 A 
BRANCH  17  20
ATOM     20  C   UNL     1       3.452  -6.119   1.882  0.00  0.00    +0.000 C 
ATOM     21  N   UNL     1       4.290  -7.013   1.267  0.00  0.00    +0.000 N 
ATOM     22  O   UNL     1       2.866  -6.408   2.916  0.00  0.00    +0.000 OA
ATOM     23  H   UNL     1       4.746  -6.769   0.398  0.00  0.00    +0.000 HD
ATOM     24  H   UNL     1       4.389  -7.938   1.661  0.00  0.00    +0.000 HD
ENDBRANCH  17  20
ENDBRANCH  13  14
ENDBRANCH   2  13
TORSDOF 5
