REMARK  Name = 
REMARK  10 active torsions:
REMARK  status: ('A' for Active; 'I' for Inactive)
REMARK    1  A    between atoms: C_1  and  O_2
REMARK    2  A    between atoms: O_2  and  C_3
REMARK    3  A    between atoms: C_10  and  C_11
REMARK    4  A    between atoms: N_13  and  C_14
REMARK    5  A    between atoms: C_14  and  C_15
REMARK    6  A    between atoms: C_18  and  C_19
REMARK    7  A    between atoms: C_20  and  C_21
REMARK    8  A    between atoms: C_21  and  C_22
REMARK    9  A    between atoms: C_21  and  C_23
REMARK   10  A    between atoms: C_21  and  C_24
REMARK                            x       y       z     vdW  Elec       q    Type
REMARK                         _______ _______ _______ _____ _____    ______ ____
ROOT
ATOM      1  C   UNL     1       2.213  -2.725   2.014  0.00  0.00    +0.000 A 
ATOM      2  C   UNL     1       1.290  -3.682   2.459  0.00  0.00    +0.000 A 
ATOM      3  C   UNL     1       0.197  -3.317   3.267  0.00  0.00    +0.000 A 
ATOM      4  C   UNL     1      -0.002  -1.984   3.635  0.00  0.00    +0.000 A 
ATOM      5  C   UNL     1       0.950  -1.035   3.250  0.00  0.00    +0.000 A 
ATOM      6  C   UNL     1       2.046  -1.400   2.447  0.00  0.00    +0.000 A 
ENDROOT
BRANCH   4   7
ATOM      7  C   UNL     1      -1.183  -1.589   4.365  0.00  0.00    +0.000 C 
ATOM      8  C   UNL     1      -2.245  -1.226   5.028  0.00  0.00    +0.000 C 
BRANCH   8   9
ATOM      9  C   UNL     1      -3.484  -0.802   5.800  0.00  0.00    +0.000 C 
ATOM     10  C   UNL     1      -3.168  -0.798   7.307  0.00  0.00    +0.000 C 
ATOM     11  C   UNL     1      -3.851   0.631   5.373  0.00  0.00    +0.000 C 
BRANCH   9  12
ATOM     12  C   UNL     1      -4.609  -1.806   5.492  0.00  0.00    +0.000 A 
ATOM     13  C   UNL     1      -4.446  -3.166   5.786  0.00  0.00    +0.000 A 
ATOM     14  C   UNL     1      -5.429  -4.076   5.405  0.00  0.00    +0.000 A 
ATOM     15  C   UNL     1      -6.559  -3.617   4.747  0.00  0.00    +0.000 A 
ATOM     16  C   UNL     1      -6.668  -2.258   4.515  0.00  0.00    +0.000 A 
ATOM     17  N   UNL     1      -5.729  -1.353   4.871  0.00  0.00    +0.000 NA
ENDBRANCH   9  12
ENDBRANCH   8   9
ENDBRANCH   4   7
BRANCH   1  18
ATOM     18  C   UNL     1       3.302  -3.100   1.026  0.00  0.00    +0.000 C 
BRANCH  18  21
ATOM     19  C   UNL     1       3.609  -3.229  -1.440  0.00  0.00    +0.000 C 
ATOM     20  O   UNL     1       4.760  -3.651  -1.325  0.00  0.00    +0.000 OA
ATOM     21  N   UNL     1       2.845  -2.939  -0.342  0.00  0.00    +0.000 N 
ATOM     22  H   UNL     1       1.899  -2.610  -0.467  0.00  0.00    +0.000 HD
BRANCH  19  30
ATOM     23  C   UNL     1       0.499  -2.187  -2.477  0.00  0.00    +0.000 A 
ATOM     24  N   UNL     1      -0.589  -1.740  -3.129  0.00  0.00    +0.000 NA
ATOM     25  C   UNL     1      -0.530  -1.655  -4.462  0.00  0.00    +0.000 A 
ATOM     26  N   UNL     1       0.496  -1.986  -5.241  0.00  0.00    +0.000 NA
ATOM     27  C   UNL     1       1.564  -2.418  -4.547  0.00  0.00    +0.000 A 
ATOM     28  S   UNL     1       2.964  -2.905  -5.373  0.00  0.00    +0.000 S 
ATOM     29  C   UNL     1       3.767  -3.251  -3.912  0.00  0.00    +0.000 A 
ATOM     30  C   UNL     1       3.006  -3.002  -2.775  0.00  0.00    +0.000 A 
ATOM     31  C   UNL     1       1.675  -2.534  -3.163  0.00  0.00    +0.000 A 
BRANCH  23  33
ATOM     32  C   UNL     1      -0.885  -2.453  -0.613  0.00  0.00    +0.000 C 
ATOM     33  O   UNL     1       0.441  -2.267  -1.101  0.00  0.00    +0.000 OA
ENDBRANCH  23  33
ENDBRANCH  19  30
ENDBRANCH  18  21
ENDBRANCH   1  18
TORSDOF 7
