REMARK  Name = 
REMARK  6 active torsions:
REMARK  status: ('A' for Active; 'I' for Inactive)
REMARK    1  A    between atoms: C_2  and  C_4
REMARK    2  A    between atoms: C_7  and  O_8
REMARK    3  A    between atoms: O_8  and  C_9
REMARK    4  A    between atoms: C_9  and  C_10
REMARK    5  A    between atoms: C_13  and  O_14
REMARK    6  A    between atoms: O_14  and  C_15
REMARK                            x       y       z     vdW  Elec       q    Type
REMARK                         _______ _______ _______ _____ _____    ______ ____
ROOT
ATOM      1  C   UNL     1       5.037   5.653   1.541  0.00  0.00    +0.000 C 
ATOM      2  C   UNL     1       5.007   5.524   3.064  0.00  0.00    +0.000 C 
ATOM      3  C   UNL     1       3.773   5.940   2.344  0.00  0.00    +0.000 C 
ENDROOT
BRANCH   1   4
ATOM      4  C   UNL     1       5.743   6.858   0.937  0.00  0.00    +0.000 A 
ATOM      5  C   UNL     1       5.007   7.900   0.342  0.00  0.00    +0.000 A 
ATOM      6  C   UNL     1       5.616   9.076  -0.102  0.00  0.00    +0.000 A 
ATOM      7  C   UNL     1       6.995   9.223   0.012  0.00  0.00    +0.000 A 
ATOM      8  C   UNL     1       7.754   8.178   0.541  0.00  0.00    +0.000 A 
ATOM      9  C   UNL     1       7.134   7.016   1.009  0.00  0.00    +0.000 A 
BRANCH   7  10
ATOM     10  O   UNL     1       7.705  10.323  -0.376  0.00  0.00    +0.000 OA
BRANCH  10  11
ATOM     11  C   UNL     1       7.009  11.555  -0.276  0.00  0.00    +0.000 C 
ATOM     12  F   UNL     1       6.634  11.757   1.011  0.00  0.00    +0.000 F 
ATOM     13  F   UNL     1       7.889  12.541  -0.582  0.00  0.00    +0.000 F 
ENDBRANCH  10  11
ENDBRANCH   7  10
ENDBRANCH   1   4
BRANCH   1  14
ATOM     14  O   UNL     1       5.327   4.337   0.991  0.00  0.00    +0.000 OA
BRANCH  14  18
ATOM     15  C   UNL     1       3.579   3.078  -2.513  0.00  0.00    +0.000 A 
ATOM     16  C   UNL     1       4.513   2.263  -1.877  0.00  0.00    +0.000 A 
ATOM     17  C   UNL     1       5.113   2.720  -0.707  0.00  0.00    +0.000 A 
ATOM     18  C   UNL     1       4.730   3.958  -0.188  0.00  0.00    +0.000 A 
ATOM     19  N   UNL     1       3.814   4.758  -0.777  0.00  0.00    +0.000 NA
ATOM     20  C   UNL     1       3.289   4.315  -1.944  0.00  0.00    +0.000 A 
BRANCH  15  22
ATOM     21  N   UNL     1       2.832   1.343  -4.034  0.00  0.00    +0.000 N 
ATOM     22  C   UNL     1       2.966   2.682  -3.791  0.00  0.00    +0.000 C 
ATOM     23  O   UNL     1       2.601   3.525  -4.606  0.00  0.00    +0.000 OA
ATOM     24  H   UNL     1       2.398   1.069  -4.908  0.00  0.00    +0.000 HD
ATOM     25  H   UNL     1       2.919   0.643  -3.312  0.00  0.00    +0.000 HD
ENDBRANCH  15  22
ENDBRANCH  14  18
ENDBRANCH   1  14
TORSDOF 6
