REMARK  Name = 
REMARK  7 active torsions:
REMARK  status: ('A' for Active; 'I' for Inactive)
REMARK    1  A    between atoms: C_1  and  C_2
REMARK    2  A    between atoms: C_2  and  N_3
REMARK    3  A    between atoms: C_2  and  C_11
REMARK    4  A    between atoms: C_4  and  C_6
REMARK    5  A    between atoms: C_14  and  C_15
REMARK    6  A    between atoms: C_15  and  N_16
REMARK    7  A    between atoms: C_17  and  C_19
REMARK                            x       y       z     vdW  Elec       q    Type
REMARK                         _______ _______ _______ _____ _____    ______ ____
ROOT
ATOM      1  C   UNL     1       2.788   0.849   1.136  0.00  0.00    +0.000 A 
ATOM      2  C   UNL     1       2.749   2.252   1.143  0.00  0.00    +0.000 A 
ATOM      3  C   UNL     1       3.053   2.974   2.304  0.00  0.00    +0.000 A 
ATOM      4  C   UNL     1       3.412   2.315   3.489  0.00  0.00    +0.000 A 
ATOM      5  C   UNL     1       3.459   0.914   3.481  0.00  0.00    +0.000 A 
ATOM      6  C   UNL     1       3.171   0.196   2.317  0.00  0.00    +0.000 A 
ENDROOT
BRANCH   1   8
ATOM      7  C   UNL     1       1.709  -1.232   0.181  0.00  0.00    +0.000 C 
ATOM      8  C   UNL     1       2.435   0.086  -0.136  0.00  0.00    +0.000 C 
BRANCH   8   9
ATOM      9  N   UNL     1       3.639  -0.109  -0.935  0.00  0.00    +0.000 N 
ATOM     10  C   UNL     1       3.646  -0.696  -2.179  0.00  0.00    +0.000 C 
ATOM     11  O   UNL     1       2.653  -1.198  -2.703  0.00  0.00    +0.000 OA
ATOM     12  H   UNL     1       4.437   0.497  -0.763  0.00  0.00    +0.000 HD
BRANCH  10  13
ATOM     13  C   UNL     1       5.018  -0.736  -2.871  0.00  0.00    +0.000 C 
ATOM     14  C   UNL     1       5.846  -1.966  -2.548  0.00  0.00    +0.000 C 
ATOM     15  C   UNL     1       7.225  -1.554  -3.039  0.00  0.00    +0.000 C 
ATOM     16  C   UNL     1       7.266  -0.044  -2.832  0.00  0.00    +0.000 C 
ATOM     17  N   UNL     1       5.911   0.359  -2.412  0.00  0.00    +0.000 NA
ATOM     18  H   UNL     1       5.651   1.228  -2.870  0.00  0.00    +0.000 HD
ENDBRANCH  10  13
ENDBRANCH   8   9
ENDBRANCH   1   8
BRANCH   4  19
ATOM     19  C   UNL     1       3.713   3.072   4.756  0.00  0.00    +0.000 C 
BRANCH  19  20
ATOM     20  N   UNL     1       2.527   3.275   5.548  0.00  0.00    +0.000 N 
ATOM     21  C   UNL     1       2.547   3.980   6.724  0.00  0.00    +0.000 C 
ATOM     22  O   UNL     1       3.574   4.498   7.161  0.00  0.00    +0.000 OA
ATOM     23  H   UNL     1       1.754   2.639   5.377  0.00  0.00    +0.000 HD
BRANCH  21  24
ATOM     24  C   UNL     1       1.256   4.143   7.405  0.00  0.00    +0.000 A 
ATOM     25  C   UNL     1       1.035   5.236   8.231  0.00  0.00    +0.000 A 
ATOM     26  S   UNL     1      -0.536   5.278   8.900  0.00  0.00    +0.000 S 
ATOM     27  C   UNL     1      -0.956   3.812   8.146  0.00  0.00    +0.000 A 
ATOM     28  N   UNL     1      -2.183   3.260   8.336  0.00  0.00    +0.000 NA
ATOM     29  C   UNL     1      -2.361   2.132   7.732  0.00  0.00    +0.000 A 
ATOM     30  N   UNL     1      -1.414   1.518   6.942  0.00  0.00    +0.000 N 
ATOM     31  C   UNL     1      -0.185   2.057   6.690  0.00  0.00    +0.000 A 
ATOM     32  O   UNL     1       0.604   1.519   5.924  0.00  0.00    +0.000 OA
ATOM     33  C   UNL     1       0.072   3.311   7.378  0.00  0.00    +0.000 A 
ATOM     34  H   UNL     1      -1.626   0.644   6.478  0.00  0.00    +0.000 HD
ENDBRANCH  21  24
ENDBRANCH  19  20
ENDBRANCH   4  19
TORSDOF 6
