REMARK  Name = 
REMARK  8 active torsions:
REMARK  status: ('A' for Active; 'I' for Inactive)
REMARK    1  A    between atoms: C_2  and  C_20
REMARK    2  A    between atoms: N_3  and  C_4
REMARK    3  A    between atoms: C_4  and  C_5
REMARK    4  A    between atoms: C_8  and  C_9
REMARK    5  A    between atoms: C_9  and  N_10
REMARK    6  A    between atoms: C_23  and  C_24
REMARK    7  A    between atoms: C_24  and  N_25
REMARK    8  A    between atoms: C_26  and  C_28
REMARK                            x       y       z     vdW  Elec       q    Type
REMARK                         _______ _______ _______ _____ _____    ______ ____
ROOT
ATOM      1  O   UNL     1       5.907  -3.070  -1.634  0.00  0.00    +0.000 OA
ATOM      2  C   UNL     1       5.475  -4.143  -1.233  0.00  0.00    +0.000 C 
ATOM      3  N   UNL     1       4.746  -4.288  -0.063  0.00  0.00    +0.000 N 
ATOM      4  H   UNL     1       4.699  -5.215   0.333  0.00  0.00    +0.000 HD
ENDROOT
BRANCH   2   5
ATOM      5  C   UNL     1       5.779  -5.394  -2.000  0.00  0.00    +0.000 A 
ATOM      6  C   UNL     1       6.946  -5.430  -2.770  0.00  0.00    +0.000 A 
ATOM      7  C   UNL     1       7.260  -6.553  -3.545  0.00  0.00    +0.000 A 
ATOM      8  C   UNL     1       6.393  -7.655  -3.581  0.00  0.00    +0.000 A 
ATOM      9  C   UNL     1       5.231  -7.623  -2.786  0.00  0.00    +0.000 A 
ATOM     10  C   UNL     1       4.925  -6.501  -2.004  0.00  0.00    +0.000 A 
BRANCH   8  11
ATOM     11  C   UNL     1       6.672  -8.830  -4.488  0.00  0.00    +0.000 C 
BRANCH  11  12
ATOM     12  N   UNL     1       7.481  -9.849  -3.866  0.00  0.00    +0.000 N 
ATOM     13  C   UNL     1       6.947 -10.920  -3.181  0.00  0.00    +0.000 C 
ATOM     14  O   UNL     1       5.745 -11.108  -3.048  0.00  0.00    +0.000 OA
ATOM     15  H   UNL     1       8.490  -9.752  -3.837  0.00  0.00    +0.000 HD
BRANCH  13  16
ATOM     16  C   UNL     1       8.003 -11.927  -2.719  0.00  0.00    +0.000 C 
ATOM     17  C   UNL     1       7.611 -12.633  -1.437  0.00  0.00    +0.000 C 
ATOM     18  O   UNL     1       8.647 -12.314  -0.513  0.00  0.00    +0.000 OA
ATOM     19  C   UNL     1       9.509 -11.534  -1.194  0.00  0.00    +0.000 C 
ATOM     20  N   UNL     1       9.284 -11.230  -2.424  0.00  0.00    +0.000 NA
ENDBRANCH  13  16
ENDBRANCH  11  12
ENDBRANCH   8  11
ENDBRANCH   2   5
BRANCH   3  21
ATOM     21  C   UNL     1       4.580  -3.152   0.834  0.00  0.00    +0.000 C 
BRANCH  21  22
ATOM     22  C   UNL     1       3.342  -3.260   1.747  0.00  0.00    +0.000 C 
ATOM     23  C   UNL     1       3.360  -4.477   2.686  0.00  0.00    +0.000 C 
ATOM     24  C   UNL     1       4.447  -4.379   3.758  0.00  0.00    +0.000 C 
ATOM     25  C   UNL     1       4.327  -3.095   4.601  0.00  0.00    +0.000 C 
ATOM     26  C   UNL     1       4.211  -1.847   3.699  0.00  0.00    +0.000 C 
ATOM     27  C   UNL     1       3.159  -1.988   2.595  0.00  0.00    +0.000 C 
BRANCH  25  28
ATOM     28  C   UNL     1       5.527  -2.933   5.561  0.00  0.00    +0.000 C 
BRANCH  28  29
ATOM     29  N   UNL     1       5.649  -3.996   6.542  0.00  0.00    +0.000 N 
ATOM     30  C   UNL     1       4.853  -4.000   7.665  0.00  0.00    +0.000 C 
ATOM     31  O   UNL     1       3.999  -3.181   7.973  0.00  0.00    +0.000 OA
ATOM     32  N   UNL     1       5.008  -5.161   8.426  0.00  0.00    +0.000 N 
ATOM     33  C   UNL     1       6.166  -5.832   8.779  0.00  0.00    +0.000 A 
ATOM     34  C   UNL     1       5.755  -6.883   9.566  0.00  0.00    +0.000 A 
ATOM     35  N   UNL     1       4.392  -6.912   9.671  0.00  0.00    +0.000 NA
ATOM     36  C   UNL     1       3.975  -5.854   9.014  0.00  0.00    +0.000 A 
ATOM     37  H   UNL     1       6.095  -4.858   6.259  0.00  0.00    +0.000 HD
ENDBRANCH  28  29
ENDBRANCH  25  28
ENDBRANCH  21  22
ENDBRANCH   3  21
TORSDOF 8
