REMARK  Name = 
REMARK  10 active torsions:
REMARK  status: ('A' for Active; 'I' for Inactive)
REMARK    1  A    between atoms: N_1  and  C_2
REMARK    2  A    between atoms: C_2  and  C_3
REMARK    3  A    between atoms: C_3  and  N_4
REMARK    4  A    between atoms: N_4  and  C_5
REMARK    5  A    between atoms: C_5  and  C_6
REMARK    6  A    between atoms: C_9  and  C_10
REMARK    7  A    between atoms: C_10  and  N_11
REMARK    8  A    between atoms: N_11  and  C_12
REMARK    9  A    between atoms: C_15  and  N_16
REMARK   10  A    between atoms: C_21  and  C_23
REMARK                            x       y       z     vdW  Elec       q    Type
REMARK                         _______ _______ _______ _____ _____    ______ ____
ROOT
ATOM      1  N   UNL     1       6.418  -0.729   0.550  0.00  0.00    +0.000 N 
ATOM      2  C   UNL     1       6.821  -2.069   0.305  0.00  0.00    +0.000 C 
ATOM      3  O   UNL     1       7.641  -2.618   1.044  0.00  0.00    +0.000 OA
ENDROOT
BRANCH   2   4
ATOM      4  C   UNL     1       6.324  -2.830  -0.864  0.00  0.00    +0.000 A 
ATOM      5  C   UNL     1       6.173  -2.333  -2.149  0.00  0.00    +0.000 A 
ATOM      6  S   UNL     1       5.665  -3.501  -3.290  0.00  0.00    +0.000 S 
ATOM      7  C   UNL     1       5.777  -4.750  -2.144  0.00  0.00    +0.000 A 
ATOM      8  N   UNL     1       5.574  -6.045  -2.498  0.00  0.00    +0.000 NA
ATOM      9  C   UNL     1       5.770  -6.892  -1.539  0.00  0.00    +0.000 A 
ATOM     10  N   UNL     1       6.107  -6.554  -0.256  0.00  0.00    +0.000 N 
ATOM     11  C   UNL     1       6.189  -5.250   0.181  0.00  0.00    +0.000 A 
ATOM     12  O   UNL     1       6.269  -5.000   1.378  0.00  0.00    +0.000 OA
ATOM     13  C   UNL     1       6.104  -4.263  -0.885  0.00  0.00    +0.000 A 
ATOM     14  H   UNL     1       6.184  -7.262   0.457  0.00  0.00    +0.000 HD
ENDBRANCH   2   4
BRANCH   1  15
ATOM     15  C   UNL     1       7.067  -0.072   1.693  0.00  0.00    +0.000 C 
BRANCH  15  16
ATOM     16  C   UNL     1       6.220  -0.062   2.983  0.00  0.00    +0.000 C 
BRANCH  16  17
ATOM     17  N   UNL     1       5.540  -1.324   3.276  0.00  0.00    +0.000 NA
ATOM     18  H   UNL     1       5.180  -1.309   4.228  0.00  0.00    +0.000 HD
ATOM     19  H   UNL     1       6.213  -2.096   3.230  0.00  0.00    +0.000 HD
ENDBRANCH  16  17
ENDBRANCH  15  16
ENDBRANCH   1  15
BRANCH   1  20
ATOM     20  C   UNL     1       5.541   0.049  -0.332  0.00  0.00    +0.000 C 
BRANCH  20  21
ATOM     21  C   UNL     1       4.687   1.208   0.164  0.00  0.00    +0.000 A 
ATOM     22  C   UNL     1       3.385   0.956   0.590  0.00  0.00    +0.000 A 
ATOM     23  C   UNL     1       2.478   2.008   0.728  0.00  0.00    +0.000 A 
ATOM     24  C   UNL     1       2.870   3.335   0.496  0.00  0.00    +0.000 A 
ATOM     25  N   UNL     1       4.143   3.620   0.122  0.00  0.00    +0.000 NA
ATOM     26  C   UNL     1       5.005   2.557  -0.053  0.00  0.00    +0.000 A 
BRANCH  24  27
ATOM     27  C   UNL     1       1.748   4.385   0.648  0.00  0.00    +0.000 C 
BRANCH  27  28
ATOM     28  N   UNL     1       2.005   5.836   0.702  0.00  0.00    +0.000 NA
ATOM     29  H   UNL     1       2.741   5.999   1.389  0.00  0.00    +0.000 HD
BRANCH  28  30
ATOM     30  C   UNL     1       2.376   6.466  -0.565  0.00  0.00    +0.000 C 
ATOM     31  C   UNL     1       1.371   6.271  -1.712  0.00  0.00    +0.000 C 
ATOM     32  C   UNL     1       2.034   6.722  -3.009  0.00  0.00    +0.000 C 
ATOM     33  C   UNL     1       2.450   8.195  -2.965  0.00  0.00    +0.000 C 
ATOM     34  C   UNL     1       3.175   8.592  -1.664  0.00  0.00    +0.000 C 
ATOM     35  C   UNL     1       2.531   7.998  -0.401  0.00  0.00    +0.000 C 
BRANCH  33  36
ATOM     36  N   UNL     1       3.285   8.459  -4.140  0.00  0.00    +0.000 NA
ATOM     37  H   UNL     1       4.272   8.359  -3.900  0.00  0.00    +0.000 HD
ATOM     38  H   UNL     1       3.165   9.420  -4.452  0.00  0.00    +0.000 HD
ENDBRANCH  33  36
ENDBRANCH  28  30
ENDBRANCH  27  28
ENDBRANCH  24  27
ENDBRANCH  20  21
ENDBRANCH   1  20
TORSDOF 10
