REMARK  Name = 
REMARK  10 active torsions:
REMARK  status: ('A' for Active; 'I' for Inactive)
REMARK    1  A    between atoms: C_1  and  O_2
REMARK    2  A    between atoms: O_2  and  C_3
REMARK    3  A    between atoms: C_10  and  C_11
REMARK    4  A    between atoms: N_13  and  C_14
REMARK    5  A    between atoms: C_14  and  C_15
REMARK    6  A    between atoms: C_18  and  C_19
REMARK    7  A    between atoms: C_19  and  N_20
REMARK    8  A    between atoms: N_20  and  C_21
REMARK    9  A    between atoms: N_20  and  C_22
REMARK   10  A    between atoms: C_22  and  C_23
REMARK                            x       y       z     vdW  Elec       q    Type
REMARK                         _______ _______ _______ _____ _____    ______ ____
ROOT
ATOM      1  C   UNL     1       1.910  -3.353  -0.412  0.00  0.00    +0.000 A 
ATOM      2  C   UNL     1       1.544  -4.657  -0.055  0.00  0.00    +0.000 A 
ATOM      3  C   UNL     1       0.536  -4.874   0.887  0.00  0.00    +0.000 A 
ATOM      4  C   UNL     1      -0.120  -3.790   1.488  0.00  0.00    +0.000 A 
ATOM      5  C   UNL     1       0.201  -2.491   1.078  0.00  0.00    +0.000 A 
ATOM      6  C   UNL     1       1.202  -2.274   0.132  0.00  0.00    +0.000 A 
ENDROOT
BRANCH   1   7
ATOM      7  C   UNL     1       3.057  -3.104  -1.350  0.00  0.00    +0.000 C 
BRANCH   7  10
ATOM      8  C   UNL     1       3.549  -2.748  -3.703  0.00  0.00    +0.000 C 
ATOM      9  O   UNL     1       4.740  -2.610  -3.433  0.00  0.00    +0.000 OA
ATOM     10  N   UNL     1       2.631  -3.001  -2.721  0.00  0.00    +0.000 N 
ATOM     11  H   UNL     1       1.650  -3.126  -2.939  0.00  0.00    +0.000 HD
BRANCH   8  19
ATOM     12  C   UNL     1       0.468  -3.162  -5.223  0.00  0.00    +0.000 A 
ATOM     13  N   UNL     1      -0.579  -3.233  -6.072  0.00  0.00    +0.000 NA
ATOM     14  C   UNL     1      -0.370  -2.963  -7.362  0.00  0.00    +0.000 A 
ATOM     15  N   UNL     1       0.779  -2.625  -7.930  0.00  0.00    +0.000 NA
ATOM     16  C   UNL     1       1.798  -2.563  -7.057  0.00  0.00    +0.000 A 
ATOM     17  S   UNL     1       3.343  -2.148  -7.621  0.00  0.00    +0.000 S 
ATOM     18  C   UNL     1       3.996  -2.276  -6.062  0.00  0.00    +0.000 A 
ATOM     19  C   UNL     1       3.068  -2.627  -5.088  0.00  0.00    +0.000 A 
ATOM     20  C   UNL     1       1.749  -2.806  -5.686  0.00  0.00    +0.000 A 
BRANCH  12  22
ATOM     21  C   UNL     1      -1.097  -3.846  -3.616  0.00  0.00    +0.000 C 
ATOM     22  O   UNL     1       0.245  -3.439  -3.887  0.00  0.00    +0.000 OA
ENDBRANCH  12  22
ENDBRANCH   8  19
ENDBRANCH   7  10
ENDBRANCH   1   7
BRANCH   4  23
ATOM     23  C   UNL     1      -1.154  -4.007   2.574  0.00  0.00    +0.000 C 
BRANCH  23  24
ATOM     24  N   UNL     1      -0.657  -4.786   3.730  0.00  0.00    +0.000 NA
ATOM     25  C   UNL     1       0.455  -4.099   4.399  0.00  0.00    +0.000 C 
BRANCH  24  26
ATOM     26  C   UNL     1      -1.734  -5.028   4.710  0.00  0.00    +0.000 C 
BRANCH  26  27
ATOM     27  C   UNL     1      -2.866  -5.846   4.145  0.00  0.00    +0.000 A 
ATOM     28  C   UNL     1      -4.163  -5.336   4.088  0.00  0.00    +0.000 A 
ATOM     29  N   UNL     1      -5.204  -5.972   3.501  0.00  0.00    +0.000 NA
ATOM     30  C   UNL     1      -4.937  -7.179   2.949  0.00  0.00    +0.000 A 
ATOM     31  C   UNL     1      -3.692  -7.781   2.985  0.00  0.00    +0.000 A 
ATOM     32  F   UNL     1      -3.492  -8.975   2.415  0.00  0.00    +0.000 F 
ATOM     33  C   UNL     1      -2.642  -7.114   3.597  0.00  0.00    +0.000 A 
ENDBRANCH  26  27
ENDBRANCH  24  26
ENDBRANCH  23  24
ENDBRANCH   4  23
TORSDOF 8
