REMARK  Name = 
REMARK  9 active torsions:
REMARK  status: ('A' for Active; 'I' for Inactive)
REMARK    1  A    between atoms: N_1  and  C_2
REMARK    2  A    between atoms: C_2  and  C_3
REMARK    3  A    between atoms: C_3  and  N_4
REMARK    4  A    between atoms: C_3  and  C_26
REMARK    5  A    between atoms: N_4  and  C_5
REMARK    6  A    between atoms: C_5  and  C_6
REMARK    7  A    between atoms: C_9  and  C_10
REMARK    8  A    between atoms: C_10  and  N_11
REMARK    9  A    between atoms: C_12  and  C_14
REMARK                            x       y       z     vdW  Elec       q    Type
REMARK                         _______ _______ _______ _____ _____    ______ ____
ROOT
ATOM      1  C   UNL     1       1.435   2.235  -0.460  0.00  0.00    +0.000 A 
ATOM      2  N   UNL     1       1.982   3.146   0.371  0.00  0.00    +0.000 NA
ATOM      3  C   UNL     1       1.184   4.154   0.767  0.00  0.00    +0.000 A 
ATOM      4  C   UNL     1      -0.127   4.297   0.370  0.00  0.00    +0.000 A 
ATOM      5  C   UNL     1      -0.574   3.338  -0.515  0.00  0.00    +0.000 A 
ATOM      6  N   UNL     1       0.176   2.301  -0.941  0.00  0.00    +0.000 NA
ENDROOT
BRANCH   1   7
ATOM      7  C   UNL     1       2.336   1.135  -0.997  0.00  0.00    +0.000 C 
BRANCH   7   8
ATOM      8  N   UNL     1       2.990   0.305   0.037  0.00  0.00    +0.000 NA
ATOM      9  H   UNL     1       2.264  -0.148   0.595  0.00  0.00    +0.000 HD
BRANCH   8  10
ATOM     10  C   UNL     1       3.852  -0.756  -0.546  0.00  0.00    +0.000 C 
BRANCH  10  11
ATOM     11  C   UNL     1       4.431  -1.649   0.558  0.00  0.00    +0.000 A 
ATOM     12  C   UNL     1       5.251  -1.114   1.556  0.00  0.00    +0.000 A 
ATOM     13  C   UNL     1       5.796  -1.965   2.516  0.00  0.00    +0.000 A 
ATOM     14  C   UNL     1       5.507  -3.318   2.467  0.00  0.00    +0.000 A 
ATOM     15  C   UNL     1       4.662  -3.770   1.466  0.00  0.00    +0.000 A 
ATOM     16  N   UNL     1       4.110  -2.970   0.524  0.00  0.00    +0.000 NA
ENDBRANCH  10  11
BRANCH  10  17
ATOM     17  C   UNL     1       4.989  -0.171  -1.450  0.00  0.00    +0.000 C 
BRANCH  17  18
ATOM     18  N   UNL     1       5.817  -1.146  -2.166  0.00  0.00    +0.000 NA
ATOM     19  H   UNL     1       6.466  -0.648  -2.772  0.00  0.00    +0.000 HD
ATOM     20  H   UNL     1       5.226  -1.713  -2.774  0.00  0.00    +0.000 HD
ENDBRANCH  17  18
ENDBRANCH  10  17
ENDBRANCH   8  10
ENDBRANCH   7   8
ENDBRANCH   1   7
BRANCH   4  21
ATOM     21  C   UNL     1      -0.985   5.411   0.861  0.00  0.00    +0.000 C 
BRANCH  21  22
ATOM     22  N   UNL     1      -0.859   6.601   0.060  0.00  0.00    +0.000 N 
ATOM     23  C   UNL     1      -1.633   7.703   0.333  0.00  0.00    +0.000 C 
ATOM     24  O   UNL     1      -2.448   7.696   1.253  0.00  0.00    +0.000 OA
ATOM     25  H   UNL     1      -0.041   6.697  -0.536  0.00  0.00    +0.000 HD
BRANCH  23  26
ATOM     26  C   UNL     1      -1.500   8.857  -0.563  0.00  0.00    +0.000 A 
ATOM     27  C   UNL     1      -2.315   9.968  -0.382  0.00  0.00    +0.000 A 
ATOM     28  S   UNL     1      -2.213  11.101  -1.654  0.00  0.00    +0.000 S 
ATOM     29  C   UNL     1      -1.040  10.169  -2.459  0.00  0.00    +0.000 A 
ATOM     30  N   UNL     1      -0.573  10.527  -3.685  0.00  0.00    +0.000 NA
ATOM     31  C   UNL     1       0.340   9.746  -4.156  0.00  0.00    +0.000 A 
ATOM     32  N   UNL     1       0.860   8.661  -3.495  0.00  0.00    +0.000 N 
ATOM     33  C   UNL     1       0.442   8.281  -2.244  0.00  0.00    +0.000 A 
ATOM     34  O   UNL     1       0.991   7.375  -1.628  0.00  0.00    +0.000 OA
ATOM     35  C   UNL     1      -0.660   9.065  -1.717  0.00  0.00    +0.000 A 
ATOM     36  H   UNL     1       1.625   8.135  -3.889  0.00  0.00    +0.000 HD
ENDBRANCH  23  26
ENDBRANCH  21  22
ENDBRANCH   4  21
TORSDOF 9
