REMARK  Name = 
REMARK  7 active torsions:
REMARK  status: ('A' for Active; 'I' for Inactive)
REMARK    1  A    between atoms: C_2  and  C_20
REMARK    2  A    between atoms: N_3  and  C_4
REMARK    3  A    between atoms: C_4  and  C_5
REMARK    4  A    between atoms: C_9  and  C_10
REMARK    5  A    between atoms: C_10  and  N_11
REMARK    6  A    between atoms: N_11  and  C_12
REMARK    7  A    between atoms: C_12  and  C_13
REMARK                            x       y       z     vdW  Elec       q    Type
REMARK                         _______ _______ _______ _____ _____    ______ ____
ROOT
ATOM      1  C   UNL     1       2.169   1.004   2.209  0.00  0.00    +0.000 C 
ENDROOT
BRANCH   1   2
ATOM      2  C   UNL     1       3.132   1.576   3.225  0.00  0.00    +0.000 A 
ATOM      3  C   UNL     1       3.155   2.949   3.464  0.00  0.00    +0.000 A 
ATOM      4  C   UNL     1       4.018   3.452   4.429  0.00  0.00    +0.000 A 
ATOM      5  C   UNL     1       4.832   2.576   5.134  0.00  0.00    +0.000 A 
ATOM      6  C   UNL     1       4.749   1.212   4.860  0.00  0.00    +0.000 A 
ATOM      7  N   UNL     1       3.919   0.705   3.910  0.00  0.00    +0.000 NA
BRANCH   6   8
ATOM      8  C   UNL     1       5.609   0.231   5.629  0.00  0.00    +0.000 C 
BRANCH   8   9
ATOM      9  N   UNL     1       6.495  -0.585   4.793  0.00  0.00    +0.000 NA
ATOM     10  H   UNL     1       5.901  -1.051   4.103  0.00  0.00    +0.000 HD
BRANCH   9  11
ATOM     11  C   UNL     1       7.473   0.217   4.036  0.00  0.00    +0.000 C 
BRANCH  11  12
ATOM     12  C   UNL     1       8.359  -0.657   3.156  0.00  0.00    +0.000 A 
ATOM     13  C   UNL     1       8.675  -1.965   3.535  0.00  0.00    +0.000 A 
ATOM     14  C   UNL     1       9.438  -2.758   2.685  0.00  0.00    +0.000 A 
ATOM     15  C   UNL     1       9.906  -2.217   1.497  0.00  0.00    +0.000 A 
ATOM     16  C   UNL     1       9.588  -0.901   1.210  0.00  0.00    +0.000 A 
ATOM     17  N   UNL     1       8.821  -0.116   1.998  0.00  0.00    +0.000 NA
ENDBRANCH  11  12
ENDBRANCH   9  11
ENDBRANCH   8   9
ENDBRANCH   6   8
ENDBRANCH   1   2
BRANCH   1  20
ATOM     18  O   UNL     1       1.980   3.041   0.310  0.00  0.00    +0.000 OA
ATOM     19  C   UNL     1       2.585   2.012   0.017  0.00  0.00    +0.000 C 
ATOM     20  N   UNL     1       2.678   0.945   0.862  0.00  0.00    +0.000 N 
ATOM     21  H   UNL     1       3.257   0.142   0.627  0.00  0.00    +0.000 HD
BRANCH  19  22
ATOM     22  C   UNL     1       3.212   1.856  -1.289  0.00  0.00    +0.000 A 
ATOM     23  C   UNL     1       2.704   2.473  -2.423  0.00  0.00    +0.000 A 
ATOM     24  S   UNL     1       3.648   2.175  -3.818  0.00  0.00    +0.000 S 
ATOM     25  C   UNL     1       4.761   1.236  -2.933  0.00  0.00    +0.000 A 
ATOM     26  N   UNL     1       5.850   0.677  -3.525  0.00  0.00    +0.000 NA
ATOM     27  C   UNL     1       6.616   0.021  -2.709  0.00  0.00    +0.000 A 
ATOM     28  N   UNL     1       6.388  -0.130  -1.369  0.00  0.00    +0.000 N 
ATOM     29  C   UNL     1       5.263   0.342  -0.742  0.00  0.00    +0.000 A 
ATOM     30  O   UNL     1       5.018   0.035   0.412  0.00  0.00    +0.000 OA
ATOM     31  C   UNL     1       4.404   1.128  -1.605  0.00  0.00    +0.000 A 
ATOM     32  H   UNL     1       6.992  -0.699  -0.789  0.00  0.00    +0.000 HD
ENDBRANCH  19  22
ENDBRANCH   1  20
TORSDOF 7
