REMARK  Name = 
REMARK  7 active torsions:
REMARK  status: ('A' for Active; 'I' for Inactive)
REMARK    1  A    between atoms: C_2  and  C_4
REMARK    2  A    between atoms: C_7  and  N_8
REMARK    3  A    between atoms: N_8  and  C_9
REMARK    4  A    between atoms: C_9  and  C_10
REMARK    5  A    between atoms: C_10  and  C_11
REMARK    6  A    between atoms: C_15  and  O_16
REMARK    7  A    between atoms: O_16  and  C_17
REMARK                            x       y       z     vdW  Elec       q    Type
REMARK                         _______ _______ _______ _____ _____    ______ ____
ROOT
ATOM      1  C   UNL     1       4.638   5.947  -1.661  0.00  0.00    +0.000 C 
ENDROOT
BRANCH   1   2
ATOM      2  N   UNL     1       5.167   4.605  -1.911  0.00  0.00    +0.000 N 
ATOM      3  H   UNL     1       5.415   4.416  -2.880  0.00  0.00    +0.000 HD
BRANCH   2   7
ATOM      4  C   UNL     1       3.377   1.258  -0.044  0.00  0.00    +0.000 A 
ATOM      5  C   UNL     1       2.877   2.535   0.208  0.00  0.00    +0.000 A 
ATOM      6  C   UNL     1       3.455   3.645  -0.417  0.00  0.00    +0.000 A 
ATOM      7  C   UNL     1       4.520   3.511  -1.319  0.00  0.00    +0.000 A 
ATOM      8  C   UNL     1       5.026   2.222  -1.537  0.00  0.00    +0.000 A 
ATOM      9  C   UNL     1       4.466   1.103  -0.902  0.00  0.00    +0.000 A 
BRANCH   4  11
ATOM     10  N   UNL     1       1.473   0.128   0.972  0.00  0.00    +0.000 N 
ATOM     11  C   UNL     1       2.792   0.063   0.618  0.00  0.00    +0.000 C 
ATOM     12  O   UNL     1       3.450  -0.951   0.815  0.00  0.00    +0.000 OA
ATOM     13  H   UNL     1       1.060  -0.721   1.337  0.00  0.00    +0.000 HD
ATOM     14  H   UNL     1       0.851   0.838   0.613  0.00  0.00    +0.000 HD
ENDBRANCH   4  11
ENDBRANCH   2   7
ENDBRANCH   1   2
BRANCH   1  15
ATOM     15  C   UNL     1       5.443   7.025  -2.388  0.00  0.00    +0.000 C 
BRANCH  15  16
ATOM     16  C   UNL     1       4.915   8.404  -2.059  0.00  0.00    +0.000 A 
ATOM     17  C   UNL     1       5.406   9.109  -0.953  0.00  0.00    +0.000 A 
ATOM     18  C   UNL     1       4.906  10.377  -0.645  0.00  0.00    +0.000 A 
ATOM     19  C   UNL     1       3.901  10.950  -1.429  0.00  0.00    +0.000 A 
ATOM     20  C   UNL     1       3.385  10.245  -2.513  0.00  0.00    +0.000 A 
ATOM     21  C   UNL     1       3.894   8.981  -2.827  0.00  0.00    +0.000 A 
BRANCH  20  22
ATOM     22  O   UNL     1       2.405  10.709  -3.356  0.00  0.00    +0.000 OA
BRANCH  22  23
ATOM     23  C   UNL     1       1.515  11.751  -2.892  0.00  0.00    +0.000 C 
ATOM     24  C   UNL     1       0.491  11.389  -1.797  0.00  0.00    +0.000 C 
ATOM     25  N   UNL     1      -0.598  11.958  -2.609  0.00  0.00    +0.000 NA
ATOM     26  C   UNL     1       0.282  11.996  -3.787  0.00  0.00    +0.000 C 
ATOM     27  H   UNL     1      -0.914  12.876  -2.299  0.00  0.00    +0.000 HD
ENDBRANCH  22  23
ENDBRANCH  20  22
ENDBRANCH  15  16
ENDBRANCH   1  15
TORSDOF 7
