REMARK  Name = 
REMARK  9 active torsions:
REMARK  status: ('A' for Active; 'I' for Inactive)
REMARK    1  A    between atoms: C_1  and  C_2
REMARK    2  A    between atoms: C_5  and  C_6
REMARK    3  A    between atoms: C_8  and  C_9
REMARK    4  A    between atoms: C_9  and  C_10
REMARK    5  A    between atoms: C_9  and  C_11
REMARK    6  A    between atoms: C_9  and  C_12
REMARK    7  A    between atoms: C_12  and  N_13
REMARK    8  A    between atoms: N_13  and  C_14
REMARK    9  A    between atoms: C_17  and  C_18
REMARK                            x       y       z     vdW  Elec       q    Type
REMARK                         _______ _______ _______ _____ _____    ______ ____
ROOT
ATOM      1  C   UNL     1      -6.162   1.336  -2.216  0.00  0.00    +0.000 C 
ATOM      2  C   UNL     1      -7.129   0.331  -2.878  0.00  0.00    +0.000 C 
ATOM      3  C   UNL     1      -6.995   2.483  -1.589  0.00  0.00    +0.000 C 
ENDROOT
BRANCH   1   6
ATOM      4  C   UNL     1      -3.286  -0.037  -0.057  0.00  0.00    +0.000 A 
ATOM      5  C   UNL     1      -3.974   0.608  -1.079  0.00  0.00    +0.000 A 
ATOM      6  C   UNL     1      -5.370   0.650  -1.098  0.00  0.00    +0.000 A 
ATOM      7  C   UNL     1      -5.997   0.042  -0.017  0.00  0.00    +0.000 A 
ATOM      8  N   UNL     1      -5.331  -0.566   0.987  0.00  0.00    +0.000 NA
ATOM      9  N   UNL     1      -3.965  -0.608   0.962  0.00  0.00    +0.000 NA
BRANCH   4  14
ATOM     10  C   UNL     1       2.519  -0.031   0.135  0.00  0.00    +0.000 C 
ATOM     11  C   UNL     1       1.020  -0.073   0.089  0.00  0.00    +0.000 A 
ATOM     12  C   UNL     1       0.267  -0.133   1.267  0.00  0.00    +0.000 A 
ATOM     13  C   UNL     1      -1.131  -0.146   1.210  0.00  0.00    +0.000 A 
ATOM     14  C   UNL     1      -1.814  -0.093  -0.014  0.00  0.00    +0.000 A 
ATOM     15  C   UNL     1      -1.035  -0.060  -1.188  0.00  0.00    +0.000 A 
ATOM     16  C   UNL     1       0.361  -0.042  -1.136  0.00  0.00    +0.000 A 
ENDBRANCH   4  14
ENDBRANCH   1   6
BRANCH   1  17
ATOM     17  C   UNL     1      -5.284   2.001  -3.327  0.00  0.00    +0.000 C 
BRANCH  17  18
ATOM     18  N   UNL     1      -4.432   1.048  -4.062  0.00  0.00    +0.000 N 
ATOM     19  H   UNL     1      -4.936   0.232  -4.399  0.00  0.00    +0.000 HD
BRANCH  18  20
ATOM     20  C   UNL     1      -3.588   1.575  -5.053  0.00  0.00    +0.000 A 
ATOM     21  C   UNL     1      -3.034   2.856  -4.971  0.00  0.00    +0.000 A 
ATOM     22  C   UNL     1      -2.190   3.347  -5.966  0.00  0.00    +0.000 A 
ATOM     23  C   UNL     1      -1.838   2.545  -7.051  0.00  0.00    +0.000 A 
ATOM     24  C   UNL     1      -2.326   1.237  -7.120  0.00  0.00    +0.000 A 
ATOM     25  C   UNL     1      -3.180   0.754  -6.116  0.00  0.00    +0.000 A 
BRANCH  23  26
ATOM     26  C   UNL     1      -0.968   3.145  -8.093  0.00  0.00    +0.000 C 
ATOM     27  N   UNL     1      -0.185   2.306  -8.829  0.00  0.00    +0.000 N 
ATOM     28  O   UNL     1      -0.926   4.357  -8.267  0.00  0.00    +0.000 OA
ATOM     29  H   UNL     1      -0.045   1.333  -8.601  0.00  0.00    +0.000 HD
ATOM     30  H   UNL     1       0.476   2.750  -9.454  0.00  0.00    +0.000 HD
ENDBRANCH  23  26
ENDBRANCH  18  20
ENDBRANCH  17  18
ENDBRANCH   1  17
TORSDOF 6
