REMARK  Name = 
REMARK  6 active torsions:
REMARK  status: ('A' for Active; 'I' for Inactive)
REMARK    1  A    between atoms: C_1  and  C_2
REMARK    2  A    between atoms: C_4  and  C_5
REMARK    3  A    between atoms: N_10  and  C_11
REMARK    4  A    between atoms: C_11  and  C_12
REMARK    5  A    between atoms: C_16  and  C_17
REMARK    6  A    between atoms: C_21  and  C_22
REMARK                            x       y       z     vdW  Elec       q    Type
REMARK                         _______ _______ _______ _____ _____    ______ ____
ROOT
ATOM      1  C   UNL     1       3.003   2.601  -0.127  0.00  0.00    +0.000 C 
ENDROOT
BRANCH   1   8
ATOM      2  C   UNL     1      -2.843   2.949  -1.362  0.00  0.00    +0.000 C 
ATOM      3  C   UNL     1      -1.443   2.545  -1.707  0.00  0.00    +0.000 A 
ATOM      4  C   UNL     1      -1.127   2.046  -2.944  0.00  0.00    +0.000 A 
ATOM      5  C   UNL     1       0.193   1.692  -3.110  0.00  0.00    +0.000 A 
ATOM      6  N   UNL     1       1.150   1.803  -2.154  0.00  0.00    +0.000 NA
ATOM      7  C   UNL     1       0.738   2.288  -0.980  0.00  0.00    +0.000 A 
ATOM      8  N   UNL     1       1.590   2.378   0.096  0.00  0.00    +0.000 N 
ATOM      9  N   UNL     1      -0.520   2.674  -0.732  0.00  0.00    +0.000 NA
ATOM     10  H   UNL     1       1.162   2.981   0.791  0.00  0.00    +0.000 HD
BRANCH   5  11
ATOM     11  C   UNL     1       0.628   1.153  -4.438  0.00  0.00    +0.000 C 
ATOM     12  N   UNL     1       1.951   0.816  -4.536  0.00  0.00    +0.000 N 
ATOM     13  O   UNL     1      -0.142   1.026  -5.377  0.00  0.00    +0.000 OA
ATOM     14  H   UNL     1       2.558   0.902  -3.730  0.00  0.00    +0.000 HD
ATOM     15  H   UNL     1       2.298   0.428  -5.401  0.00  0.00    +0.000 HD
ENDBRANCH   5  11
ENDBRANCH   1   8
BRANCH   1  16
ATOM     16  C   UNL     1       3.367   4.077  -0.165  0.00  0.00    +0.000 A 
ATOM     17  C   UNL     1       3.388   4.761  -1.378  0.00  0.00    +0.000 A 
ATOM     18  C   UNL     1       3.755   6.100  -1.391  0.00  0.00    +0.000 A 
ATOM     19  C   UNL     1       4.065   6.728  -0.195  0.00  0.00    +0.000 A 
ATOM     20  C   UNL     1       3.991   6.006   0.996  0.00  0.00    +0.000 A 
ATOM     21  N   UNL     1       3.662   4.688   1.017  0.00  0.00    +0.000 NA
BRANCH  20  22
ATOM     22  C   UNL     1       4.267   6.648   2.294  0.00  0.00    +0.000 A 
ATOM     23  C   UNL     1       3.965   8.007   2.507  0.00  0.00    +0.000 A 
ATOM     24  C   UNL     1       4.278   8.650   3.704  0.00  0.00    +0.000 A 
ATOM     25  C   UNL     1       4.890   7.936   4.729  0.00  0.00    +0.000 A 
ATOM     26  C   UNL     1       5.173   6.576   4.561  0.00  0.00    +0.000 A 
ATOM     27  C   UNL     1       4.859   5.938   3.353  0.00  0.00    +0.000 A 
BRANCH  26  28
ATOM     28  C   UNL     1       5.795   5.841   5.623  0.00  0.00    +0.000 C 
ATOM     29  N   UNL     1       6.302   5.256   6.488  0.00  0.00    +0.000 NA
ENDBRANCH  26  28
ENDBRANCH  20  22
ENDBRANCH   1  16
TORSDOF 5
