REMARK  Name = 
REMARK  14 active torsions:
REMARK  status: ('A' for Active; 'I' for Inactive)
REMARK    1  A    between atoms: C_1  and  C_2
REMARK    2  A    between atoms: C_2  and  C_3
REMARK    3  A    between atoms: C_2  and  C_4
REMARK    4  A    between atoms: C_2  and  C_5
REMARK    5  A    between atoms: C_5  and  C_6
REMARK    6  A    between atoms: C_6  and  O_7
REMARK    7  A    between atoms: O_7  and  C_8
REMARK    8  A    between atoms: C_8  and  C_9
REMARK    9  A    between atoms: C_9  and  O_10
REMARK   10  A    between atoms: O_10  and  C_11
REMARK   11  A    between atoms: C_14  and  C_15
REMARK   12  A    between atoms: C_15  and  O_16
REMARK   13  A    between atoms: O_16  and  C_17
REMARK   14  A    between atoms: C_24  and  N_25
REMARK                            x       y       z     vdW  Elec       q    Type
REMARK                         _______ _______ _______ _____ _____    ______ ____
ROOT
ATOM      1  C   UNL     1       8.818  -5.525   0.416  0.00  0.00    +0.000 A 
ATOM      2  N   UNL     1       8.010  -6.549   0.053  0.00  0.00    +0.000 NA
ATOM      3  C   UNL     1       8.514  -7.782   0.255  0.00  0.00    +0.000 A 
ATOM      4  C   UNL     1       9.772  -7.997   0.798  0.00  0.00    +0.000 A 
ATOM      5  N   UNL     1      10.593  -6.963   1.132  0.00  0.00    +0.000 NA
ATOM      6  C   UNL     1      10.109  -5.721   0.938  0.00  0.00    +0.000 A 
ENDROOT
BRANCH   6   7
ATOM      7  N   UNL     1      10.977  -4.682   1.277  0.00  0.00    +0.000 N 
ATOM      8  H   UNL     1      11.785  -5.102   1.726  0.00  0.00    +0.000 HD
ATOM      9  H   UNL     1      10.518  -3.983   1.850  0.00  0.00    +0.000 HD
ENDBRANCH   6   7
BRANCH   1  10
ATOM     10  O   UNL     1       8.326  -4.241   0.295  0.00  0.00    +0.000 OA
BRANCH  10  11
ATOM     11  C   UNL     1       6.906  -4.227   0.480  0.00  0.00    +0.000 C 
BRANCH  11  12
ATOM     12  C   UNL     1       6.416  -2.800   0.335  0.00  0.00    +0.000 C 
BRANCH  12  13
ATOM     13  O   UNL     1       5.008  -2.740   0.579  0.00  0.00    +0.000 OA
BRANCH  13  14
ATOM     14  C   UNL     1       4.556  -1.398   0.424  0.00  0.00    +0.000 C 
BRANCH  14  15
ATOM     15  C   UNL     1       3.050  -1.302   0.673  0.00  0.00    +0.000 C 
BRANCH  15  17
ATOM     16  C   UNL     1       2.729   0.650  -0.919  0.00  0.00    +0.000 C 
ATOM     17  C   UNL     1       2.486   0.136   0.511  0.00  0.00    +0.000 C 
ATOM     18  C   UNL     1       3.147   1.101   1.511  0.00  0.00    +0.000 C 
ATOM     19  C   UNL     1       0.968   0.126   0.768  0.00  0.00    +0.000 C 
ENDBRANCH  15  17
ENDBRANCH  14  15
ENDBRANCH  13  14
ENDBRANCH  12  13
ENDBRANCH  11  12
ENDBRANCH  10  11
ENDBRANCH   1  10
BRANCH   4  20
ATOM     20  C   UNL     1      10.239  -9.395   1.095  0.00  0.00    +0.000 C 
BRANCH  20  21
ATOM     21  O   UNL     1      10.894  -9.966  -0.045  0.00  0.00    +0.000 OA
BRANCH  21  22
ATOM     22  C   UNL     1      11.416 -11.205   0.263  0.00  0.00    +0.000 A 
ATOM     23  C   UNL     1      12.093 -11.915  -0.722  0.00  0.00    +0.000 A 
ATOM     24  N   UNL     1      12.637 -13.138  -0.490  0.00  0.00    +0.000 NA
ATOM     25  C   UNL     1      12.488 -13.610   0.772  0.00  0.00    +0.000 A 
ATOM     26  C   UNL     1      11.812 -12.902   1.747  0.00  0.00    +0.000 A 
ATOM     27  N   UNL     1      11.255 -11.695   1.508  0.00  0.00    +0.000 NA
ENDBRANCH  21  22
ENDBRANCH  20  21
ENDBRANCH   4  20
TORSDOF 11
