REMARK  Name = 
REMARK  4 active torsions:
REMARK  status: ('A' for Active; 'I' for Inactive)
REMARK    1  A    between atoms: C_2  and  C_4
REMARK    2  A    between atoms: N_8  and  C_9
REMARK    3  A    between atoms: C_9  and  C_10
REMARK    4  A    between atoms: C_14  and  C_15
REMARK                            x       y       z     vdW  Elec       q    Type
REMARK                         _______ _______ _______ _____ _____    ______ ____
ROOT
ATOM      1  C   UNL     1       3.050  -3.520   0.390  0.00  0.00    +0.000 A 
ATOM      2  C   UNL     1       2.357  -3.603  -0.815  0.00  0.00    +0.000 A 
ATOM      3  C   UNL     1       3.067  -3.545  -2.016  0.00  0.00    +0.000 A 
ATOM      4  C   UNL     1       4.449  -3.389  -1.990  0.00  0.00    +0.000 A 
ATOM      5  N   UNL     1       5.228  -3.236  -3.141  0.00  0.00    +0.000 N 
ATOM      6  N   UNL     1       5.128  -3.298  -0.826  0.00  0.00    +0.000 NA
ATOM      7  C   UNL     1       4.424  -3.356   0.333  0.00  0.00    +0.000 A 
ATOM      8  H   UNL     1       6.191  -3.205  -2.812  0.00  0.00    +0.000 HD
ENDROOT
BRANCH   1  10
ATOM      9  N   UNL     1       1.188  -4.214   1.788  0.00  0.00    +0.000 N 
ATOM     10  C   UNL     1       2.387  -3.561   1.709  0.00  0.00    +0.000 C 
ATOM     11  O   UNL     1       2.903  -3.063   2.700  0.00  0.00    +0.000 OA
ATOM     12  H   UNL     1       0.802  -4.328   2.717  0.00  0.00    +0.000 HD
ATOM     13  H   UNL     1       0.856  -4.838   1.067  0.00  0.00    +0.000 HD
ENDBRANCH   1  10
BRANCH   5  14
ATOM     14  C   UNL     1       4.999  -3.948  -4.409  0.00  0.00    +0.000 C 
ATOM     15  C   UNL     1       5.176  -3.085  -5.655  0.00  0.00    +0.000 C 
ATOM     16  C   UNL     1       3.832  -3.643  -5.329  0.00  0.00    +0.000 C 
BRANCH  14  17
ATOM     17  C   UNL     1       5.577  -5.361  -4.430  0.00  0.00    +0.000 A 
ATOM     18  C   UNL     1       6.892  -5.612  -4.844  0.00  0.00    +0.000 A 
ATOM     19  C   UNL     1       7.384  -6.906  -4.819  0.00  0.00    +0.000 A 
ATOM     20  N   UNL     1       6.669  -7.971  -4.406  0.00  0.00    +0.000 NA
ATOM     21  C   UNL     1       5.394  -7.747  -3.986  0.00  0.00    +0.000 A 
ATOM     22  C   UNL     1       4.829  -6.467  -3.997  0.00  0.00    +0.000 A 
BRANCH  21  23
ATOM     23  C   UNL     1       4.551  -8.913  -3.484  0.00  0.00    +0.000 C 
ATOM     24  F   UNL     1       5.202 -10.109  -3.441  0.00  0.00    +0.000 F 
ATOM     25  F   UNL     1       4.078  -8.704  -2.218  0.00  0.00    +0.000 F 
ATOM     26  F   UNL     1       3.441  -9.120  -4.251  0.00  0.00    +0.000 F 
ENDBRANCH  21  23
ENDBRANCH  14  17
ENDBRANCH   5  14
TORSDOF 4
