REMARK  Name = 
REMARK  1 active torsions:
REMARK  status: ('A' for Active; 'I' for Inactive)
REMARK    1  A    between atoms: C_2  and  C_3
REMARK                            x       y       z     vdW  Elec       q    Type
REMARK                         _______ _______ _______ _____ _____    ______ ____
ROOT
ATOM      1  C   UNL     1      -0.413  -0.234   0.004  0.00  0.00    +0.000 A 
ATOM      2  C   UNL     1       0.272  -1.432   0.006  0.00  0.00    +0.000 A 
ATOM      3  C   UNL     1       1.687  -1.246  -0.005  0.00  0.00    +0.000 A 
ATOM      4  C   UNL     1       2.031   0.087  -0.014  0.00  0.00    +0.000 A 
ATOM      5  S   UNL     1       0.654   1.104  -0.007  0.00  0.00    +0.000 S 
ENDROOT
BRANCH   1   7
ATOM      6  N   UNL     1      -2.992  -0.014   0.012  0.00  0.00    +0.000 NA
ATOM      7  C   UNL     1      -1.835  -0.101   0.009  0.00  0.00    +0.000 C 
ENDBRANCH   1   7
TORSDOF 1
