REMARK  Name = 
REMARK  7 active torsions:
REMARK  status: ('A' for Active; 'I' for Inactive)
REMARK    1  A    between atoms: N_1  and  C_2
REMARK    2  A    between atoms: C_2  and  N_3
REMARK    3  A    between atoms: C_2  and  C_16
REMARK    4  A    between atoms: C_4  and  C_6
REMARK    5  A    between atoms: C_19  and  C_20
REMARK    6  A    between atoms: C_20  and  N_21
REMARK    7  A    between atoms: C_22  and  C_24
REMARK                            x       y       z     vdW  Elec       q    Type
REMARK                         _______ _______ _______ _____ _____    ______ ____
ROOT
ATOM      1  C   UNL     1       2.541  -0.103  -0.116  0.00  0.00    +0.000 C 
ENDROOT
BRANCH   1   2
ATOM      2  C   UNL     1       3.033   1.105  -0.889  0.00  0.00    +0.000 A 
ATOM      3  C   UNL     1       2.438   2.343  -0.611  0.00  0.00    +0.000 A 
ATOM      4  C   UNL     1       2.779   3.504  -1.319  0.00  0.00    +0.000 A 
ATOM      5  C   UNL     1       3.719   3.454  -2.357  0.00  0.00    +0.000 A 
ATOM      6  C   UNL     1       4.344   2.228  -2.613  0.00  0.00    +0.000 A 
ATOM      7  C   UNL     1       4.007   1.067  -1.899  0.00  0.00    +0.000 A 
BRANCH   5   8
ATOM      8  C   UNL     1       4.038   4.653  -3.220  0.00  0.00    +0.000 C 
BRANCH   8   9
ATOM      9  N   UNL     1       5.148   5.450  -2.738  0.00  0.00    +0.000 N 
ATOM     10  C   UNL     1       5.554   6.581  -3.422  0.00  0.00    +0.000 C 
ATOM     11  O   UNL     1       5.057   6.947  -4.474  0.00  0.00    +0.000 OA
ATOM     12  H   UNL     1       5.558   5.233  -1.845  0.00  0.00    +0.000 HD
BRANCH  10  13
ATOM     13  C   UNL     1       6.715   7.304  -2.732  0.00  0.00    +0.000 C 
ATOM     14  C   UNL     1       6.303   7.779  -1.332  0.00  0.00    +0.000 C 
ATOM     15  C   UNL     1       7.372   8.660  -0.711  0.00  0.00    +0.000 C 
ATOM     16  O   UNL     1       7.700   9.746  -1.573  0.00  0.00    +0.000 OA
ATOM     17  C   UNL     1       8.228   9.307  -2.823  0.00  0.00    +0.000 C 
ATOM     18  C   UNL     1       7.193   8.488  -3.577  0.00  0.00    +0.000 C 
ENDBRANCH  10  13
ENDBRANCH   8   9
ENDBRANCH   5   8
ENDBRANCH   1   2
BRANCH   1  19
ATOM     19  N   UNL     1       3.481  -1.157   0.037  0.00  0.00    +0.000 N 
ATOM     20  C   UNL     1       4.338  -1.209   1.106  0.00  0.00    +0.000 C 
ATOM     21  O   UNL     1       4.375  -0.348   1.978  0.00  0.00    +0.000 OA
ATOM     22  H   UNL     1       3.780  -1.631  -0.810  0.00  0.00    +0.000 HD
BRANCH  20  23
ATOM     23  C   UNL     1       5.171  -2.412   1.198  0.00  0.00    +0.000 A 
ATOM     24  C   UNL     1       5.591  -2.873   2.436  0.00  0.00    +0.000 A 
ATOM     25  S   UNL     1       6.541  -4.290   2.344  0.00  0.00    +0.000 S 
ATOM     26  C   UNL     1       6.450  -4.306   0.644  0.00  0.00    +0.000 A 
ATOM     27  N   UNL     1       7.092  -5.251  -0.088  0.00  0.00    +0.000 NA
ATOM     28  C   UNL     1       6.971  -5.109  -1.369  0.00  0.00    +0.000 A 
ATOM     29  N   UNL     1       6.251  -4.113  -1.979  0.00  0.00    +0.000 N 
ATOM     30  C   UNL     1       5.526  -3.179  -1.284  0.00  0.00    +0.000 A 
ATOM     31  O   UNL     1       4.814  -2.358  -1.846  0.00  0.00    +0.000 OA
ATOM     32  C   UNL     1       5.678  -3.266   0.158  0.00  0.00    +0.000 A 
ATOM     33  H   UNL     1       6.178  -4.076  -2.987  0.00  0.00    +0.000 HD
ENDBRANCH  20  23
ENDBRANCH   1  19
BRANCH   1  34
ATOM     34  N   UNL     1       1.415  -0.718  -0.784  0.00  0.00    +0.000 NA
ATOM     35  H   UNL     1       1.085  -1.485  -0.208  0.00  0.00    +0.000 HD
ATOM     36  H   UNL     1       1.748  -1.130  -1.653  0.00  0.00    +0.000 HD
ENDBRANCH   1  34
TORSDOF 7
