REMARK  Name = 
REMARK  6 active torsions:
REMARK  status: ('A' for Active; 'I' for Inactive)
REMARK    1  A    between atoms: C_2  and  C_19
REMARK    2  A    between atoms: N_3  and  C_4
REMARK    3  A    between atoms: C_4  and  C_5
REMARK    4  A    between atoms: C_8  and  O_9
REMARK    5  A    between atoms: O_9  and  C_10
REMARK    6  A    between atoms: C_10  and  C_11
REMARK                            x       y       z     vdW  Elec       q    Type
REMARK                         _______ _______ _______ _____ _____    ______ ____
ROOT
ATOM      1  C   UNL     1       2.303  -1.856   1.676  0.00  0.00    +0.000 C 
ENDROOT
BRANCH   1   2
ATOM      2  C   UNL     1       3.247  -2.663   2.520  0.00  0.00    +0.000 A 
ATOM      3  C   UNL     1       4.234  -2.071   3.314  0.00  0.00    +0.000 A 
ATOM      4  C   UNL     1       5.021  -2.865   4.163  0.00  0.00    +0.000 A 
ATOM      5  C   UNL     1       4.779  -4.239   4.201  0.00  0.00    +0.000 A 
ATOM      6  N   UNL     1       3.866  -4.829   3.412  0.00  0.00    +0.000 NA
ATOM      7  C   UNL     1       3.133  -4.043   2.598  0.00  0.00    +0.000 A 
BRANCH   5   8
ATOM      8  O   UNL     1       5.503  -5.047   5.056  0.00  0.00    +0.000 OA
BRANCH   8   9
ATOM      9  C   UNL     1       4.783  -6.255   5.435  0.00  0.00    +0.000 C 
BRANCH   9  10
ATOM     10  C   UNL     1       5.660  -7.129   6.362  0.00  0.00    +0.000 C 
ATOM     11  C   UNL     1       6.950  -7.613   5.678  0.00  0.00    +0.000 C 
ATOM     12  C   UNL     1       6.729  -8.820   4.762  0.00  0.00    +0.000 C 
ATOM     13  C   UNL     1       5.918  -9.916   5.449  0.00  0.00    +0.000 C 
ATOM     14  N   UNL     1       4.658  -9.402   5.989  0.00  0.00    +0.000 NA
ATOM     15  C   UNL     1       4.899  -8.330   6.956  0.00  0.00    +0.000 C 
ATOM     16  H   UNL     1       4.161 -10.166   6.450  0.00  0.00    +0.000 HD
ENDBRANCH   9  10
ENDBRANCH   8   9
ENDBRANCH   5   8
ENDBRANCH   1   2
BRANCH   1  19
ATOM     17  O   UNL     1       3.780   0.380   0.987  0.00  0.00    +0.000 OA
ATOM     18  C   UNL     1       3.532  -0.449   0.113  0.00  0.00    +0.000 C 
ATOM     19  N   UNL     1       2.788  -1.572   0.357  0.00  0.00    +0.000 N 
ATOM     20  H   UNL     1       2.766  -2.328  -0.327  0.00  0.00    +0.000 HD
BRANCH  18  21
ATOM     21  C   UNL     1       4.009  -0.271  -1.249  0.00  0.00    +0.000 A 
ATOM     22  C   UNL     1       4.215   0.982  -1.810  0.00  0.00    +0.000 A 
ATOM     23  S   UNL     1       4.876   0.899  -3.387  0.00  0.00    +0.000 S 
ATOM     24  C   UNL     1       4.900  -0.807  -3.346  0.00  0.00    +0.000 A 
ATOM     25  N   UNL     1       5.384  -1.538  -4.387  0.00  0.00    +0.000 NA
ATOM     26  C   UNL     1       5.355  -2.816  -4.190  0.00  0.00    +0.000 A 
ATOM     27  N   UNL     1       4.887  -3.443  -3.067  0.00  0.00    +0.000 N 
ATOM     28  C   UNL     1       4.311  -2.745  -2.022  0.00  0.00    +0.000 A 
ATOM     29  O   UNL     1       3.740  -3.346  -1.118  0.00  0.00    +0.000 OA
ATOM     30  C   UNL     1       4.379  -1.304  -2.170  0.00  0.00    +0.000 A 
ATOM     31  H   UNL     1       4.838  -4.436  -2.996  0.00  0.00    +0.000 HD
ENDBRANCH  18  21
ENDBRANCH   1  19
TORSDOF 6
