REMARK  Name = 
REMARK  7 active torsions:
REMARK  status: ('A' for Active; 'I' for Inactive)
REMARK    1  A    between atoms: C_2  and  C_4
REMARK    2  A    between atoms: C_8  and  C_9
REMARK    3  A    between atoms: C_9  and  O_10
REMARK    4  A    between atoms: O_10  and  C_11
REMARK    5  A    between atoms: C_14  and  C_15
REMARK    6  A    between atoms: C_15  and  N_16
REMARK    7  A    between atoms: C_17  and  C_19
REMARK                            x       y       z     vdW  Elec       q    Type
REMARK                         _______ _______ _______ _____ _____    ______ ____
ROOT
ATOM      1  C   UNL     1       8.193   2.372  -4.073  0.00  0.00    +0.000 A 
ATOM      2  C   UNL     1       8.458   1.310  -4.931  0.00  0.00    +0.000 A 
ATOM      3  C   UNL     1       9.661   1.273  -5.633  0.00  0.00    +0.000 A 
ATOM      4  C   UNL     1      10.559   2.327  -5.480  0.00  0.00    +0.000 A 
ATOM      5  N   UNL     1      10.309   3.386  -4.668  0.00  0.00    +0.000 NA
ATOM      6  C   UNL     1       9.137   3.387  -3.995  0.00  0.00    +0.000 A 
ENDROOT
BRANCH   1   7
ATOM      7  O   UNL     1       7.016   2.319  -3.386  0.00  0.00    +0.000 OA
BRANCH   7   8
ATOM      8  C   UNL     1       6.986   3.075  -2.173  0.00  0.00    +0.000 C 
BRANCH   8  13
ATOM      9  C   UNL     1       3.811   2.887  -0.061  0.00  0.00    +0.000 A 
ATOM     10  C   UNL     1       3.776   1.524   0.252  0.00  0.00    +0.000 A 
ATOM     11  C   UNL     1       4.792   0.678  -0.192  0.00  0.00    +0.000 A 
ATOM     12  C   UNL     1       5.833   1.188  -0.964  0.00  0.00    +0.000 A 
ATOM     13  C   UNL     1       5.865   2.546  -1.315  0.00  0.00    +0.000 A 
ATOM     14  C   UNL     1       4.852   3.394  -0.850  0.00  0.00    +0.000 A 
BRANCH   9  16
ATOM     15  N   UNL     1       2.053   3.480   1.521  0.00  0.00    +0.000 N 
ATOM     16  C   UNL     1       2.748   3.823   0.395  0.00  0.00    +0.000 C 
ATOM     17  O   UNL     1       2.523   4.875  -0.186  0.00  0.00    +0.000 OA
ATOM     18  H   UNL     1       1.399   4.167   1.870  0.00  0.00    +0.000 HD
ATOM     19  H   UNL     1       2.371   2.766   2.159  0.00  0.00    +0.000 HD
ENDBRANCH   9  16
ENDBRANCH   8  13
ENDBRANCH   7   8
ENDBRANCH   1   7
BRANCH   4  20
ATOM     20  C   UNL     1      11.883   2.322  -6.199  0.00  0.00    +0.000 C 
BRANCH  20  21
ATOM     21  N   UNL     1      12.933   1.729  -5.401  0.00  0.00    +0.000 N 
ATOM     22  C   UNL     1      13.367   0.447  -5.593  0.00  0.00    +0.000 C 
ATOM     23  O   UNL     1      12.868  -0.290  -6.440  0.00  0.00    +0.000 OA
ATOM     24  H   UNL     1      13.185   2.233  -4.555  0.00  0.00    +0.000 HD
BRANCH  22  25
ATOM     25  C   UNL     1      14.520   0.019  -4.790  0.00  0.00    +0.000 A 
ATOM     26  C   UNL     1      15.312  -1.031  -5.238  0.00  0.00    +0.000 A 
ATOM     27  S   UNL     1      16.644  -1.363  -4.228  0.00  0.00    +0.000 S 
ATOM     28  C   UNL     1      16.185  -0.148  -3.130  0.00  0.00    +0.000 A 
ATOM     29  N   UNL     1      16.909   0.082  -2.003  0.00  0.00    +0.000 NA
ATOM     30  C   UNL     1      16.432   1.013  -1.243  0.00  0.00    +0.000 A 
ATOM     31  N   UNL     1      15.300   1.734  -1.513  0.00  0.00    +0.000 N 
ATOM     32  C   UNL     1      14.563   1.567  -2.661  0.00  0.00    +0.000 A 
ATOM     33  O   UNL     1      13.597   2.282  -2.907  0.00  0.00    +0.000 OA
ATOM     34  C   UNL     1      15.042   0.517  -3.539  0.00  0.00    +0.000 A 
ATOM     35  H   UNL     1      14.984   2.458  -0.884  0.00  0.00    +0.000 HD
ENDBRANCH  22  25
ENDBRANCH  20  21
ENDBRANCH   4  20
TORSDOF 7
