REMARK  Name = 
REMARK  15 active torsions:
REMARK  status: ('A' for Active; 'I' for Inactive)
REMARK    1  A    between atoms: N_1  and  C_2
REMARK    2  A    between atoms: C_2  and  C_3
REMARK    3  A    between atoms: C_3  and  C_4
REMARK    4  A    between atoms: C_4  and  C_5
REMARK    5  A    between atoms: C_5  and  C_6
REMARK    6  A    between atoms: C_6  and  C_7
REMARK    7  A    between atoms: C_7  and  C_8
REMARK    8  A    between atoms: C_8  and  C_9
REMARK    9  A    between atoms: C_9  and  N_10
REMARK   10  A    between atoms: N_10  and  C_11
REMARK   11  A    between atoms: C_11  and  C_12
REMARK   12  A    between atoms: C_15  and  C_16
REMARK   13  A    between atoms: C_16  and  O_17
REMARK   14  A    between atoms: O_17  and  C_18
REMARK   15  A    between atoms: C_21  and  C_22
REMARK                            x       y       z     vdW  Elec       q    Type
REMARK                         _______ _______ _______ _____ _____    ______ ____
ROOT
ATOM      1  C   UNL     1      12.518   5.469  -4.409  0.00  0.00    +0.000 A 
ATOM      2  C   UNL     1      13.227   4.343  -4.817  0.00  0.00    +0.000 A 
ATOM      3  C   UNL     1      14.625   4.340  -4.803  0.00  0.00    +0.000 A 
ATOM      4  C   UNL     1      15.323   5.467  -4.356  0.00  0.00    +0.000 A 
ATOM      5  C   UNL     1      14.616   6.595  -3.953  0.00  0.00    +0.000 A 
ATOM      6  C   UNL     1      13.216   6.602  -3.966  0.00  0.00    +0.000 A 
ENDROOT
BRANCH   1   7
ATOM      7  C   UNL     1      11.008   5.446  -4.427  0.00  0.00    +0.000 C 
BRANCH   7   8
ATOM      8  N   UNL     1      10.435   4.376  -3.616  0.00  0.00    +0.000 NA
ATOM      9  H   UNL     1       9.427   4.375  -3.701  0.00  0.00    +0.000 HD
BRANCH   8  10
ATOM     10  C   UNL     1      10.808   4.516  -2.207  0.00  0.00    +0.000 C 
BRANCH  10  11
ATOM     11  C   UNL     1      10.191   3.362  -1.430  0.00  0.00    +0.000 C 
BRANCH  11  12
ATOM     12  C   UNL     1      10.707   2.028  -1.957  0.00  0.00    +0.000 C 
BRANCH  12  13
ATOM     13  C   UNL     1      10.092   0.871  -1.190  0.00  0.00    +0.000 C 
BRANCH  13  14
ATOM     14  C   UNL     1      10.617  -0.452  -1.731  0.00  0.00    +0.000 C 
BRANCH  14  15
ATOM     15  C   UNL     1      10.012  -1.624  -0.971  0.00  0.00    +0.000 C 
BRANCH  15  16
ATOM     16  C   UNL     1      10.544  -2.946  -1.516  0.00  0.00    +0.000 C 
BRANCH  16  17
ATOM     17  C   UNL     1       9.941  -4.123  -0.759  0.00  0.00    +0.000 C 
BRANCH  17  18
ATOM     18  N   UNL     1      10.459  -5.375  -1.294  0.00  0.00    +0.000 NA
ATOM     19  H   UNL     1      10.090  -6.153  -0.749  0.00  0.00    +0.000 HD
ATOM     20  H   UNL     1      11.471  -5.402  -1.183  0.00  0.00    +0.000 HD
ENDBRANCH  17  18
ENDBRANCH  16  17
ENDBRANCH  15  16
ENDBRANCH  14  15
ENDBRANCH  13  14
ENDBRANCH  12  13
ENDBRANCH  11  12
ENDBRANCH  10  11
ENDBRANCH   8  10
ENDBRANCH   7   8
ENDBRANCH   1   7
BRANCH   4  21
ATOM     21  C   UNL     1      16.831   5.476  -4.298  0.00  0.00    +0.000 C 
BRANCH  21  22
ATOM     22  O   UNL     1      17.355   5.929  -5.543  0.00  0.00    +0.000 OA
BRANCH  22  23
ATOM     23  C   UNL     1      18.721   5.984  -5.642  0.00  0.00    +0.000 A 
ATOM     24  C   UNL     1      19.630   5.665  -4.638  0.00  0.00    +0.000 A 
ATOM     25  C   UNL     1      21.006   5.743  -4.886  0.00  0.00    +0.000 A 
ATOM     26  C   UNL     1      21.483   6.127  -6.147  0.00  0.00    +0.000 A 
ATOM     27  C   UNL     1      20.569   6.430  -7.161  0.00  0.00    +0.000 A 
ATOM     28  C   UNL     1      19.196   6.370  -6.898  0.00  0.00    +0.000 A 
BRANCH  26  29
ATOM     29  C   UNL     1      22.957   6.216  -6.340  0.00  0.00    +0.000 C 
ATOM     30  N   UNL     1      23.459   5.984  -7.588  0.00  0.00    +0.000 N 
ATOM     31  O   UNL     1      23.704   6.476  -5.406  0.00  0.00    +0.000 OA
ATOM     32  H   UNL     1      22.906   5.775  -8.406  0.00  0.00    +0.000 HD
ATOM     33  H   UNL     1      24.463   6.068  -7.694  0.00  0.00    +0.000 HD
ENDBRANCH  26  29
ENDBRANCH  22  23
ENDBRANCH  21  22
ENDBRANCH   4  21
TORSDOF 15
