REMARK  Name = 
REMARK  5 active torsions:
REMARK  status: ('A' for Active; 'I' for Inactive)
REMARK    1  A    between atoms: C_2  and  C_4
REMARK    2  A    between atoms: C_7  and  N_8
REMARK    3  A    between atoms: N_8  and  C_9
REMARK    4  A    between atoms: C_9  and  C_10
REMARK    5  A    between atoms: C_14  and  N_15
REMARK                            x       y       z     vdW  Elec       q    Type
REMARK                         _______ _______ _______ _____ _____    ______ ____
ROOT
ATOM      1  N   UNL     1       3.645  -4.459  -4.984  0.00  0.00    +0.000 N 
ATOM      2  H   UNL     1       3.896  -4.236  -5.944  0.00  0.00    +0.000 HD
ENDROOT
BRANCH   1   6
ATOM      3  C   UNL     1      -0.094  -2.986  -3.909  0.00  0.00    +0.000 A 
ATOM      4  C   UNL     1       0.735  -3.441  -2.898  0.00  0.00    +0.000 A 
ATOM      5  C   UNL     1       2.005  -3.912  -3.241  0.00  0.00    +0.000 A 
ATOM      6  C   UNL     1       2.436  -3.905  -4.568  0.00  0.00    +0.000 A 
ATOM      7  C   UNL     1       1.497  -3.452  -5.507  0.00  0.00    +0.000 A 
ATOM      8  N   UNL     1       0.252  -2.981  -5.223  0.00  0.00    +0.000 NA
BRANCH   3  10
ATOM      9  N   UNL     1      -2.248  -2.132  -4.628  0.00  0.00    +0.000 N 
ATOM     10  C   UNL     1      -1.468  -2.496  -3.565  0.00  0.00    +0.000 C 
ATOM     11  O   UNL     1      -1.880  -2.434  -2.413  0.00  0.00    +0.000 OA
ATOM     12  H   UNL     1      -3.199  -1.841  -4.465  0.00  0.00    +0.000 HD
ATOM     13  H   UNL     1      -1.897  -2.255  -5.572  0.00  0.00    +0.000 HD
ENDBRANCH   3  10
ENDBRANCH   1   6
BRANCH   1  14
ATOM     14  C   UNL     1       4.814  -4.453  -4.111  0.00  0.00    +0.000 C 
BRANCH  14  15
ATOM     15  C   UNL     1       5.708  -5.616  -4.461  0.00  0.00    +0.000 A 
ATOM     16  C   UNL     1       7.020  -5.418  -4.893  0.00  0.00    +0.000 A 
ATOM     17  C   UNL     1       7.834  -6.515  -5.146  0.00  0.00    +0.000 A 
ATOM     18  C   UNL     1       7.343  -7.812  -4.961  0.00  0.00    +0.000 A 
ATOM     19  C   UNL     1       6.034  -8.061  -4.524  0.00  0.00    +0.000 A 
ATOM     20  C   UNL     1       5.232  -6.934  -4.293  0.00  0.00    +0.000 A 
BRANCH  19  21
ATOM     21  N   UNL     1       5.563  -9.345  -4.361  0.00  0.00    +0.000 N 
ATOM     22  C   UNL     1       6.413 -10.451  -3.893  0.00  0.00    +0.000 C 
ATOM     23  C   UNL     1       6.173 -11.683  -4.779  0.00  0.00    +0.000 C 
ATOM     24  O   UNL     1       4.781 -12.046  -4.819  0.00  0.00    +0.000 OA
ATOM     25  C   UNL     1       3.992 -10.950  -5.318  0.00  0.00    +0.000 C 
ATOM     26  C   UNL     1       4.137  -9.697  -4.436  0.00  0.00    +0.000 C 
ENDBRANCH  19  21
ENDBRANCH  14  15
ENDBRANCH   1  14
TORSDOF 5
