REMARK  Name = 
REMARK  4 active torsions:
REMARK  status: ('A' for Active; 'I' for Inactive)
REMARK    1  A    between atoms: C_2  and  C_4
REMARK    2  A    between atoms: N_8  and  C_9
REMARK    3  A    between atoms: C_9  and  C_10
REMARK    4  A    between atoms: C_10  and  N_11
REMARK                            x       y       z     vdW  Elec       q    Type
REMARK                         _______ _______ _______ _____ _____    ______ ____
ROOT
ATOM      1  C   UNL     1       4.449  -1.179  -0.677  0.00  0.00    +0.000 A 
ATOM      2  C   UNL     1       5.501  -1.024   0.220  0.00  0.00    +0.000 A 
ATOM      3  C   UNL     1       5.947  -2.135   0.938  0.00  0.00    +0.000 A 
ATOM      4  C   UNL     1       5.359  -3.381   0.723  0.00  0.00    +0.000 A 
ATOM      5  N   UNL     1       5.958  -4.492   1.315  0.00  0.00    +0.000 N 
ATOM      6  N   UNL     1       4.307  -3.529  -0.110  0.00  0.00    +0.000 NA
ATOM      7  C   UNL     1       3.861  -2.430  -0.773  0.00  0.00    +0.000 A 
ATOM      8  H   UNL     1       6.006  -4.415   2.328  0.00  0.00    +0.000 HD
ENDROOT
BRANCH   1  10
ATOM      9  N   UNL     1       4.857   0.880  -1.892  0.00  0.00    +0.000 N 
ATOM     10  C   UNL     1       3.956  -0.090  -1.534  0.00  0.00    +0.000 C 
ATOM     11  O   UNL     1       2.807  -0.070  -1.956  0.00  0.00    +0.000 OA
ATOM     12  H   UNL     1       4.542   1.548  -2.588  0.00  0.00    +0.000 HD
ATOM     13  H   UNL     1       5.854   0.752  -1.791  0.00  0.00    +0.000 HD
ENDBRANCH   1  10
BRANCH   5  14
ATOM     14  C   UNL     1       5.451  -5.793   0.891  0.00  0.00    +0.000 C 
BRANCH  14  15
ATOM     15  C   UNL     1       6.308  -6.911   1.530  0.00  0.00    +0.000 C 
BRANCH  15  16
ATOM     16  N   UNL     1       6.309  -6.887   3.009  0.00  0.00    +0.000 NA
ATOM     17  C   UNL     1       5.026  -7.312   3.578  0.00  0.00    +0.000 C 
ATOM     18  C   UNL     1       5.116  -8.823   3.695  0.00  0.00    +0.000 C 
ATOM     19  O   UNL     1       6.508  -9.150   3.665  0.00  0.00    +0.000 OA
ATOM     20  C   UNL     1       7.213  -7.918   3.524  0.00  0.00    +0.000 C 
ENDBRANCH  15  16
ENDBRANCH  14  15
ENDBRANCH   5  14
TORSDOF 4
