REMARK  Name = 
REMARK  8 active torsions:
REMARK  status: ('A' for Active; 'I' for Inactive)
REMARK    1  A    between atoms: N_1  and  C_2
REMARK    2  A    between atoms: C_2  and  C_3
REMARK    3  A    between atoms: C_3  and  O_4
REMARK    4  A    between atoms: O_4  and  C_5
REMARK    5  A    between atoms: N_12  and  C_13
REMARK    6  A    between atoms: C_13  and  C_14
REMARK    7  A    between atoms: C_19  and  C_20
REMARK    8  A    between atoms: C_20  and  O_21
REMARK                            x       y       z     vdW  Elec       q    Type
REMARK                         _______ _______ _______ _____ _____    ______ ____
ROOT
ATOM      1  C   UNL     1       4.883   2.471  -1.223  0.00  0.00    +0.000 A 
ATOM      2  N   UNL     1       4.546   3.743  -0.894  0.00  0.00    +0.000 NA
ATOM      3  C   UNL     1       5.322   4.771  -1.281  0.00  0.00    +0.000 A 
ATOM      4  C   UNL     1       6.482   4.635  -2.012  0.00  0.00    +0.000 A 
ATOM      5  C   UNL     1       6.869   3.330  -2.344  0.00  0.00    +0.000 A 
ATOM      6  C   UNL     1       7.978   2.810  -3.063  0.00  0.00    +0.000 A 
ATOM      7  C   UNL     1       7.864   1.442  -3.071  0.00  0.00    +0.000 A 
ATOM      8  N   UNL     1       6.721   1.101  -2.379  0.00  0.00    +0.000 N 
ATOM      9  C   UNL     1       6.070   2.248  -1.940  0.00  0.00    +0.000 A 
ENDROOT
BRANCH   1  10
ATOM     10  O   UNL     1       4.085   1.438  -0.752  0.00  0.00    +0.000 OA
BRANCH  10  11
ATOM     11  C   UNL     1       2.755   1.906  -0.462  0.00  0.00    +0.000 C 
BRANCH  11  12
ATOM     12  C   UNL     1       1.921   0.822   0.234  0.00  0.00    +0.000 C 
BRANCH  12  13
ATOM     13  N   UNL     1       1.737  -0.381  -0.577  0.00  0.00    +0.000 NA
ATOM     14  H   UNL     1       1.195  -1.062  -0.047  0.00  0.00    +0.000 HD
ATOM     15  H   UNL     1       2.650  -0.804  -0.742  0.00  0.00    +0.000 HD
ENDBRANCH  12  13
ENDBRANCH  11  12
ENDBRANCH  10  11
ENDBRANCH   1  10
BRANCH   8  16
ATOM     16  C   UNL     1       6.242  -0.277  -2.282  0.00  0.00    +0.000 C 
BRANCH  16  17
ATOM     17  C   UNL     1       7.012  -1.209  -1.365  0.00  0.00    +0.000 A 
ATOM     18  N   UNL     1       7.149  -2.464  -1.895  0.00  0.00    +0.000 NA
ATOM     19  C   UNL     1       7.725  -3.432  -1.146  0.00  0.00    +0.000 A 
ATOM     20  C   UNL     1       8.172  -3.233   0.139  0.00  0.00    +0.000 A 
ATOM     21  C   UNL     1       8.038  -1.962   0.677  0.00  0.00    +0.000 A 
ATOM     22  C   UNL     1       7.449  -0.916  -0.060  0.00  0.00    +0.000 A 
BRANCH  22  23
ATOM     23  C   UNL     1       7.318   0.451   0.563  0.00  0.00    +0.000 C 
BRANCH  23  24
ATOM     24  O   UNL     1       7.798   0.495   1.909  0.00  0.00    +0.000 OA
ATOM     25  H   UNL     1       7.094   0.115   2.461  0.00  0.00    +0.000 HD
ENDBRANCH  23  24
ENDBRANCH  22  23
ENDBRANCH  16  17
ENDBRANCH   8  16
TORSDOF 8
