REMARK  Name = 
REMARK  5 active torsions:
REMARK  status: ('A' for Active; 'I' for Inactive)
REMARK    1  A    between atoms: C_2  and  C_4
REMARK    2  A    between atoms: C_7  and  N_8
REMARK    3  A    between atoms: N_8  and  C_9
REMARK    4  A    between atoms: C_9  and  C_10
REMARK    5  A    between atoms: C_14  and  C_15
REMARK                            x       y       z     vdW  Elec       q    Type
REMARK                         _______ _______ _______ _____ _____    ______ ____
ROOT
ATOM      1  C   UNL     1       5.033   1.471  -5.806  0.00  0.00    +0.000 C 
ATOM      2  C   UNL     1       4.915   2.989  -5.868  0.00  0.00    +0.000 C 
ATOM      3  C   UNL     1       3.700   2.144  -6.061  0.00  0.00    +0.000 C 
ENDROOT
BRANCH   1   4
ATOM      4  C   UNL     1       5.721   0.741  -6.957  0.00  0.00    +0.000 A 
ATOM      5  C   UNL     1       6.941   1.182  -7.490  0.00  0.00    +0.000 A 
ATOM      6  C   UNL     1       7.604   0.454  -8.478  0.00  0.00    +0.000 A 
ATOM      7  C   UNL     1       7.074  -0.754  -8.931  0.00  0.00    +0.000 A 
ATOM      8  C   UNL     1       5.871  -1.258  -8.417  0.00  0.00    +0.000 A 
ATOM      9  C   UNL     1       5.200  -0.467  -7.466  0.00  0.00    +0.000 A 
BRANCH   8  10
ATOM     10  C   UNL     1       5.371  -2.600  -8.781  0.00  0.00    +0.000 A 
ATOM     11  C   UNL     1       6.245  -3.682  -8.970  0.00  0.00    +0.000 A 
ATOM     12  C   UNL     1       5.757  -4.954  -9.254  0.00  0.00    +0.000 A 
ATOM     13  C   UNL     1       4.386  -5.129  -9.334  0.00  0.00    +0.000 A 
ATOM     14  N   UNL     1       3.499  -4.129  -9.168  0.00  0.00    +0.000 NA
ATOM     15  C   UNL     1       4.012  -2.900  -8.900  0.00  0.00    +0.000 A 
ENDBRANCH   8  10
ENDBRANCH   1   4
BRANCH   1  16
ATOM     16  N   UNL     1       5.392   0.939  -4.474  0.00  0.00    +0.000 N 
ATOM     17  H   UNL     1       6.392   0.949  -4.281  0.00  0.00    +0.000 HD
BRANCH  16  21
ATOM     18  C   UNL     1       3.542  -2.279  -2.435  0.00  0.00    +0.000 A 
ATOM     19  C   UNL     1       2.993  -1.822  -3.636  0.00  0.00    +0.000 A 
ATOM     20  C   UNL     1       3.591  -0.756  -4.319  0.00  0.00    +0.000 A 
ATOM     21  C   UNL     1       4.772  -0.168  -3.857  0.00  0.00    +0.000 A 
ATOM     22  C   UNL     1       5.289  -0.615  -2.631  0.00  0.00    +0.000 A 
ATOM     23  C   UNL     1       4.682  -1.656  -1.922  0.00  0.00    +0.000 A 
BRANCH  18  25
ATOM     24  N   UNL     1       2.189  -4.301  -2.352  0.00  0.00    +0.000 N 
ATOM     25  C   UNL     1       2.912  -3.374  -1.654  0.00  0.00    +0.000 C 
ATOM     26  O   UNL     1       3.058  -3.466  -0.442  0.00  0.00    +0.000 OA
ATOM     27  H   UNL     1       1.844  -5.091  -1.823  0.00  0.00    +0.000 HD
ATOM     28  H   UNL     1       2.263  -4.402  -3.354  0.00  0.00    +0.000 HD
ENDBRANCH  18  25
ENDBRANCH  16  21
ENDBRANCH   1  16
TORSDOF 5
