REMARK  Name = 
REMARK  9 active torsions:
REMARK  status: ('A' for Active; 'I' for Inactive)
REMARK    1  A    between atoms: C_1  and  C_2
REMARK    2  A    between atoms: C_8  and  O_9
REMARK    3  A    between atoms: O_9  and  C_10
REMARK    4  A    between atoms: C_10  and  C_11
REMARK    5  A    between atoms: C_11  and  C_12
REMARK    6  A    between atoms: C_11  and  C_13
REMARK    7  A    between atoms: C_11  and  C_14
REMARK    8  A    between atoms: CA_18  and  C_19
REMARK    9  A    between atoms: C_19  and  O_20
REMARK                            x       y       z     vdW  Elec       q    Type
REMARK                         _______ _______ _______ _____ _____    ______ ____
ROOT
ATOM      1  C   UNL     1      -3.600   1.449   0.101  0.00  0.00    +0.000 C 
ENDROOT
BRANCH   1   2
ATOM      2  C   UNL     1      -4.677   2.560   0.160  0.00  0.00    +0.000 C 
ATOM      3  C   UNL     1      -4.487   3.406   1.431  0.00  0.00    +0.000 C 
ATOM      4  C   UNL     1      -4.564   3.466  -1.077  0.00  0.00    +0.000 C 
BRANCH   2   5
ATOM      5  C   UNL     1      -6.054   1.893   0.190  0.00  0.00    +0.000 A 
ATOM      6  N   UNL     1      -6.112   0.545   0.171  0.00  0.00    +0.000 NA
ATOM      7  C   UNL     1      -7.328  -0.022   0.229  0.00  0.00    +0.000 A 
ATOM      8  C   UNL     1      -8.490   0.701   0.311  0.00  0.00    +0.000 A 
ATOM      9  CA  UNL     1      -8.350   2.074   0.326  0.00  0.00    +0.000 A 
ATOM     10  N   UNL     1      -7.143   2.684   0.256  0.00  0.00    +0.000 NA
BRANCH   9  11
ATOM     11  C   UNL     1      -9.569   2.956   0.426  0.00  0.00    +0.000 C 
BRANCH  11  12
ATOM     12  O   UNL     1     -10.447   2.740  -0.674  0.00  0.00    +0.000 OA
ATOM     13  H   UNL     1      -9.966   3.041  -1.466  0.00  0.00    +0.000 HD
ENDBRANCH  11  12
ENDBRANCH   9  11
ENDBRANCH   2   5
ENDBRANCH   1   2
BRANCH   1  14
ATOM     14  O   UNL     1      -2.268   1.950   0.089  0.00  0.00    +0.000 OA
BRANCH  14  22
ATOM     15  C   UNL     1      -2.419  -1.246  -0.006  0.00  0.00    +0.000 C 
ATOM     16  C   UNL     1      -1.225  -0.342  -0.026  0.00  0.00    +0.000 A 
ATOM     17  N   UNL     1      -0.059  -1.039  -0.101  0.00  0.00    +0.000 NA
ATOM     18  C   UNL     1       1.089  -0.362  -0.142  0.00  0.00    +0.000 A 
ATOM     19  N   UNL     1       2.251  -1.099  -0.211  0.00  0.00    +0.000 N 
ATOM     20  N   UNL     1       1.185   0.961  -0.070  0.00  0.00    +0.000 NA
ATOM     21  C   UNL     1       0.014   1.629   0.002  0.00  0.00    +0.000 A 
ATOM     22  C   UNL     1      -1.245   1.047   0.023  0.00  0.00    +0.000 A 
ATOM     23  H   UNL     1       2.079  -2.027   0.151  0.00  0.00    +0.000 HD
ATOM     24  H   UNL     1       3.011  -0.572   0.196  0.00  0.00    +0.000 HD
ENDBRANCH  14  22
ENDBRANCH   1  14
TORSDOF 6
