REMARK  Name = 
REMARK  6 active torsions:
REMARK  status: ('A' for Active; 'I' for Inactive)
REMARK    1  A    between atoms: C_2  and  C_25
REMARK    2  A    between atoms: N_3  and  C_4
REMARK    3  A    between atoms: C_4  and  C_5
REMARK    4  A    between atoms: C_8  and  C_9
REMARK    5  A    between atoms: C_9  and  N_10
REMARK    6  A    between atoms: C_11  and  C_13
REMARK                            x       y       z     vdW  Elec       q    Type
REMARK                         _______ _______ _______ _____ _____    ______ ____
ROOT
ATOM      1  C   UNL     1       3.217   3.597  -0.468  0.00  0.00    +0.000 A 
ATOM      2  C   UNL     1       2.699   4.898  -0.529  0.00  0.00    +0.000 A 
ATOM      3  C   UNL     1       3.553   6.003  -0.628  0.00  0.00    +0.000 A 
ATOM      4  C   UNL     1       4.942   5.829  -0.688  0.00  0.00    +0.000 A 
ATOM      5  C   UNL     1       5.458   4.528  -0.627  0.00  0.00    +0.000 A 
ATOM      6  C   UNL     1       4.605   3.423  -0.530  0.00  0.00    +0.000 A 
ENDROOT
BRANCH   1   7
ATOM      7  C   UNL     1       2.298   2.412  -0.330  0.00  0.00    +0.000 C 
BRANCH   7  10
ATOM      8  O   UNL     1       0.539   0.311  -0.672  0.00  0.00    +0.000 OA
ATOM      9  C   UNL     1       0.970   0.855  -1.687  0.00  0.00    +0.000 C 
ATOM     10  N   UNL     1       1.854   1.911  -1.608  0.00  0.00    +0.000 N 
ATOM     11  H   UNL     1       2.196   2.341  -2.457  0.00  0.00    +0.000 HD
BRANCH   9  12
ATOM     12  C   UNL     1       0.580   0.435  -3.019  0.00  0.00    +0.000 A 
ATOM     13  C   UNL     1      -0.323  -0.561  -3.349  0.00  0.00    +0.000 A 
ATOM     14  N   UNL     1      -0.524  -0.773  -4.701  0.00  0.00    +0.000 NA
ATOM     15  C   UNL     1       0.232   0.058  -5.382  0.00  0.00    +0.000 A 
ATOM     16  S   UNL     1       1.206   1.126  -4.459  0.00  0.00    +0.000 S 
ENDBRANCH   9  12
ENDBRANCH   7  10
ENDBRANCH   1   7
BRANCH   4  17
ATOM     17  C   UNL     1       5.869   7.014  -0.786  0.00  0.00    +0.000 C 
BRANCH  17  18
ATOM     18  N   UNL     1       6.267   7.488   0.516  0.00  0.00    +0.000 N 
ATOM     19  C   UNL     1       7.059   8.602   0.650  0.00  0.00    +0.000 C 
ATOM     20  O   UNL     1       7.410   9.268  -0.321  0.00  0.00    +0.000 OA
ATOM     21  H   UNL     1       6.182   6.839   1.292  0.00  0.00    +0.000 HD
BRANCH  19  22
ATOM     22  C   UNL     1       7.419   8.998   2.018  0.00  0.00    +0.000 A 
ATOM     23  C   UNL     1       7.782  10.313   2.280  0.00  0.00    +0.000 A 
ATOM     24  S   UNL     1       8.119  10.617   3.924  0.00  0.00    +0.000 S 
ATOM     25  C   UNL     1       7.846   8.989   4.336  0.00  0.00    +0.000 A 
ATOM     26  N   UNL     1       7.992   8.559   5.618  0.00  0.00    +0.000 NA
ATOM     27  C   UNL     1       7.790   7.294   5.782  0.00  0.00    +0.000 A 
ATOM     28  N   UNL     1       7.449   6.422   4.782  0.00  0.00    +0.000 N 
ATOM     29  C   UNL     1       7.257   6.817   3.479  0.00  0.00    +0.000 A 
ATOM     30  O   UNL     1       6.908   6.019   2.616  0.00  0.00    +0.000 OA
ATOM     31  C   UNL     1       7.486   8.228   3.237  0.00  0.00    +0.000 A 
ATOM     32  H   UNL     1       7.297   5.443   4.978  0.00  0.00    +0.000 HD
ENDBRANCH  19  22
ENDBRANCH  17  18
ENDBRANCH   4  17
TORSDOF 6
