REMARK  Name = 
REMARK  7 active torsions:
REMARK  status: ('A' for Active; 'I' for Inactive)
REMARK    1  A    between atoms: C_1  and  C_2
REMARK    2  A    between atoms: C_2  and  N_3
REMARK    3  A    between atoms: C_2  and  C_12
REMARK    4  A    between atoms: C_4  and  C_6
REMARK    5  A    between atoms: C_15  and  C_16
REMARK    6  A    between atoms: C_16  and  N_17
REMARK    7  A    between atoms: C_18  and  C_20
REMARK                            x       y       z     vdW  Elec       q    Type
REMARK                         _______ _______ _______ _____ _____    ______ ____
ROOT
ATOM      1  C   UNL     1       2.194  -0.657   6.470  0.00  0.00    +0.000 A 
ATOM      2  C   UNL     1       1.444   0.294   7.179  0.00  0.00    +0.000 A 
ATOM      3  C   UNL     1       0.393  -0.095   8.014  0.00  0.00    +0.000 A 
ATOM      4  C   UNL     1       0.068  -1.448   8.164  0.00  0.00    +0.000 A 
ATOM      5  C   UNL     1       0.799  -2.399   7.441  0.00  0.00    +0.000 A 
ATOM      6  C   UNL     1       1.853  -2.011   6.609  0.00  0.00    +0.000 A 
ENDROOT
BRANCH   1   8
ATOM      7  C   UNL     1       4.676  -0.817   5.978  0.00  0.00    +0.000 C 
ATOM      8  C   UNL     1       3.331  -0.202   5.573  0.00  0.00    +0.000 C 
BRANCH   8   9
ATOM      9  N   UNL     1       3.029  -0.480   4.174  0.00  0.00    +0.000 N 
ATOM     10  C   UNL     1       3.517   0.321   3.169  0.00  0.00    +0.000 C 
ATOM     11  O   UNL     1       4.187   1.326   3.405  0.00  0.00    +0.000 OA
ATOM     12  H   UNL     1       2.574  -1.352   3.946  0.00  0.00    +0.000 HD
BRANCH  10  13
ATOM     13  C   UNL     1       3.214  -0.144   1.744  0.00  0.00    +0.000 C 
ATOM     14  C   UNL     1       1.712  -0.351   1.501  0.00  0.00    +0.000 C 
ATOM     15  C   UNL     1       1.405  -0.560   0.017  0.00  0.00    +0.000 C 
ATOM     16  C   UNL     1       2.027   0.531  -0.847  0.00  0.00    +0.000 C 
ATOM     17  N   UNL     1       3.473   0.576  -0.641  0.00  0.00    +0.000 NA
ATOM     18  C   UNL     1       3.788   0.890   0.758  0.00  0.00    +0.000 C 
ATOM     19  H   UNL     1       3.874   1.303  -1.235  0.00  0.00    +0.000 HD
ENDBRANCH  10  13
ENDBRANCH   8   9
ENDBRANCH   1   8
BRANCH   4  20
ATOM     20  C   UNL     1      -1.074  -1.878   9.046  0.00  0.00    +0.000 C 
BRANCH  20  21
ATOM     21  N   UNL     1      -2.310  -1.929   8.306  0.00  0.00    +0.000 N 
ATOM     22  C   UNL     1      -3.493  -2.248   8.920  0.00  0.00    +0.000 C 
ATOM     23  O   UNL     1      -3.563  -2.456  10.129  0.00  0.00    +0.000 OA
ATOM     24  H   UNL     1      -2.241  -1.974   7.295  0.00  0.00    +0.000 HD
BRANCH  22  25
ATOM     25  C   UNL     1      -4.690  -2.268   8.070  0.00  0.00    +0.000 A 
ATOM     26  C   UNL     1      -5.943  -2.095   8.643  0.00  0.00    +0.000 A 
ATOM     27  S   UNL     1      -7.219  -2.092   7.512  0.00  0.00    +0.000 S 
ATOM     28  C   UNL     1      -6.148  -2.377   6.222  0.00  0.00    +0.000 A 
ATOM     29  N   UNL     1      -6.608  -2.511   4.949  0.00  0.00    +0.000 NA
ATOM     30  C   UNL     1      -5.692  -2.759   4.074  0.00  0.00    +0.000 A 
ATOM     31  N   UNL     1      -4.356  -2.878   4.355  0.00  0.00    +0.000 N 
ATOM     32  C   UNL     1      -3.841  -2.719   5.620  0.00  0.00    +0.000 A 
ATOM     33  O   UNL     1      -2.634  -2.789   5.829  0.00  0.00    +0.000 OA
ATOM     34  C   UNL     1      -4.833  -2.453   6.645  0.00  0.00    +0.000 A 
ATOM     35  H   UNL     1      -3.688  -3.064   3.622  0.00  0.00    +0.000 HD
ENDBRANCH  22  25
ENDBRANCH  20  21
ENDBRANCH   4  20
TORSDOF 6
