REMARK  Name = 
REMARK  5 active torsions:
REMARK  status: ('A' for Active; 'I' for Inactive)
REMARK    1  A    between atoms: C_2  and  C_4
REMARK    2  A    between atoms: C_7  and  O_8
REMARK    3  A    between atoms: O_8  and  C_9
REMARK    4  A    between atoms: C_9  and  C_10
REMARK    5  A    between atoms: C_13  and  C_14
REMARK                            x       y       z     vdW  Elec       q    Type
REMARK                         _______ _______ _______ _____ _____    ______ ____
ROOT
ATOM      1  C   UNL     1       5.248  -3.028   5.051  0.00  0.00    +0.000 C 
ENDROOT
BRANCH   1   2
ATOM      2  C   UNL     1       6.192  -3.262   6.204  0.00  0.00    +0.000 A 
ATOM      3  C   UNL     1       6.800  -2.190   6.865  0.00  0.00    +0.000 A 
ATOM      4  C   UNL     1       7.649  -2.415   7.955  0.00  0.00    +0.000 A 
ATOM      5  C   UNL     1       7.923  -3.714   8.415  0.00  0.00    +0.000 A 
ATOM      6  C   UNL     1       7.296  -4.778   7.743  0.00  0.00    +0.000 A 
ATOM      7  C   UNL     1       6.458  -4.560   6.645  0.00  0.00    +0.000 A 
BRANCH   5   8
ATOM      8  C   UNL     1       8.852  -3.962   9.537  0.00  0.00    +0.000 A 
ATOM      9  C   UNL     1       9.037  -3.052  10.587  0.00  0.00    +0.000 A 
ATOM     10  C   UNL     1       9.944  -3.326  11.612  0.00  0.00    +0.000 A 
ATOM     11  C   UNL     1      10.645  -4.516  11.573  0.00  0.00    +0.000 A 
ATOM     12  N   UNL     1      10.505  -5.430  10.591  0.00  0.00    +0.000 NA
ATOM     13  C   UNL     1       9.627  -5.126   9.606  0.00  0.00    +0.000 A 
ENDBRANCH   5   8
ENDBRANCH   1   2
BRANCH   1  14
ATOM     14  O   UNL     1       5.975  -2.963   3.824  0.00  0.00    +0.000 OA
BRANCH  14  18
ATOM     15  C   UNL     1       4.007  -2.447   0.249  0.00  0.00    +0.000 A 
ATOM     16  C   UNL     1       3.220  -2.468   1.394  0.00  0.00    +0.000 A 
ATOM     17  C   UNL     1       3.845  -2.638   2.631  0.00  0.00    +0.000 A 
ATOM     18  C   UNL     1       5.230  -2.778   2.692  0.00  0.00    +0.000 A 
ATOM     19  C   UNL     1       5.928  -2.738   1.487  0.00  0.00    +0.000 A 
ATOM     20  N   UNL     1       5.361  -2.577   0.263  0.00  0.00    +0.000 NA
BRANCH  15  22
ATOM     21  N   UNL     1       4.174  -2.319  -2.178  0.00  0.00    +0.000 N 
ATOM     22  C   UNL     1       3.350  -2.286  -1.087  0.00  0.00    +0.000 C 
ATOM     23  O   UNL     1       2.140  -2.146  -1.208  0.00  0.00    +0.000 OA
ATOM     24  H   UNL     1       3.758  -2.290  -3.098  0.00  0.00    +0.000 HD
ATOM     25  H   UNL     1       5.152  -2.558  -2.067  0.00  0.00    +0.000 HD
ENDBRANCH  15  22
ENDBRANCH  14  18
ENDBRANCH   1  14
TORSDOF 5
