REMARK  Name = 
REMARK  6 active torsions:
REMARK  status: ('A' for Active; 'I' for Inactive)
REMARK    1  A    between atoms: C_5  and  N_6
REMARK    2  A    between atoms: N_6  and  C_7
REMARK    3  A    between atoms: C_7  and  C_8
REMARK    4  A    between atoms: C_8  and  C_9
REMARK    5  A    between atoms: C_13  and  O_14
REMARK    6  A    between atoms: O_14  and  C_15
REMARK                            x       y       z     vdW  Elec       q    Type
REMARK                         _______ _______ _______ _____ _____    ______ ____
ROOT
ATOM      1  C   UNL     1       5.015  -3.779  -0.022  0.00  0.00    +0.000 A 
ATOM      2  C   UNL     1       5.669  -2.562  -0.016  0.00  0.00    +0.000 A 
ATOM      3  C   UNL     1       7.047  -2.612  -0.033  0.00  0.00    +0.000 A 
ATOM      4  N   UNL     1       7.756  -3.754  -0.073  0.00  0.00    +0.000 NA
ATOM      5  C   UNL     1       7.031  -4.880  -0.078  0.00  0.00    +0.000 A 
ATOM      6  N   UNL     1       5.693  -4.945  -0.041  0.00  0.00    +0.000 NA
ENDROOT
BRANCH   1   7
ATOM      7  C   UNL     1       3.503  -3.839  -0.023  0.00  0.00    +0.000 C 
BRANCH   7   8
ATOM      8  C   UNL     1       2.997  -5.284  -0.029  0.00  0.00    +0.000 C 
BRANCH   8   9
ATOM      9  N   UNL     1       1.536  -5.365  -0.074  0.00  0.00    +0.000 N 
ATOM     10  H   UNL     1       1.061  -4.753   0.585  0.00  0.00    +0.000 HD
BRANCH   9  15
ATOM     11  C   UNL     1       1.057  -9.072  -0.297  0.00  0.00    +0.000 A 
ATOM     12  C   UNL     1      -0.321  -9.102  -0.210  0.00  0.00    +0.000 A 
ATOM     13  N   UNL     1      -1.083  -7.999  -0.070  0.00  0.00    +0.000 NA
ATOM     14  C   UNL     1      -0.423  -6.813  -0.017  0.00  0.00    +0.000 A 
ATOM     15  C   UNL     1       0.966  -6.654  -0.068  0.00  0.00    +0.000 A 
ATOM     16  C   UNL     1       1.698  -7.835  -0.237  0.00  0.00    +0.000 A 
ENDBRANCH   9  15
ENDBRANCH   8   9
ENDBRANCH   7   8
ENDBRANCH   1   7
BRANCH   5  17
ATOM     17  O   UNL     1       7.671  -6.099  -0.148  0.00  0.00    +0.000 OA
BRANCH  17  18
ATOM     18  C   UNL     1       8.990  -6.075  -0.728  0.00  0.00    +0.000 C 
ATOM     19  C   UNL     1       9.075  -5.741  -2.241  0.00  0.00    +0.000 C 
ATOM     20  C   UNL     1      10.099  -6.874  -2.394  0.00  0.00    +0.000 C 
ATOM     21  C   UNL     1       9.567  -7.469  -1.082  0.00  0.00    +0.000 C 
ENDBRANCH  17  18
ENDBRANCH   5  17
TORSDOF 6
