REMARK  Name = 
REMARK  5 active torsions:
REMARK  status: ('A' for Active; 'I' for Inactive)
REMARK    1  A    between atoms: C_2  and  C_4
REMARK    2  A    between atoms: C_7  and  C_8
REMARK    3  A    between atoms: C_8  and  C_9
REMARK    4  A    between atoms: C_9  and  O_10
REMARK    5  A    between atoms: C_9  and  C_11
REMARK                            x       y       z     vdW  Elec       q    Type
REMARK                         _______ _______ _______ _____ _____    ______ ____
ROOT
ATOM      1  C   UNL     1       2.930   0.539   1.344  0.00  0.00    +0.000 A 
ATOM      2  C   UNL     1       3.976  -0.362   1.537  0.00  0.00    +0.000 A 
ATOM      3  C   UNL     1       4.782  -0.240   2.669  0.00  0.00    +0.000 A 
ATOM      4  C   UNL     1       4.531   0.790   3.578  0.00  0.00    +0.000 A 
ATOM      5  N   UNL     1       3.518   1.676   3.407  0.00  0.00    +0.000 NA
ATOM      6  C   UNL     1       2.749   1.535   2.294  0.00  0.00    +0.000 A 
ENDROOT
BRANCH   1   8
ATOM      7  N   UNL     1       1.866  -0.711  -0.451  0.00  0.00    +0.000 N 
ATOM      8  C   UNL     1       2.038   0.499   0.166  0.00  0.00    +0.000 C 
ATOM      9  O   UNL     1       1.453   1.498  -0.230  0.00  0.00    +0.000 OA
ATOM     10  H   UNL     1       1.178  -0.741  -1.193  0.00  0.00    +0.000 HD
ATOM     11  H   UNL     1       2.123  -1.585  -0.017  0.00  0.00    +0.000 HD
ENDBRANCH   1   8
BRANCH   4  12
ATOM     12  C   UNL     1       5.414   0.970   4.794  0.00  0.00    +0.000 C 
BRANCH  12  13
ATOM     13  C   UNL     1       4.933   0.152   5.993  0.00  0.00    +0.000 C 
BRANCH  13  14
ATOM     14  C   UNL     1       5.789   0.454   7.220  0.00  0.00    +0.000 A 
ATOM     15  N   UNL     1       5.465   1.497   8.008  0.00  0.00    +0.000 NA
ATOM     16  C   UNL     1       6.214   1.665   9.117  0.00  0.00    +0.000 A 
ATOM     17  C   UNL     1       7.266   0.847   9.459  0.00  0.00    +0.000 A 
ATOM     18  C   UNL     1       7.527  -0.179   8.584  0.00  0.00    +0.000 A 
ATOM     19  N   UNL     1       6.809  -0.402   7.465  0.00  0.00    +0.000 NA
ENDBRANCH  13  14
BRANCH  13  20
ATOM     20  O   UNL     1       5.039  -1.257   5.676  0.00  0.00    +0.000 OA
ATOM     21  H   UNL     1       5.775  -1.586   6.233  0.00  0.00    +0.000 HD
ENDBRANCH  13  20
ENDBRANCH  12  13
ENDBRANCH   4  12
TORSDOF 5
