REMARK  Name = 
REMARK  3 active torsions:
REMARK  status: ('A' for Active; 'I' for Inactive)
REMARK    1  A    between atoms: C_2  and  C_4
REMARK    2  A    between atoms: N_8  and  C_9
REMARK    3  A    between atoms: C_9  and  C_10
REMARK                            x       y       z     vdW  Elec       q    Type
REMARK                         _______ _______ _______ _____ _____    ______ ____
ROOT
ATOM      1  C   UNL     1       4.719   0.818  -1.303  0.00  0.00    +0.000 A 
ATOM      2  C   UNL     1       5.974   0.366  -1.624  0.00  0.00    +0.000 A 
ATOM      3  N   UNL     1       6.222  -0.455  -2.665  0.00  0.00    +0.000 NA
ATOM      4  C   UNL     1       5.177  -0.850  -3.409  0.00  0.00    +0.000 A 
ATOM      5  N   UNL     1       5.397  -1.659  -4.503  0.00  0.00    +0.000 N 
ATOM      6  N   UNL     1       3.914  -0.469  -3.171  0.00  0.00    +0.000 NA
ATOM      7  C   UNL     1       3.708   0.353  -2.111  0.00  0.00    +0.000 A 
ATOM      8  H   UNL     1       4.512  -2.015  -4.841  0.00  0.00    +0.000 HD
ENDROOT
BRANCH   1  10
ATOM      9  N   UNL     1       5.440   2.508   0.283  0.00  0.00    +0.000 N 
ATOM     10  C   UNL     1       4.442   1.680  -0.148  0.00  0.00    +0.000 C 
ATOM     11  O   UNL     1       3.347   1.666   0.397  0.00  0.00    +0.000 OA
ATOM     12  H   UNL     1       5.200   3.144   1.034  0.00  0.00    +0.000 HD
ATOM     13  H   UNL     1       6.258   2.738  -0.266  0.00  0.00    +0.000 HD
ENDBRANCH   1  10
BRANCH   5  14
ATOM     14  C   UNL     1       6.447  -2.643  -4.346  0.00  0.00    +0.000 C 
BRANCH  14  15
ATOM     15  C   UNL     1       6.961  -3.024  -5.709  0.00  0.00    +0.000 A 
ATOM     16  C   UNL     1       6.954  -4.335  -6.166  0.00  0.00    +0.000 A 
ATOM     17  C   UNL     1       7.454  -4.575  -7.431  0.00  0.00    +0.000 A 
ATOM     18  N   UNL     1       7.964  -3.618  -8.242  0.00  0.00    +0.000 NA
ATOM     19  C   UNL     1       7.994  -2.340  -7.805  0.00  0.00    +0.000 A 
ATOM     20  N   UNL     1       8.567  -1.376  -8.602  0.00  0.00    +0.000 N 
ATOM     21  C   UNL     1       8.141   0.027  -8.600  0.00  0.00    +0.000 C 
ATOM     22  C   UNL     1       7.585   0.421  -9.979  0.00  0.00    +0.000 C 
ATOM     23  O   UNL     1       8.507   0.115 -11.036  0.00  0.00    +0.000 OA
ATOM     24  C   UNL     1       8.781  -1.298 -11.058  0.00  0.00    +0.000 C 
ATOM     25  C   UNL     1       9.406  -1.769  -9.739  0.00  0.00    +0.000 C 
ATOM     26  C   UNL     1       7.501  -2.032  -6.541  0.00  0.00    +0.000 A 
ENDBRANCH  14  15
ENDBRANCH   5  14
TORSDOF 3
