REMARK  Name = 
REMARK  5 active torsions:
REMARK  status: ('A' for Active; 'I' for Inactive)
REMARK    1  A    between atoms: N_1  and  C_2
REMARK    2  A    between atoms: C_2  and  C_3
REMARK    3  A    between atoms: C_6  and  C_7
REMARK    4  A    between atoms: C_7  and  N_8
REMARK    5  A    between atoms: C_13  and  C_14
REMARK                            x       y       z     vdW  Elec       q    Type
REMARK                         _______ _______ _______ _____ _____    ______ ____
ROOT
ATOM      1  N   UNL     1       4.473  -5.402  -0.225  0.00  0.00    +0.000 N 
ATOM      2  C   UNL     1       4.591  -6.499  -1.039  0.00  0.00    +0.000 A 
ATOM      3  N   UNL     1       4.019  -7.563  -0.517  0.00  0.00    +0.000 NA
ATOM      4  C   UNL     1       3.556  -7.148   0.703  0.00  0.00    +0.000 A 
ATOM      5  C   UNL     1       2.885  -7.855   1.707  0.00  0.00    +0.000 A 
ATOM      6  C   UNL     1       2.588  -7.163   2.885  0.00  0.00    +0.000 A 
ATOM      7  C   UNL     1       2.944  -5.813   2.980  0.00  0.00    +0.000 A 
ATOM      8  N   UNL     1       3.568  -5.074   2.018  0.00  0.00    +0.000 NA
ATOM      9  C   UNL     1       3.846  -5.805   0.921  0.00  0.00    +0.000 A 
ENDROOT
BRANCH   6  10
ATOM     10  C   UNL     1       1.930  -7.799   4.054  0.00  0.00    +0.000 C 
ATOM     11  N   UNL     1       1.608  -9.128   3.979  0.00  0.00    +0.000 N 
ATOM     12  O   UNL     1       1.685  -7.162   5.068  0.00  0.00    +0.000 OA
ATOM     13  H   UNL     1       1.788  -9.734   3.194  0.00  0.00    +0.000 HD
ATOM     14  H   UNL     1       1.178  -9.539   4.799  0.00  0.00    +0.000 HD
ENDBRANCH   6  10
BRANCH   1  15
ATOM     15  C   UNL     1       4.942  -4.065  -0.535  0.00  0.00    +0.000 C 
BRANCH  15  19
ATOM     16  C   UNL     1       2.904  -0.879  -1.152  0.00  0.00    +0.000 C 
ATOM     17  C   UNL     1       2.323  -2.253  -0.777  0.00  0.00    +0.000 C 
ATOM     18  C   UNL     1       2.781  -3.353  -1.732  0.00  0.00    +0.000 C 
ATOM     19  C   UNL     1       4.313  -3.464  -1.813  0.00  0.00    +0.000 C 
ATOM     20  C   UNL     1       4.933  -2.094  -2.146  0.00  0.00    +0.000 C 
ATOM     21  C   UNL     1       4.438  -0.965  -1.238  0.00  0.00    +0.000 C 
BRANCH  16  22
ATOM     22  C   UNL     1       2.299  -0.303  -2.450  0.00  0.00    +0.000 C 
BRANCH  22  23
ATOM     23  N   UNL     1       0.853  -0.145  -2.344  0.00  0.00    +0.000 NA
ATOM     24  H   UNL     1       0.494   0.323  -3.175  0.00  0.00    +0.000 HD
ATOM     25  H   UNL     1       0.628   0.456  -1.552  0.00  0.00    +0.000 HD
ENDBRANCH  22  23
ENDBRANCH  16  22
ENDBRANCH  15  19
ENDBRANCH   1  15
TORSDOF 5
