REMARK  Name = 
REMARK  5 active torsions:
REMARK  status: ('A' for Active; 'I' for Inactive)
REMARK    1  A    between atoms: C_2  and  C_4
REMARK    2  A    between atoms: N_8  and  C_9
REMARK    3  A    between atoms: C_9  and  C_10
REMARK    4  A    between atoms: C_14  and  C_15
REMARK    5  A    between atoms: C_19  and  O_20
REMARK                            x       y       z     vdW  Elec       q    Type
REMARK                         _______ _______ _______ _____ _____    ______ ____
ROOT
ATOM      1  C   UNL     1       5.100   5.780   1.805  0.00  0.00    +0.000 C 
ATOM      2  C   UNL     1       5.073   5.590   3.317  0.00  0.00    +0.000 C 
ATOM      3  C   UNL     1       3.852   6.078   2.612  0.00  0.00    +0.000 C 
ENDROOT
BRANCH   1   8
ATOM      4  C   UNL     1       3.371   3.078  -2.329  0.00  0.00    +0.000 A 
ATOM      5  C   UNL     1       2.859   4.233  -1.738  0.00  0.00    +0.000 A 
ATOM      6  C   UNL     1       3.474   4.741  -0.592  0.00  0.00    +0.000 A 
ATOM      7  C   UNL     1       4.610   4.120  -0.089  0.00  0.00    +0.000 A 
ATOM      8  N   UNL     1       5.278   4.535   1.056  0.00  0.00    +0.000 N 
ATOM      9  N   UNL     1       5.115   3.006  -0.666  0.00  0.00    +0.000 NA
ATOM     10  C   UNL     1       4.475   2.492  -1.748  0.00  0.00    +0.000 A 
ATOM     11  H   UNL     1       6.173   4.056   1.097  0.00  0.00    +0.000 HD
BRANCH   4  13
ATOM     12  N   UNL     1       2.072   3.282  -4.366  0.00  0.00    +0.000 N 
ATOM     13  C   UNL     1       2.741   2.445  -3.510  0.00  0.00    +0.000 C 
ATOM     14  O   UNL     1       2.831   1.246  -3.723  0.00  0.00    +0.000 OA
ATOM     15  H   UNL     1       1.692   2.867  -5.209  0.00  0.00    +0.000 HD
ATOM     16  H   UNL     1       2.191   4.282  -4.349  0.00  0.00    +0.000 HD
ENDBRANCH   4  13
ENDBRANCH   1   8
BRANCH   1  17
ATOM     17  C   UNL     1       5.887   6.944   1.223  0.00  0.00    +0.000 A 
ATOM     18  C   UNL     1       7.199   7.220   1.632  0.00  0.00    +0.000 A 
ATOM     19  C   UNL     1       7.965   8.189   0.992  0.00  0.00    +0.000 A 
ATOM     20  C   UNL     1       7.436   8.898  -0.087  0.00  0.00    +0.000 A 
ATOM     21  C   UNL     1       6.125   8.671  -0.534  0.00  0.00    +0.000 A 
ATOM     22  C   UNL     1       5.367   7.713   0.164  0.00  0.00    +0.000 A 
BRANCH  21  23
ATOM     23  C   UNL     1       5.586   9.342  -1.735  0.00  0.00    +0.000 A 
ATOM     24  C   UNL     1       6.396   9.648  -2.835  0.00  0.00    +0.000 A 
ATOM     25  N   UNL     1       5.972  10.221  -3.990  0.00  0.00    +0.000 NA
ATOM     26  C   UNL     1       4.655  10.499  -4.071  0.00  0.00    +0.000 A 
ATOM     27  C   UNL     1       3.757  10.235  -3.051  0.00  0.00    +0.000 A 
ATOM     28  C   UNL     1       4.227   9.663  -1.875  0.00  0.00    +0.000 A 
BRANCH  27  29
ATOM     29  O   UNL     1       2.424  10.496  -3.152  0.00  0.00    +0.000 OA
ATOM     30  H   UNL     1       2.245  10.901  -4.018  0.00  0.00    +0.000 HD
ENDBRANCH  27  29
ENDBRANCH  21  23
ENDBRANCH   1  17
TORSDOF 5
