REMARK  Name = 
REMARK  7 active torsions:
REMARK  status: ('A' for Active; 'I' for Inactive)
REMARK    1  A    between atoms: C_1  and  C_2
REMARK    2  A    between atoms: C_2  and  C_3
REMARK    3  A    between atoms: C_6  and  O_7
REMARK    4  A    between atoms: O_7  and  C_8
REMARK    5  A    between atoms: C_15  and  C_16
REMARK    6  A    between atoms: C_15  and  C_17
REMARK    7  A    between atoms: C_20  and  C_21
REMARK                            x       y       z     vdW  Elec       q    Type
REMARK                         _______ _______ _______ _____ _____    ______ ____
ROOT
ATOM      1  C   UNL     1       0.816  -0.030  -0.110  0.00  0.00    +0.000 C 
ATOM      2  C   UNL     1       2.320  -0.137   0.052  0.00  0.00    +0.000 C 
ATOM      3  C   UNL     1       3.176   0.616  -0.948  0.00  0.00    +0.000 C 
ATOM      4  C   UNL     1       3.148  -0.895  -1.032  0.00  0.00    +0.000 C 
ATOM      5  C   UNL     1       4.445  -1.596  -0.670  0.00  0.00    +0.000 C 
ENDROOT
BRANCH   2   6
ATOM      6  C   UNL     1       2.786  -0.180   1.502  0.00  0.00    +0.000 A 
ATOM      7  C   UNL     1       2.775  -1.375   2.237  0.00  0.00    +0.000 A 
ATOM      8  C   UNL     1       3.329  -1.448   3.519  0.00  0.00    +0.000 A 
ATOM      9  C   UNL     1       3.930  -0.328   4.082  0.00  0.00    +0.000 A 
ATOM     10  C   UNL     1       3.834   0.895   3.426  0.00  0.00    +0.000 A 
ATOM     11  C   UNL     1       3.262   0.969   2.153  0.00  0.00    +0.000 A 
BRANCH   9  12
ATOM     12  O   UNL     1       4.578  -0.303   5.279  0.00  0.00    +0.000 OA
BRANCH  12  13
ATOM     13  C   UNL     1       5.373  -1.427   5.644  0.00  0.00    +0.000 C 
ATOM     14  F   UNL     1       5.427  -2.406   4.716  0.00  0.00    +0.000 F 
ATOM     15  F   UNL     1       6.639  -1.010   5.872  0.00  0.00    +0.000 F 
ATOM     16  F   UNL     1       4.889  -1.949   6.791  0.00  0.00    +0.000 F 
ENDBRANCH  12  13
ENDBRANCH   9  12
ENDBRANCH   2   6
BRANCH   4  17
ATOM     17  C   UNL     1       2.369  -1.587  -2.149  0.00  0.00    +0.000 A 
ATOM     18  C   UNL     1       2.199  -1.022  -3.423  0.00  0.00    +0.000 A 
ATOM     19  C   UNL     1       1.415  -1.656  -4.384  0.00  0.00    +0.000 A 
ATOM     20  C   UNL     1       0.831  -2.870  -4.058  0.00  0.00    +0.000 A 
ATOM     21  N   UNL     1       0.991  -3.486  -2.858  0.00  0.00    +0.000 NA
ATOM     22  C   UNL     1       1.751  -2.829  -1.949  0.00  0.00    +0.000 A 
BRANCH  20  23
ATOM     23  C   UNL     1      -0.043  -3.566  -5.054  0.00  0.00    +0.000 C 
ATOM     24  N   UNL     1      -0.568  -4.759  -4.640  0.00  0.00    +0.000 N 
ATOM     25  O   UNL     1      -0.281  -3.107  -6.167  0.00  0.00    +0.000 OA
ATOM     26  H   UNL     1      -0.350  -5.101  -3.710  0.00  0.00    +0.000 HD
ATOM     27  H   UNL     1      -1.172  -5.284  -5.254  0.00  0.00    +0.000 HD
ENDBRANCH  20  23
ENDBRANCH   4  17
TORSDOF 5
