REMARK  Name = 
REMARK  6 active torsions:
REMARK  status: ('A' for Active; 'I' for Inactive)
REMARK    1  A    between atoms: C_2  and  C_25
REMARK    2  A    between atoms: N_3  and  C_4
REMARK    3  A    between atoms: C_4  and  C_5
REMARK    4  A    between atoms: C_8  and  C_9
REMARK    5  A    between atoms: C_9  and  N_10
REMARK    6  A    between atoms: C_11  and  C_13
REMARK                            x       y       z     vdW  Elec       q    Type
REMARK                         _______ _______ _______ _____ _____    ______ ____
ROOT
ATOM      1  C   UNL     1       3.098   0.935  -3.763  0.00  0.00    +0.000 C 
ATOM      2  C   UNL     1       4.247  -0.085  -3.703  0.00  0.00    +0.000 C 
ATOM      3  C   UNL     1       5.409   0.286  -4.626  0.00  0.00    +0.000 C 
ATOM      4  C   UNL     1       5.958   1.702  -4.378  0.00  0.00    +0.000 C 
ATOM      5  C   UNL     1       4.807   2.722  -4.426  0.00  0.00    +0.000 C 
ATOM      6  C   UNL     1       3.638   2.353  -3.509  0.00  0.00    +0.000 C 
ENDROOT
BRANCH   1   7
ATOM      7  C   UNL     1       2.321   0.870  -5.094  0.00  0.00    +0.000 C 
BRANCH   7  10
ATOM      8  O   UNL     1      -0.242   0.166  -4.205  0.00  0.00    +0.000 OA
ATOM      9  C   UNL     1       0.406  -0.681  -4.817  0.00  0.00    +0.000 C 
ATOM     10  N   UNL     1       1.670  -0.408  -5.298  0.00  0.00    +0.000 N 
ATOM     11  H   UNL     1       2.177  -1.149  -5.768  0.00  0.00    +0.000 HD
BRANCH   9  12
ATOM     12  C   UNL     1      -0.106  -2.009  -5.082  0.00  0.00    +0.000 A 
ATOM     13  C   UNL     1      -1.373  -2.481  -4.793  0.00  0.00    +0.000 A 
ATOM     14  N   UNL     1      -1.624  -3.797  -5.135  0.00  0.00    +0.000 NA
ATOM     15  C   UNL     1      -0.544  -4.311  -5.680  0.00  0.00    +0.000 A 
ATOM     16  S   UNL     1       0.807  -3.262  -5.818  0.00  0.00    +0.000 S 
ENDBRANCH   9  12
ENDBRANCH   7  10
ENDBRANCH   1   7
BRANCH   4  17
ATOM     17  C   UNL     1       6.755   1.834  -3.065  0.00  0.00    +0.000 C 
BRANCH  17  18
ATOM     18  N   UNL     1       7.900   0.947  -3.010  0.00  0.00    +0.000 N 
ATOM     19  C   UNL     1       9.171   1.327  -3.359  0.00  0.00    +0.000 C 
ATOM     20  O   UNL     1       9.427   2.450  -3.783  0.00  0.00    +0.000 OA
ATOM     21  H   UNL     1       7.713  -0.030  -2.807  0.00  0.00    +0.000 HD
BRANCH  19  22
ATOM     22  C   UNL     1      10.234   0.337  -3.124  0.00  0.00    +0.000 A 
ATOM     23  C   UNL     1      11.548   0.766  -2.980  0.00  0.00    +0.000 A 
ATOM     24  S   UNL     1      12.649  -0.495  -2.654  0.00  0.00    +0.000 S 
ATOM     25  C   UNL     1      11.420  -1.667  -2.737  0.00  0.00    +0.000 A 
ATOM     26  N   UNL     1      11.698  -2.985  -2.553  0.00  0.00    +0.000 NA
ATOM     27  C   UNL     1      10.677  -3.768  -2.664  0.00  0.00    +0.000 A 
ATOM     28  N   UNL     1       9.402  -3.351  -2.944  0.00  0.00    +0.000 N 
ATOM     29  C   UNL     1       9.068  -2.027  -3.096  0.00  0.00    +0.000 A 
ATOM     30  O   UNL     1       7.902  -1.687  -3.266  0.00  0.00    +0.000 OA
ATOM     31  C   UNL     1      10.181  -1.103  -2.996  0.00  0.00    +0.000 A 
ATOM     32  H   UNL     1       8.644  -4.013  -3.000  0.00  0.00    +0.000 HD
ENDBRANCH  19  22
ENDBRANCH  17  18
ENDBRANCH   4  17
TORSDOF 6
