REMARK  Name = 
REMARK  9 active torsions:
REMARK  status: ('A' for Active; 'I' for Inactive)
REMARK    1  A    between atoms: C_1  and  O_2
REMARK    2  A    between atoms: O_2  and  C_3
REMARK    3  A    between atoms: C_8  and  C_9
REMARK    4  A    between atoms: N_11  and  C_12
REMARK    5  A    between atoms: C_12  and  C_13
REMARK    6  A    between atoms: C_16  and  C_17
REMARK    7  A    between atoms: C_17  and  C_18
REMARK    8  A    between atoms: C_17  and  N_19
REMARK    9  A    between atoms: C_20  and  C_22
REMARK                            x       y       z     vdW  Elec       q    Type
REMARK                         _______ _______ _______ _____ _____    ______ ____
ROOT
ATOM      1  C   UNL     1       1.184   5.681  -9.314  0.00  0.00    +0.000 A 
ATOM      2  C   UNL     1       0.396   4.536  -9.492  0.00  0.00    +0.000 A 
ATOM      3  C   UNL     1      -0.011   3.772  -8.393  0.00  0.00    +0.000 A 
ATOM      4  C   UNL     1       0.342   4.145  -7.084  0.00  0.00    +0.000 A 
ATOM      5  C   UNL     1       1.119   5.295  -6.921  0.00  0.00    +0.000 A 
ATOM      6  F   UNL     1       1.464   5.703  -5.691  0.00  0.00    +0.000 F 
ATOM      7  C   UNL     1       1.536   6.057  -8.012  0.00  0.00    +0.000 A 
ENDROOT
BRANCH   4   8
ATOM      8  C   UNL     1      -0.171   3.395  -5.869  0.00  0.00    +0.000 C 
ATOM      9  C   UNL     1       0.248   1.922  -5.863  0.00  0.00    +0.000 C 
BRANCH   8  10
ATOM     10  N   UNL     1      -1.617   3.499  -5.847  0.00  0.00    +0.000 N 
ATOM     11  C   UNL     1      -2.370   3.547  -4.707  0.00  0.00    +0.000 C 
ATOM     12  O   UNL     1      -1.887   3.617  -3.584  0.00  0.00    +0.000 OA
ATOM     13  H   UNL     1      -2.079   3.277  -6.719  0.00  0.00    +0.000 HD
BRANCH  11  14
ATOM     14  C   UNL     1      -3.821   3.571  -4.932  0.00  0.00    +0.000 A 
ATOM     15  C   UNL     1      -4.662   4.190  -4.022  0.00  0.00    +0.000 A 
ATOM     16  S   UNL     1      -6.306   4.142  -4.475  0.00  0.00    +0.000 S 
ATOM     17  C   UNL     1      -5.953   3.241  -5.875  0.00  0.00    +0.000 A 
ATOM     18  N   UNL     1      -6.942   2.827  -6.714  0.00  0.00    +0.000 NA
ATOM     19  C   UNL     1      -6.535   2.119  -7.713  0.00  0.00    +0.000 A 
ATOM     20  N   UNL     1      -5.224   1.798  -7.961  0.00  0.00    +0.000 N 
ATOM     21  C   UNL     1      -4.188   2.249  -7.182  0.00  0.00    +0.000 A 
ATOM     22  O   UNL     1      -3.022   2.044  -7.503  0.00  0.00    +0.000 OA
ATOM     23  C   UNL     1      -4.597   3.011  -6.015  0.00  0.00    +0.000 A 
ATOM     24  H   UNL     1      -4.967   1.267  -8.780  0.00  0.00    +0.000 HD
ENDBRANCH  11  14
ENDBRANCH   8  10
ENDBRANCH   4   8
BRANCH   1  25
ATOM     25  C   UNL     1       1.595   6.521 -10.493  0.00  0.00    +0.000 C 
BRANCH  25  28
ATOM     26  C   UNL     1       0.742   8.406 -11.827  0.00  0.00    +0.000 C 
ATOM     27  O   UNL     1       1.715   8.380 -12.572  0.00  0.00    +0.000 OA
ATOM     28  N   UNL     1       0.621   7.547 -10.761  0.00  0.00    +0.000 N 
ATOM     29  H   UNL     1      -0.202   7.621 -10.171  0.00  0.00    +0.000 HD
BRANCH  26  35
ATOM     30  C   UNL     1      -1.545   9.483 -11.277  0.00  0.00    +0.000 A 
ATOM     31  C   UNL     1      -2.559  10.371 -11.669  0.00  0.00    +0.000 A 
ATOM     32  C   UNL     1      -2.426  11.154 -12.818  0.00  0.00    +0.000 A 
ATOM     33  C   UNL     1      -1.273  11.069 -13.588  0.00  0.00    +0.000 A 
ATOM     34  C   UNL     1      -0.261  10.183 -13.220  0.00  0.00    +0.000 A 
ATOM     35  C   UNL     1      -0.386   9.370 -12.076  0.00  0.00    +0.000 A 
BRANCH  30  37
ATOM     36  C   UNL     1      -2.738   8.911  -9.279  0.00  0.00    +0.000 C 
ATOM     37  O   UNL     1      -1.628   8.706 -10.148  0.00  0.00    +0.000 OA
ENDBRANCH  30  37
ENDBRANCH  26  35
ENDBRANCH  25  28
ENDBRANCH   1  25
TORSDOF 7
