REMARK  Name = 
REMARK  4 active torsions:
REMARK  status: ('A' for Active; 'I' for Inactive)
REMARK    1  A    between atoms: N_1  and  C_2
REMARK    2  A    between atoms: C_2  and  C_3
REMARK    3  A    between atoms: C_7  and  C_8
REMARK    4  A    between atoms: C_8  and  N_9
REMARK                            x       y       z     vdW  Elec       q    Type
REMARK                         _______ _______ _______ _____ _____    ______ ____
ROOT
ATOM      1  C   UNL     1       2.065  -2.316  -1.977  0.00  0.00    +0.000 A 
ATOM      2  C   UNL     1       2.489  -1.383  -1.037  0.00  0.00    +0.000 A 
ATOM      3  N   UNL     1       3.621  -0.652  -1.136  0.00  0.00    +0.000 NA
ATOM      4  C   UNL     1       4.381  -0.855  -2.237  0.00  0.00    +0.000 A 
ATOM      5  C   UNL     1       4.078  -1.768  -3.240  0.00  0.00    +0.000 A 
ATOM      6  C   UNL     1       2.878  -2.487  -3.110  0.00  0.00    +0.000 A 
ENDROOT
BRANCH   1   7
ATOM      7  C   UNL     1       0.752  -3.024  -1.781  0.00  0.00    +0.000 C 
BRANCH   7   8
ATOM      8  N   UNL     1       0.732  -4.381  -2.325  0.00  0.00    +0.000 NA
ATOM      9  H   UNL     1      -0.176  -4.801  -2.136  0.00  0.00    +0.000 HD
ATOM     10  H   UNL     1       1.414  -4.947  -1.819  0.00  0.00    +0.000 HD
ENDBRANCH   7   8
ENDBRANCH   1   7
BRANCH   5  11
ATOM     11  C   UNL     1       5.042  -2.000  -4.368  0.00  0.00    +0.000 C 
BRANCH  11  12
ATOM     12  N   UNL     1       4.810  -1.151  -5.525  0.00  0.00    +0.000 N 
ATOM     13  C   UNL     1       4.083  -1.525  -6.634  0.00  0.00    +0.000 A 
ATOM     14  C   UNL     1       4.155  -0.502  -7.557  0.00  0.00    +0.000 A 
ATOM     15  C   UNL     1       5.092   0.441  -7.067  0.00  0.00    +0.000 A 
ATOM     16  C   UNL     1       5.715   1.586  -7.594  0.00  0.00    +0.000 A 
ATOM     17  C   UNL     1       6.651   2.239  -6.792  0.00  0.00    +0.000 A 
ATOM     18  C   UNL     1       6.886   1.757  -5.510  0.00  0.00    +0.000 A 
ATOM     19  N   UNL     1       6.319   0.663  -4.953  0.00  0.00    +0.000 NA
ATOM     20  C   UNL     1       5.453   0.038  -5.782  0.00  0.00    +0.000 A 
ENDBRANCH  11  12
ENDBRANCH   5  11
TORSDOF 4
