REMARK  Name = 
REMARK  8 active torsions:
REMARK  status: ('A' for Active; 'I' for Inactive)
REMARK    1  A    between atoms: N_1  and  C_2
REMARK    2  A    between atoms: C_2  and  C_3
REMARK    3  A    between atoms: C_2  and  C_18
REMARK    4  A    between atoms: C_3  and  C_4
REMARK    5  A    between atoms: C_7  and  C_8
REMARK    6  A    between atoms: C_8  and  O_9
REMARK    7  A    between atoms: O_9  and  C_10
REMARK    8  A    between atoms: C_18  and  C_20
REMARK                            x       y       z     vdW  Elec       q    Type
REMARK                         _______ _______ _______ _____ _____    ______ ____
ROOT
ATOM      1  C   UNL     1       1.717   0.029  -0.860  0.00  0.00    +0.000 C 
ENDROOT
BRANCH   1   2
ATOM      2  N   UNL     1       0.767  -0.389  -1.920  0.00  0.00    +0.000 NA
ATOM      3  H   UNL     1       0.406  -1.315  -1.678  0.00  0.00    +0.000 HD
ATOM      4  H   UNL     1       1.285  -0.523  -2.791  0.00  0.00    +0.000 HD
ENDBRANCH   1   2
BRANCH   1   5
ATOM      5  C   UNL     1       2.440   1.322  -1.322  0.00  0.00    +0.000 C 
ATOM      6  O   UNL     1       3.498   1.224  -1.954  0.00  0.00    +0.000 OA
BRANCH   5   7
ATOM      7  C   UNL     1       1.829   2.655  -1.185  0.00  0.00    +0.000 A 
ATOM      8  C   UNL     1       2.133   3.637  -2.120  0.00  0.00    +0.000 A 
ATOM      9  S   UNL     1       1.273   5.090  -1.891  0.00  0.00    +0.000 S 
ATOM     10  C   UNL     1       0.490   4.465  -0.517  0.00  0.00    +0.000 A 
ATOM     11  N   UNL     1      -0.439   5.200   0.149  0.00  0.00    +0.000 NA
ATOM     12  C   UNL     1      -0.961   4.598   1.162  0.00  0.00    +0.000 A 
ATOM     13  N   UNL     1      -0.615   3.340   1.591  0.00  0.00    +0.000 N 
ATOM     14  C   UNL     1       0.437   2.641   1.047  0.00  0.00    +0.000 A 
ATOM     15  O   UNL     1       0.940   1.689   1.633  0.00  0.00    +0.000 OA
ATOM     16  C   UNL     1       0.933   3.193  -0.197  0.00  0.00    +0.000 A 
ATOM     17  H   UNL     1      -0.996   2.972   2.450  0.00  0.00    +0.000 HD
ENDBRANCH   5   7
ENDBRANCH   1   5
BRANCH   1  18
ATOM     18  C   UNL     1       2.808  -1.028  -0.570  0.00  0.00    +0.000 C 
BRANCH  18  19
ATOM     19  C   UNL     1       2.372  -2.390  -0.082  0.00  0.00    +0.000 A 
ATOM     20  C   UNL     1       2.657  -3.522  -0.860  0.00  0.00    +0.000 A 
ATOM     21  C   UNL     1       2.401  -4.807  -0.377  0.00  0.00    +0.000 A 
ATOM     22  C   UNL     1       1.839  -4.988   0.891  0.00  0.00    +0.000 A 
ATOM     23  C   UNL     1       1.546  -3.857   1.668  0.00  0.00    +0.000 A 
ATOM     24  C   UNL     1       1.803  -2.568   1.184  0.00  0.00    +0.000 A 
BRANCH  22  25
ATOM     25  C   UNL     1       1.541  -6.378   1.403  0.00  0.00    +0.000 C 
BRANCH  25  26
ATOM     26  O   UNL     1       2.670  -6.912   2.099  0.00  0.00    +0.000 OA
BRANCH  26  27
ATOM     27  C   UNL     1       2.396  -8.162   2.625  0.00  0.00    +0.000 A 
ATOM     28  C   UNL     1       3.421  -8.804   3.307  0.00  0.00    +0.000 A 
ATOM     29  C   UNL     1       3.159 -10.058   3.857  0.00  0.00    +0.000 A 
ATOM     30  C   UNL     1       1.896 -10.623   3.709  0.00  0.00    +0.000 A 
ATOM     31  C   UNL     1       0.937  -9.906   3.010  0.00  0.00    +0.000 A 
ATOM     32  N   UNL     1       1.161  -8.692   2.465  0.00  0.00    +0.000 NA
ENDBRANCH  26  27
ENDBRANCH  25  26
ENDBRANCH  22  25
ENDBRANCH  18  19
ENDBRANCH   1  18
TORSDOF 8
