REMARK  Name = 
REMARK  9 active torsions:
REMARK  status: ('A' for Active; 'I' for Inactive)
REMARK    1  A    between atoms: C_1  and  O_2
REMARK    2  A    between atoms: O_2  and  C_3
REMARK    3  A    between atoms: C_10  and  C_11
REMARK    4  A    between atoms: N_13  and  C_14
REMARK    5  A    between atoms: C_14  and  C_15
REMARK    6  A    between atoms: C_18  and  C_19
REMARK    7  A    between atoms: C_19  and  N_20
REMARK    8  A    between atoms: N_20  and  C_21
REMARK    9  A    between atoms: C_21  and  C_22
REMARK                            x       y       z     vdW  Elec       q    Type
REMARK                         _______ _______ _______ _____ _____    ______ ____
ROOT
ATOM      1  C   UNL     1       3.112  -2.617   2.238  0.00  0.00    +0.000 C 
ENDROOT
BRANCH   1   2
ATOM      2  C   UNL     1       2.068  -1.838   3.004  0.00  0.00    +0.000 A 
ATOM      3  C   UNL     1       0.991  -2.496   3.613  0.00  0.00    +0.000 A 
ATOM      4  C   UNL     1       0.015  -1.776   4.316  0.00  0.00    +0.000 A 
ATOM      5  C   UNL     1       0.087  -0.379   4.420  0.00  0.00    +0.000 A 
ATOM      6  C   UNL     1       1.153   0.279   3.792  0.00  0.00    +0.000 A 
ATOM      7  C   UNL     1       2.130  -0.440   3.090  0.00  0.00    +0.000 A 
BRANCH   5   8
ATOM      8  C   UNL     1      -0.971   0.404   5.175  0.00  0.00    +0.000 C 
BRANCH   8   9
ATOM      9  N   UNL     1      -1.031   0.001   6.579  0.00  0.00    +0.000 NA
ATOM     10  H   UNL     1      -0.117   0.168   7.006  0.00  0.00    +0.000 HD
BRANCH   9  11
ATOM     11  C   UNL     1      -2.021   0.779   7.333  0.00  0.00    +0.000 C 
BRANCH  11  12
ATOM     12  C   UNL     1      -2.054   0.356   8.786  0.00  0.00    +0.000 A 
ATOM     13  C   UNL     1      -2.875  -0.692   9.198  0.00  0.00    +0.000 A 
ATOM     14  N   UNL     1      -2.912  -1.144  10.475  0.00  0.00    +0.000 NA
ATOM     15  C   UNL     1      -2.074  -0.519  11.330  0.00  0.00    +0.000 A 
ATOM     16  C   UNL     1      -1.246   0.517  10.932  0.00  0.00    +0.000 A 
ATOM     17  N   UNL     1      -1.216   0.978   9.658  0.00  0.00    +0.000 NA
ENDBRANCH  11  12
ENDBRANCH   9  11
ENDBRANCH   8   9
ENDBRANCH   5   8
ENDBRANCH   1   2
BRANCH   1  20
ATOM     18  C   UNL     1       3.501  -3.456  -0.053  0.00  0.00    +0.000 C 
ATOM     19  O   UNL     1       4.560  -3.983   0.272  0.00  0.00    +0.000 OA
ATOM     20  N   UNL     1       2.736  -2.776   0.855  0.00  0.00    +0.000 N 
ATOM     21  H   UNL     1       1.871  -2.345   0.563  0.00  0.00    +0.000 HD
BRANCH  18  29
ATOM     22  C   UNL     1       0.654  -2.293  -1.591  0.00  0.00    +0.000 A 
ATOM     23  N   UNL     1      -0.335  -1.926  -2.430  0.00  0.00    +0.000 NA
ATOM     24  C   UNL     1      -0.224  -2.268  -3.716  0.00  0.00    +0.000 A 
ATOM     25  N   UNL     1       0.767  -2.952  -4.282  0.00  0.00    +0.000 NA
ATOM     26  C   UNL     1       1.734  -3.292  -3.411  0.00  0.00    +0.000 A 
ATOM     27  S   UNL     1       3.080  -4.173  -3.953  0.00  0.00    +0.000 S 
ATOM     28  C   UNL     1       3.764  -4.183  -2.397  0.00  0.00    +0.000 A 
ATOM     29  C   UNL     1       3.001  -3.523  -1.440  0.00  0.00    +0.000 A 
ATOM     30  C   UNL     1       1.779  -3.001  -2.052  0.00  0.00    +0.000 A 
BRANCH  22  32
ATOM     31  C   UNL     1      -0.800  -1.728   0.151  0.00  0.00    +0.000 C 
ATOM     32  O   UNL     1       0.548  -1.914  -0.271  0.00  0.00    +0.000 OA
ENDBRANCH  22  32
ENDBRANCH  18  29
ENDBRANCH   1  20
TORSDOF 8
