REMARK  Name = 
REMARK  9 active torsions:
REMARK  status: ('A' for Active; 'I' for Inactive)
REMARK    1  A    between atoms: C_1  and  C_2
REMARK    2  A    between atoms: C_2  and  C_3
REMARK    3  A    between atoms: C_2  and  C_27
REMARK    4  A    between atoms: C_3  and  N_4
REMARK    5  A    between atoms: N_4  and  C_5
REMARK    6  A    between atoms: C_5  and  C_6
REMARK    7  A    between atoms: C_8  and  C_9
REMARK    8  A    between atoms: C_9  and  N_10
REMARK    9  A    between atoms: C_11  and  C_13
REMARK                            x       y       z     vdW  Elec       q    Type
REMARK                         _______ _______ _______ _____ _____    ______ ____
ROOT
ATOM      1  C   UNL     1      -1.704  -1.508  -2.470  0.00  0.00    +0.000 A 
ATOM      2  C   UNL     1      -0.815  -1.940  -3.476  0.00  0.00    +0.000 A 
ATOM      3  C   UNL     1      -1.298  -2.557  -4.636  0.00  0.00    +0.000 A 
ATOM      4  C   UNL     1      -2.669  -2.759  -4.730  0.00  0.00    +0.000 A 
ATOM      5  N   UNL     1      -3.554  -2.342  -3.804  0.00  0.00    +0.000 NA
ATOM      6  C   UNL     1      -3.063  -1.707  -2.717  0.00  0.00    +0.000 A 
ATOM      7 CL   UNL     1      -4.332  -1.142  -1.700  0.00  0.00    +0.000 Cl
ENDROOT
BRANCH   1   8
ATOM      8  C   UNL     1      -1.152  -0.805  -1.256  0.00  0.00    +0.000 C 
BRANCH   8   9
ATOM      9  N   UNL     1      -1.779  -1.145   0.019  0.00  0.00    +0.000 NA
ATOM     10  H   UNL     1      -1.407  -0.557   0.762  0.00  0.00    +0.000 HD
BRANCH   9  11
ATOM     11  C   UNL     1      -1.695  -2.560   0.410  0.00  0.00    +0.000 C 
BRANCH  11  13
ATOM     12  C   UNL     1       0.473  -2.295   1.711  0.00  0.00    +0.000 C 
ATOM     13  C   UNL     1      -0.268  -3.094   0.634  0.00  0.00    +0.000 C 
BRANCH  13  14
ATOM     14  C   UNL     1      -0.305  -4.567   0.995  0.00  0.00    +0.000 A 
ATOM     15  C   UNL     1       0.308  -5.506   0.166  0.00  0.00    +0.000 A 
ATOM     16  C   UNL     1       0.306  -6.845   0.547  0.00  0.00    +0.000 A 
ATOM     17  C   UNL     1      -0.316  -7.214   1.732  0.00  0.00    +0.000 A 
ATOM     18  C   UNL     1      -0.920  -6.225   2.488  0.00  0.00    +0.000 A 
ATOM     19  N   UNL     1      -0.927  -4.918   2.147  0.00  0.00    +0.000 NA
ENDBRANCH  13  14
ENDBRANCH  11  13
ENDBRANCH   9  11
ENDBRANCH   8   9
ENDBRANCH   1   8
BRANCH   3  20
ATOM     20  C   UNL     1      -0.399  -3.003  -5.750  0.00  0.00    +0.000 C 
BRANCH  20  21
ATOM     21  N   UNL     1       0.060  -4.353  -5.554  0.00  0.00    +0.000 N 
ATOM     22  C   UNL     1       0.929  -4.931  -6.447  0.00  0.00    +0.000 C 
ATOM     23  O   UNL     1       1.400  -4.303  -7.389  0.00  0.00    +0.000 OA
ATOM     24  H   UNL     1      -0.497  -4.954  -4.955  0.00  0.00    +0.000 HD
BRANCH  22  25
ATOM     25  C   UNL     1       1.316  -6.324  -6.180  0.00  0.00    +0.000 A 
ATOM     26  C   UNL     1       2.497  -6.818  -6.717  0.00  0.00    +0.000 A 
ATOM     27  S   UNL     1       2.829  -8.430  -6.271  0.00  0.00    +0.000 S 
ATOM     28  C   UNL     1       1.380  -8.542  -5.387  0.00  0.00    +0.000 A 
ATOM     29  N   UNL     1       1.032  -9.696  -4.756  0.00  0.00    +0.000 NA
ATOM     30  C   UNL     1      -0.112  -9.654  -4.158  0.00  0.00    +0.000 A 
ATOM     31  N   UNL     1      -0.935  -8.558  -4.124  0.00  0.00    +0.000 N 
ATOM     32  C   UNL     1      -0.608  -7.360  -4.717  0.00  0.00    +0.000 A 
ATOM     33  O   UNL     1      -1.340  -6.380  -4.624  0.00  0.00    +0.000 OA
ATOM     34  C   UNL     1       0.660  -7.361  -5.419  0.00  0.00    +0.000 A 
ATOM     35  H   UNL     1      -1.815  -8.588  -3.631  0.00  0.00    +0.000 HD
ENDBRANCH  22  25
ENDBRANCH  20  21
ENDBRANCH   3  20
TORSDOF 8
