REMARK  Name = 
REMARK  6 active torsions:
REMARK  status: ('A' for Active; 'I' for Inactive)
REMARK    1  A    between atoms: C_1  and  C_2
REMARK    2  A    between atoms: C_4  and  O_5
REMARK    3  A    between atoms: O_5  and  C_6
REMARK    4  A    between atoms: C_6  and  C_7
REMARK    5  A    between atoms: C_11  and  C_12
REMARK    6  A    between atoms: C_21  and  C_22
REMARK                            x       y       z     vdW  Elec       q    Type
REMARK                         _______ _______ _______ _____ _____    ______ ____
ROOT
ATOM      1  O   UNL     1      -1.662   2.187  -0.251  0.00  0.00    +0.000 OA
ENDROOT
BRANCH   1   5
ATOM      2  C   UNL     1      -5.648   4.337  -2.304  0.00  0.00    +0.000 C 
ATOM      3  C   UNL     1      -4.877   3.094  -1.947  0.00  0.00    +0.000 A 
ATOM      4  C   UNL     1      -3.677   3.242  -1.212  0.00  0.00    +0.000 A 
ATOM      5  C   UNL     1      -2.874   2.141  -0.896  0.00  0.00    +0.000 A 
ATOM      6  C   UNL     1      -3.307   0.870  -1.271  0.00  0.00    +0.000 A 
ATOM      7  C   UNL     1      -4.502   0.702  -1.988  0.00  0.00    +0.000 A 
ATOM      8  C   UNL     1      -5.287   1.809  -2.347  0.00  0.00    +0.000 A 
BRANCH   8   9
ATOM      9  C   UNL     1      -6.513   1.612  -3.186  0.00  0.00    +0.000 C 
ATOM     10  N   UNL     1      -7.189   0.429  -3.039  0.00  0.00    +0.000 N 
ATOM     11  O   UNL     1      -6.923   2.454  -3.972  0.00  0.00    +0.000 OA
ATOM     12  H   UNL     1      -7.015  -0.208  -2.286  0.00  0.00    +0.000 HD
ATOM     13  H   UNL     1      -8.058   0.346  -3.557  0.00  0.00    +0.000 HD
ENDBRANCH   8   9
ENDBRANCH   1   5
BRANCH   1  14
ATOM     14  C   UNL     1      -1.109   3.491  -0.047  0.00  0.00    +0.000 C 
BRANCH  14  15
ATOM     15  C   UNL     1       0.263   3.476   0.599  0.00  0.00    +0.000 A 
ATOM     16  C   UNL     1       0.763   4.685   1.105  0.00  0.00    +0.000 A 
ATOM     17  C   UNL     1       1.973   4.719   1.787  0.00  0.00    +0.000 A 
ATOM     18  C   UNL     1       2.726   3.553   1.926  0.00  0.00    +0.000 A 
ATOM     19  C   UNL     1       2.329   2.342   1.327  0.00  0.00    +0.000 A 
ATOM     20  C   UNL     1       1.069   2.326   0.685  0.00  0.00    +0.000 A 
BRANCH  19  21
ATOM     21  C   UNL     1       3.238   1.168   1.316  0.00  0.00    +0.000 A 
ATOM     22  C   UNL     1       4.637   1.315   1.350  0.00  0.00    +0.000 A 
ATOM     23  C   UNL     1       5.483   0.211   1.246  0.00  0.00    +0.000 A 
ATOM     24  C   UNL     1       4.912  -1.038   1.108  0.00  0.00    +0.000 A 
ATOM     25  N   UNL     1       3.582  -1.247   1.097  0.00  0.00    +0.000 NA
ATOM     26  C   UNL     1       2.787  -0.150   1.205  0.00  0.00    +0.000 A 
ENDBRANCH  19  21
ENDBRANCH  14  15
ENDBRANCH   1  14
TORSDOF 5
