REMARK  Name = 
REMARK  6 active torsions:
REMARK  status: ('A' for Active; 'I' for Inactive)
REMARK    1  A    between atoms: C_2  and  C_4
REMARK    2  A    between atoms: C_7  and  O_8
REMARK    3  A    between atoms: O_8  and  C_9
REMARK    4  A    between atoms: C_9  and  C_10
REMARK    5  A    between atoms: C_10  and  O_11
REMARK    6  A    between atoms: C_10  and  C_12
REMARK                            x       y       z     vdW  Elec       q    Type
REMARK                         _______ _______ _______ _____ _____    ______ ____
ROOT
ATOM      1  C   UNL     1       2.891  -1.577   0.259  0.00  0.00    +0.000 A 
ATOM      2  C   UNL     1       4.218  -1.212   0.500  0.00  0.00    +0.000 A 
ATOM      3  C   UNL     1       5.157  -2.207   0.784  0.00  0.00    +0.000 A 
ATOM      4  C   UNL     1       4.737  -3.528   0.789  0.00  0.00    +0.000 A 
ATOM      5  N   UNL     1       3.458  -3.907   0.577  0.00  0.00    +0.000 NA
ATOM      6  C   UNL     1       2.560  -2.922   0.333  0.00  0.00    +0.000 A 
ENDROOT
BRANCH   1   8
ATOM      7  N   UNL     1       2.189   0.569  -0.641  0.00  0.00    +0.000 N 
ATOM      8  C   UNL     1       1.821  -0.608  -0.056  0.00  0.00    +0.000 C 
ATOM      9  O   UNL     1       0.646  -0.868   0.154  0.00  0.00    +0.000 OA
ATOM     10  H   UNL     1       1.433   1.166  -0.953  0.00  0.00    +0.000 HD
ATOM     11  H   UNL     1       3.098   0.715  -1.058  0.00  0.00    +0.000 HD
ENDBRANCH   1   8
BRANCH   4  12
ATOM     12  O   UNL     1       5.695  -4.488   1.050  0.00  0.00    +0.000 OA
BRANCH  12  13
ATOM     13  C   UNL     1       5.259  -5.798   0.652  0.00  0.00    +0.000 C 
BRANCH  13  14
ATOM     14  C   UNL     1       6.280  -6.859   1.095  0.00  0.00    +0.000 C 
BRANCH  14  15
ATOM     15  C   UNL     1       6.019  -8.245   0.534  0.00  0.00    +0.000 A 
ATOM     16  C   UNL     1       7.104  -9.109   0.314  0.00  0.00    +0.000 A 
ATOM     17  C   UNL     1       6.904 -10.405  -0.171  0.00  0.00    +0.000 A 
ATOM     18  C   UNL     1       5.616 -10.859  -0.436  0.00  0.00    +0.000 A 
ATOM     19  C   UNL     1       4.527 -10.021  -0.215  0.00  0.00    +0.000 A 
ATOM     20  C   UNL     1       4.725  -8.726   0.270  0.00  0.00    +0.000 A 
ENDBRANCH  14  15
BRANCH  14  21
ATOM     21  O   UNL     1       6.286  -6.963   2.524  0.00  0.00    +0.000 OA
ATOM     22  H   UNL     1       5.441  -7.369   2.783  0.00  0.00    +0.000 HD
ENDBRANCH  14  21
ENDBRANCH  13  14
ENDBRANCH  12  13
ENDBRANCH   4  12
TORSDOF 6
