REMARK  Name = 
REMARK  4 active torsions:
REMARK  status: ('A' for Active; 'I' for Inactive)
REMARK    1  A    between atoms: N_1  and  C_2
REMARK    2  A    between atoms: C_2  and  C_3
REMARK    3  A    between atoms: C_6  and  C_7
REMARK    4  A    between atoms: C_7  and  C_8
REMARK                            x       y       z     vdW  Elec       q    Type
REMARK                         _______ _______ _______ _____ _____    ______ ____
ROOT
ATOM      1  C   UNL     1       0.581  -3.453   2.783  0.00  0.00    +0.000 C 
ENDROOT
BRANCH   1   2
ATOM      2  C   UNL     1       0.273  -4.871   2.410  0.00  0.00    +0.000 A 
ATOM      3  C   UNL     1       0.187  -5.379   1.128  0.00  0.00    +0.000 A 
ATOM      4  N   UNL     1      -0.172  -6.696   1.207  0.00  0.00    +0.000 N 
ATOM      5  C   UNL     1      -0.320  -7.068   2.523  0.00  0.00    +0.000 A 
ATOM      6  C   UNL     1      -0.690  -8.301   3.073  0.00  0.00    +0.000 A 
ATOM      7  C   UNL     1      -0.752  -8.392   4.467  0.00  0.00    +0.000 A 
ATOM      8  C   UNL     1      -0.456  -7.291   5.266  0.00  0.00    +0.000 A 
ATOM      9 CL   UNL     1      -0.532  -7.441   6.982  0.00  0.00    +0.000 Cl
ATOM     10  C   UNL     1      -0.098  -6.063   4.704  0.00  0.00    +0.000 A 
ATOM     11  C   UNL     1      -0.029  -5.947   3.301  0.00  0.00    +0.000 A 
ATOM     12  H   UNL     1      -0.315  -7.309   0.417  0.00  0.00    +0.000 HD
ENDBRANCH   1   2
BRANCH   1  16
ATOM     13  C   UNL     1       2.799  -0.994   1.099  0.00  0.00    +0.000 C 
ATOM     14  C   UNL     1       2.701  -2.478   0.699  0.00  0.00    +0.000 C 
ATOM     15  C   UNL     1       2.991  -3.426   1.860  0.00  0.00    +0.000 C 
ATOM     16  C   UNL     1       2.072  -3.164   3.063  0.00  0.00    +0.000 C 
ATOM     17  C   UNL     1       2.261  -1.704   3.515  0.00  0.00    +0.000 C 
ATOM     18  C   UNL     1       2.006  -0.699   2.387  0.00  0.00    +0.000 C 
BRANCH  13  19
ATOM     19  C   UNL     1       4.258  -0.509   1.229  0.00  0.00    +0.000 C 
BRANCH  19  20
ATOM     20  N   UNL     1       4.980  -0.657  -0.030  0.00  0.00    +0.000 NA
ATOM     21  H   UNL     1       5.876  -0.173   0.031  0.00  0.00    +0.000 HD
ATOM     22  H   UNL     1       4.462  -0.210  -0.782  0.00  0.00    +0.000 HD
ENDBRANCH  19  20
ENDBRANCH  13  19
ENDBRANCH   1  16
TORSDOF 4
