REMARK  Name = 
REMARK  4 active torsions:
REMARK  status: ('A' for Active; 'I' for Inactive)
REMARK    1  A    between atoms: C_5  and  N_6
REMARK    2  A    between atoms: N_6  and  C_7
REMARK    3  A    between atoms: C_7  and  C_8
REMARK    4  A    between atoms: C_12  and  C_13
REMARK                            x       y       z     vdW  Elec       q    Type
REMARK                         _______ _______ _______ _____ _____    ______ ____
ROOT
ATOM      1  C   UNL     1       3.512  -3.841  -0.060  0.00  0.00    +0.000 A 
ATOM      2  C   UNL     1       4.884  -4.041  -0.185  0.00  0.00    +0.000 A 
ATOM      3  C   UNL     1       5.369  -5.344  -0.223  0.00  0.00    +0.000 A 
ATOM      4  C   UNL     1       4.479  -6.409  -0.145  0.00  0.00    +0.000 A 
ATOM      5  C   UNL     1       3.118  -6.142  -0.031  0.00  0.00    +0.000 A 
ATOM      6  N   UNL     1       2.634  -4.876   0.010  0.00  0.00    +0.000 NA
ENDROOT
BRANCH   5   7
ATOM      7  C   UNL     1       2.118  -7.271   0.082  0.00  0.00    +0.000 C 
ATOM      8  C   UNL     1       1.117  -7.267  -1.082  0.00  0.00    +0.000 C 
ATOM      9  C   UNL     1       0.027  -8.313  -0.860  0.00  0.00    +0.000 C 
ATOM     10  C   UNL     1      -0.592  -8.159   0.523  0.00  0.00    +0.000 C 
ATOM     11  O   UNL     1       0.416  -8.260   1.530  0.00  0.00    +0.000 OA
ATOM     12  C   UNL     1       1.377  -7.204   1.423  0.00  0.00    +0.000 C 
ENDBRANCH   5   7
BRANCH   1  13
ATOM     13  C   UNL     1       2.948  -2.434   0.004  0.00  0.00    +0.000 C 
BRANCH  13  14
ATOM     14  N   UNL     1       2.644  -1.916  -1.325  0.00  0.00    +0.000 N 
ATOM     15  H   UNL     1       3.166  -2.334  -2.088  0.00  0.00    +0.000 HD
BRANCH  14  20
ATOM     16  C   UNL     1       1.279   1.498  -0.757  0.00  0.00    +0.000 A 
ATOM     17  C   UNL     1       1.132   1.880  -2.077  0.00  0.00    +0.000 A 
ATOM     18  N   UNL     1       1.474   1.097  -3.118  0.00  0.00    +0.000 NA
ATOM     19  C   UNL     1       1.980  -0.126  -2.812  0.00  0.00    +0.000 A 
ATOM     20  C   UNL     1       2.198  -0.616  -1.522  0.00  0.00    +0.000 A 
ATOM     21  C   UNL     1       1.808   0.235  -0.484  0.00  0.00    +0.000 A 
ENDBRANCH  14  20
ENDBRANCH  13  14
ENDBRANCH   1  13
TORSDOF 4
