REMARK  Name = 
REMARK  3 active torsions:
REMARK  status: ('A' for Active; 'I' for Inactive)
REMARK    1  A    between atoms: C_2  and  C_4
REMARK    2  A    between atoms: C_7  and  C_8
REMARK    3  A    between atoms: C_8  and  N_9
REMARK                            x       y       z     vdW  Elec       q    Type
REMARK                         _______ _______ _______ _____ _____    ______ ____
ROOT
ATOM      1  C   UNL     1       2.798  -1.337   1.037  0.00  0.00    +0.000 A 
ATOM      2  C   UNL     1       3.906  -1.650   0.251  0.00  0.00    +0.000 A 
ATOM      3  C   UNL     1       4.894  -2.496   0.765  0.00  0.00    +0.000 A 
ATOM      4  C   UNL     1       4.746  -3.005   2.058  0.00  0.00    +0.000 A 
ATOM      5  N   UNL     1       3.660  -2.731   2.821  0.00  0.00    +0.000 NA
ATOM      6  C   UNL     1       2.722  -1.901   2.303  0.00  0.00    +0.000 A 
ENDROOT
BRANCH   1   8
ATOM      7  N   UNL     1       1.529  -0.226  -0.717  0.00  0.00    +0.000 N 
ATOM      8  C   UNL     1       1.733  -0.407   0.621  0.00  0.00    +0.000 C 
ATOM      9  O   UNL     1       1.033   0.174   1.443  0.00  0.00    +0.000 OA
ATOM     10  H   UNL     1       0.724   0.336  -0.976  0.00  0.00    +0.000 HD
ATOM     11  H   UNL     1       1.894  -0.855  -1.418  0.00  0.00    +0.000 HD
ENDBRANCH   1   8
BRANCH   4  12
ATOM     12  C   UNL     1       5.829  -3.828   2.703  0.00  0.00    +0.000 C 
BRANCH  12  13
ATOM     13  N   UNL     1       5.800  -5.248   2.396  0.00  0.00    +0.000 N 
ATOM     14  C   UNL     1       4.805  -5.979   1.807  0.00  0.00    +0.000 A 
ATOM     15  N   UNL     1       5.198  -7.202   1.528  0.00  0.00    +0.000 NA
ATOM     16  C   UNL     1       6.474  -7.287   2.015  0.00  0.00    +0.000 A 
ATOM     17  N   UNL     1       7.280  -8.368   1.926  0.00  0.00    +0.000 NA
ATOM     18  C   UNL     1       8.493  -8.205   2.498  0.00  0.00    +0.000 A 
ATOM     19  C   UNL     1       8.932  -7.067   3.165  0.00  0.00    +0.000 A 
ATOM     20  C   UNL     1       8.098  -5.958   3.249  0.00  0.00    +0.000 A 
ATOM     21  C   UNL     1       6.858  -6.098   2.622  0.00  0.00    +0.000 A 
ENDBRANCH  12  13
ENDBRANCH   4  12
TORSDOF 3
