REMARK  Name = 
REMARK  4 active torsions:
REMARK  status: ('A' for Active; 'I' for Inactive)
REMARK    1  A    between atoms: C_2  and  C_4
REMARK    2  A    between atoms: C_7  and  C_8
REMARK    3  A    between atoms: C_8  and  C_9
REMARK    4  A    between atoms: C_9  and  C_10
REMARK                            x       y       z     vdW  Elec       q    Type
REMARK                         _______ _______ _______ _____ _____    ______ ____
ROOT
ATOM      1  C   UNL     1       3.359  -0.568  -0.727  0.00  0.00    +0.000 A 
ATOM      2  C   UNL     1       2.582  -1.263  -1.654  0.00  0.00    +0.000 A 
ATOM      3  C   UNL     1       3.195  -2.039  -2.647  0.00  0.00    +0.000 A 
ATOM      4  C   UNL     1       4.591  -2.100  -2.755  0.00  0.00    +0.000 A 
ATOM      5  C   UNL     1       5.360  -1.358  -1.840  0.00  0.00    +0.000 A 
ATOM      6  C   UNL     1       4.750  -0.593  -0.838  0.00  0.00    +0.000 A 
ENDROOT
BRANCH   1   8
ATOM      7  N   UNL     1       1.540  -0.278   0.859  0.00  0.00    +0.000 N 
ATOM      8  C   UNL     1       2.743   0.179   0.404  0.00  0.00    +0.000 C 
ATOM      9  O   UNL     1       3.309   1.118   0.944  0.00  0.00    +0.000 OA
ATOM     10  H   UNL     1       1.187   0.151   1.710  0.00  0.00    +0.000 HD
ATOM     11  H   UNL     1       1.183  -1.195   0.619  0.00  0.00    +0.000 HD
ENDBRANCH   1   8
BRANCH   4  12
ATOM     12  C   UNL     1       5.305  -3.029  -3.723  0.00  0.00    +0.000 C 
BRANCH  12  13
ATOM     13  C   UNL     1       4.631  -3.224  -5.077  0.00  0.00    +0.000 C 
ATOM     14  C   UNL     1       3.606  -4.348  -5.196  0.00  0.00    +0.000 C 
ATOM     15  C   UNL     1       4.949  -4.518  -5.813  0.00  0.00    +0.000 C 
ATOM     16  F   UNL     1       4.992  -4.506  -7.197  0.00  0.00    +0.000 F 
BRANCH  13  17
ATOM     17  C   UNL     1       4.501  -1.985  -5.957  0.00  0.00    +0.000 A 
ATOM     18  C   UNL     1       5.569  -1.514  -6.737  0.00  0.00    +0.000 A 
ATOM     19  C   UNL     1       5.404  -0.420  -7.583  0.00  0.00    +0.000 A 
ATOM     20  C   UNL     1       4.168   0.197  -7.624  0.00  0.00    +0.000 A 
ATOM     21  N   UNL     1       3.114  -0.196  -6.884  0.00  0.00    +0.000 NA
ATOM     22  C   UNL     1       3.310  -1.267  -6.080  0.00  0.00    +0.000 A 
ENDBRANCH  13  17
ENDBRANCH  12  13
ENDBRANCH   4  12
TORSDOF 4
