REMARK  Name = 
REMARK  8 active torsions:
REMARK  status: ('A' for Active; 'I' for Inactive)
REMARK    1  A    between atoms: C_1  and  C_2
REMARK    2  A    between atoms: C_2  and  N_3
REMARK    3  A    between atoms: N_3  and  C_4
REMARK    4  A    between atoms: C_4  and  C_5
REMARK    5  A    between atoms: C_8  and  C_9
REMARK    6  A    between atoms: C_9  and  N_10
REMARK    7  A    between atoms: C_11  and  C_13
REMARK    8  A    between atoms: C_20  and  C_22
REMARK                            x       y       z     vdW  Elec       q    Type
REMARK                         _______ _______ _______ _____ _____    ______ ____
ROOT
ATOM      1  C   UNL     1       1.911   1.926  -1.441  0.00  0.00    +0.000 C 
ENDROOT
BRANCH   1   2
ATOM      2  C   UNL     1       0.447   1.567  -1.380  0.00  0.00    +0.000 A 
ATOM      3  C   UNL     1      -0.381   2.259  -0.490  0.00  0.00    +0.000 A 
ATOM      4  C   UNL     1      -1.759   2.223  -0.680  0.00  0.00    +0.000 A 
ATOM      5  C   UNL     1      -2.287   1.476  -1.734  0.00  0.00    +0.000 A 
ATOM      6  C   UNL     1      -1.390   0.765  -2.525  0.00  0.00    +0.000 A 
ATOM      7  N   UNL     1      -0.046   0.798  -2.376  0.00  0.00    +0.000 NA
BRANCH   5   8
ATOM      8  C   UNL     1      -3.756   1.460  -2.034  0.00  0.00    +0.000 C 
BRANCH   8   9
ATOM      9  N   UNL     1      -4.151   2.539  -2.912  0.00  0.00    +0.000 N 
ATOM     10  C   UNL     1      -5.462   2.673  -3.304  0.00  0.00    +0.000 C 
ATOM     11  O   UNL     1      -6.334   1.896  -2.930  0.00  0.00    +0.000 OA
ATOM     12  H   UNL     1      -3.452   3.170  -3.272  0.00  0.00    +0.000 HD
BRANCH  10  13
ATOM     13  C   UNL     1      -5.752   3.790  -4.182  0.00  0.00    +0.000 A 
ATOM     14  C   UNL     1      -4.960   4.798  -4.710  0.00  0.00    +0.000 A 
ATOM     15  C   UNL     1      -5.788   5.646  -5.488  0.00  0.00    +0.000 A 
ATOM     16  C   UNL     1      -7.064   5.138  -5.431  0.00  0.00    +0.000 A 
ATOM     17  N   UNL     1      -7.030   4.012  -4.654  0.00  0.00    +0.000 N 
ATOM     18  H   UNL     1      -7.820   3.418  -4.431  0.00  0.00    +0.000 HD
ENDBRANCH  10  13
ENDBRANCH   8   9
ENDBRANCH   5   8
ENDBRANCH   1   2
BRANCH   1  19
ATOM     19  N   UNL     1       2.956   1.184  -0.746  0.00  0.00    +0.000 N 
ATOM     20  C   UNL     1       4.321   1.503  -0.907  0.00  0.00    +0.000 C 
ATOM     21  O   UNL     1       5.184   0.882  -0.287  0.00  0.00    +0.000 OA
BRANCH  20  22
ATOM     22  C   UNL     1       4.732   2.632  -1.776  0.00  0.00    +0.000 A 
ATOM     23  C   UNL     1       4.108   3.868  -1.879  0.00  0.00    +0.000 A 
ATOM     24  S   UNL     1       4.893   4.982  -2.905  0.00  0.00    +0.000 S 
ATOM     25  C   UNL     1       6.190   3.919  -3.122  0.00  0.00    +0.000 A 
ATOM     26  N   UNL     1       7.295   4.321  -3.796  0.00  0.00    +0.000 NA
ATOM     27  C   UNL     1       8.245   3.432  -3.820  0.00  0.00    +0.000 A 
ATOM     28  N   UNL     1       8.153   2.178  -3.281  0.00  0.00    +0.000 N 
ATOM     29  C   UNL     1       6.991   1.676  -2.737  0.00  0.00    +0.000 A 
ATOM     30  O   UNL     1       6.857   0.478  -2.527  0.00  0.00    +0.000 OA
ATOM     31  C   UNL     1       5.964   2.685  -2.535  0.00  0.00    +0.000 A 
ATOM     32  H   UNL     1       8.889   1.507  -3.420  0.00  0.00    +0.000 HD
ENDBRANCH  20  22
BRANCH  19  34
ATOM     33  C   UNL     1       2.682  -1.272  -0.336  0.00  0.00    +0.000 C 
ATOM     34  C   UNL     1       2.603   0.142   0.223  0.00  0.00    +0.000 C 
ENDBRANCH  19  34
ENDBRANCH   1  19
TORSDOF 7
