REMARK  Name = 
REMARK  9 active torsions:
REMARK  status: ('A' for Active; 'I' for Inactive)
REMARK    1  A    between atoms: N_1  and  C_2
REMARK    2  A    between atoms: C_2  and  C_3
REMARK    3  A    between atoms: C_3  and  N_4
REMARK    4  A    between atoms: N_4  and  C_5
REMARK    5  A    between atoms: C_5  and  C_6
REMARK    6  A    between atoms: C_9  and  C_10
REMARK    7  A    between atoms: C_10  and  N_11
REMARK    8  A    between atoms: N_11  and  C_12
REMARK    9  A    between atoms: C_20  and  C_22
REMARK                            x       y       z     vdW  Elec       q    Type
REMARK                         _______ _______ _______ _____ _____    ______ ____
ROOT
ATOM      1  N   UNL     1       4.806  -0.256   1.432  0.00  0.00    +0.000 N 
ATOM      2  C   UNL     1       5.601  -0.725   2.495  0.00  0.00    +0.000 C 
ATOM      3  O   UNL     1       5.174  -0.700   3.650  0.00  0.00    +0.000 OA
ENDROOT
BRANCH   2   4
ATOM      4  C   UNL     1       6.886  -1.413   2.260  0.00  0.00    +0.000 A 
ATOM      5  C   UNL     1       7.204  -2.264   1.213  0.00  0.00    +0.000 A 
ATOM      6  S   UNL     1       8.576  -3.243   1.513  0.00  0.00    +0.000 S 
ATOM      7  C   UNL     1       8.784  -2.555   3.051  0.00  0.00    +0.000 A 
ATOM      8  N   UNL     1       9.689  -3.050   3.934  0.00  0.00    +0.000 NA
ATOM      9  C   UNL     1       9.740  -2.402   5.051  0.00  0.00    +0.000 A 
ATOM     10  N   UNL     1       9.013  -1.274   5.340  0.00  0.00    +0.000 N 
ATOM     11  C   UNL     1       8.154  -0.686   4.437  0.00  0.00    +0.000 A 
ATOM     12  O   UNL     1       7.719   0.447   4.607  0.00  0.00    +0.000 OA
ATOM     13  C   UNL     1       7.939  -1.481   3.245  0.00  0.00    +0.000 A 
ATOM     14  H   UNL     1       9.199  -0.743   6.177  0.00  0.00    +0.000 HD
ENDBRANCH   2   4
BRANCH   1  15
ATOM     15  C   UNL     1       3.355  -0.174   1.714  0.00  0.00    +0.000 C 
BRANCH  15  16
ATOM     16  C   UNL     1       2.905   0.957   2.670  0.00  0.00    +0.000 C 
BRANCH  16  17
ATOM     17  N   UNL     1       3.140   2.304   2.148  0.00  0.00    +0.000 NA
ATOM     18  H   UNL     1       2.888   2.983   2.866  0.00  0.00    +0.000 HD
ATOM     19  H   UNL     1       2.515   2.488   1.362  0.00  0.00    +0.000 HD
ENDBRANCH  16  17
ENDBRANCH  15  16
ENDBRANCH   1  15
BRANCH   1  20
ATOM     20  C   UNL     1       5.263  -0.273   0.044  0.00  0.00    +0.000 C 
BRANCH  20  21
ATOM     21  C   UNL     1       4.510   0.556  -0.936  0.00  0.00    +0.000 A 
ATOM     22  C   UNL     1       4.388   1.921  -0.826  0.00  0.00    +0.000 A 
ATOM     23  N   UNL     1       3.599   2.647  -1.642  0.00  0.00    +0.000 NA
ATOM     24  C   UNL     1       2.931   1.975  -2.604  0.00  0.00    +0.000 A 
ATOM     25  N   UNL     1       3.069   0.660  -2.851  0.00  0.00    +0.000 NA
ATOM     26  C   UNL     1       3.869  -0.014  -2.012  0.00  0.00    +0.000 A 
BRANCH  24  27
ATOM     27  C   UNL     1       1.790   2.678  -3.320  0.00  0.00    +0.000 C 
BRANCH  27  28
ATOM     28  N   UNL     1       1.855   4.147  -3.307  0.00  0.00    +0.000 NA
ATOM     29  H   UNL     1       2.773   4.418  -3.661  0.00  0.00    +0.000 HD
BRANCH  28  30
ATOM     30  C   UNL     1       0.783   4.777  -4.084  0.00  0.00    +0.000 C 
ATOM     31  C   UNL     1       1.036   6.294  -4.143  0.00  0.00    +0.000 C 
ATOM     32  C   UNL     1       0.709   6.997  -2.825  0.00  0.00    +0.000 C 
ATOM     33  N   UNL     1      -0.667   6.736  -2.393  0.00  0.00    +0.000 NA
ATOM     34  C   UNL     1      -0.877   5.297  -2.215  0.00  0.00    +0.000 C 
ATOM     35  C   UNL     1      -0.621   4.527  -3.511  0.00  0.00    +0.000 C 
ATOM     36  H   UNL     1      -1.311   7.083  -3.103  0.00  0.00    +0.000 HD
ENDBRANCH  28  30
ENDBRANCH  27  28
ENDBRANCH  24  27
ENDBRANCH  20  21
ENDBRANCH   1  20
TORSDOF 9
