REMARK  Name = 
REMARK  7 active torsions:
REMARK  status: ('A' for Active; 'I' for Inactive)
REMARK    1  A    between atoms: C_2  and  C_20
REMARK    2  A    between atoms: N_3  and  C_4
REMARK    3  A    between atoms: C_4  and  C_5
REMARK    4  A    between atoms: N_8  and  C_9
REMARK    5  A    between atoms: C_9  and  N_10
REMARK    6  A    between atoms: N_10  and  C_11
REMARK    7  A    between atoms: C_11  and  C_12
REMARK                            x       y       z     vdW  Elec       q    Type
REMARK                         _______ _______ _______ _____ _____    ______ ____
ROOT
ATOM      1  C   UNL     1       2.318   1.088  -2.291  0.00  0.00    +0.000 C 
ENDROOT
BRANCH   1   2
ATOM      2  C   UNL     1       3.325   1.634  -3.316  0.00  0.00    +0.000 C 
ATOM      3  C   UNL     1       3.607   3.132  -3.136  0.00  0.00    +0.000 C 
ATOM      4  C   UNL     1       2.407   3.996  -3.521  0.00  0.00    +0.000 C 
ATOM      5  N   UNL     1       1.972   3.734  -4.907  0.00  0.00    +0.000 NA
ATOM      6  C   UNL     1       1.635   2.313  -5.092  0.00  0.00    +0.000 C 
ATOM      7  C   UNL     1       2.819   1.401  -4.744  0.00  0.00    +0.000 C 
BRANCH   5   8
ATOM      8  C   UNL     1       0.825   4.573  -5.255  0.00  0.00    +0.000 C 
BRANCH   8   9
ATOM      9  N   UNL     1       1.271   5.952  -5.233  0.00  0.00    +0.000 NA
ATOM     10  H   UNL     1       2.036   6.046  -5.896  0.00  0.00    +0.000 HD
BRANCH   9  11
ATOM     11  C   UNL     1       0.202   6.885  -5.555  0.00  0.00    +0.000 C 
BRANCH  11  12
ATOM     12  C   UNL     1       0.671   8.319  -5.449  0.00  0.00    +0.000 A 
ATOM     13  C   UNL     1       0.660   9.164  -6.568  0.00  0.00    +0.000 A 
ATOM     14  C   UNL     1       1.065  10.497  -6.457  0.00  0.00    +0.000 A 
ATOM     15  C   UNL     1       1.484  11.002  -5.228  0.00  0.00    +0.000 A 
ATOM     16  C   UNL     1       1.504  10.173  -4.108  0.00  0.00    +0.000 A 
ATOM     17  C   UNL     1       1.100   8.840  -4.217  0.00  0.00    +0.000 A 
ENDBRANCH  11  12
ENDBRANCH   9  11
ENDBRANCH   8   9
ENDBRANCH   5   8
ENDBRANCH   1   2
BRANCH   1  20
ATOM     18  O   UNL     1       0.710   1.578  -0.029  0.00  0.00    +0.000 OA
ATOM     19  C   UNL     1       1.923   1.458   0.117  0.00  0.00    +0.000 C 
ATOM     20  N   UNL     1       2.782   1.271  -0.937  0.00  0.00    +0.000 N 
ATOM     21  H   UNL     1       3.725   0.950  -0.742  0.00  0.00    +0.000 HD
BRANCH  19  22
ATOM     22  C   UNL     1       2.551   1.571   1.436  0.00  0.00    +0.000 A 
ATOM     23  C   UNL     1       1.920   2.282   2.446  0.00  0.00    +0.000 A 
ATOM     24  S   UNL     1       2.807   2.324   3.903  0.00  0.00    +0.000 S 
ATOM     25  C   UNL     1       4.046   1.362   3.241  0.00  0.00    +0.000 A 
ATOM     26  N   UNL     1       5.123   0.996   3.987  0.00  0.00    +0.000 NA
ATOM     27  C   UNL     1       5.966   0.237   3.368  0.00  0.00    +0.000 A 
ATOM     28  N   UNL     1       5.834  -0.182   2.070  0.00  0.00    +0.000 N 
ATOM     29  C   UNL     1       4.791   0.203   1.266  0.00  0.00    +0.000 A 
ATOM     30  O   UNL     1       4.753  -0.117   0.082  0.00  0.00    +0.000 OA
ATOM     31  C   UNL     1       3.794   1.032   1.922  0.00  0.00    +0.000 A 
ATOM     32  H   UNL     1       6.544  -0.754   1.635  0.00  0.00    +0.000 HD
ENDBRANCH  19  22
ENDBRANCH   1  20
TORSDOF 7
