REMARK  Name = 
REMARK  6 active torsions:
REMARK  status: ('A' for Active; 'I' for Inactive)
REMARK    1  A    between atoms: C_1  and  C_2
REMARK    2  A    between atoms: C_2  and  C_3
REMARK    3  A    between atoms: C_2  and  C_14
REMARK    4  A    between atoms: C_3  and  N_4
REMARK    5  A    between atoms: C_8  and  C_9
REMARK    6  A    between atoms: C_18  and  C_19
REMARK                            x       y       z     vdW  Elec       q    Type
REMARK                         _______ _______ _______ _____ _____    ______ ____
ROOT
ATOM      1  C   UNL     1       2.959   0.773   1.270  0.00  0.00    +0.000 C 
ENDROOT
BRANCH   1   2
ATOM      2  N   UNL     1       2.397   0.554   2.601  0.00  0.00    +0.000 N 
ATOM      3  C   UNL     1       2.985   1.365   3.585  0.00  0.00    +0.000 A 
ATOM      4  C   UNL     1       2.559   1.282   4.919  0.00  0.00    +0.000 A 
ATOM      5  N   UNL     1       3.062   2.040   5.932  0.00  0.00    +0.000 NA
ATOM      6  C   UNL     1       4.031   2.916   5.544  0.00  0.00    +0.000 A 
ATOM      7  C   UNL     1       4.456   3.019   4.233  0.00  0.00    +0.000 A 
ATOM      8  N   UNL     1       3.942   2.257   3.238  0.00  0.00    +0.000 NA
ATOM      9  H   UNL     1       2.480  -0.422   2.879  0.00  0.00    +0.000 HD
BRANCH   6  10
ATOM     10  C   UNL     1       4.643   3.796   6.575  0.00  0.00    +0.000 C 
ATOM     11  N   UNL     1       4.154   3.660   7.843  0.00  0.00    +0.000 N 
ATOM     12  O   UNL     1       5.528   4.598   6.307  0.00  0.00    +0.000 OA
ATOM     13  H   UNL     1       3.412   2.999   8.038  0.00  0.00    +0.000 HD
ATOM     14  H   UNL     1       4.524   4.244   8.581  0.00  0.00    +0.000 HD
ENDBRANCH   6  10
ENDBRANCH   1   2
BRANCH   1  16
ATOM     15  C   UNL     1       0.857   0.049  -0.025  0.00  0.00    +0.000 C 
ATOM     16  C   UNL     1       2.290  -0.188   0.331  0.00  0.00    +0.000 C 
BRANCH  16  17
ATOM     17  C   UNL     1       2.899  -1.514   0.163  0.00  0.00    +0.000 A 
ATOM     18  C   UNL     1       4.230  -1.646  -0.249  0.00  0.00    +0.000 A 
ATOM     19  C   UNL     1       4.847  -2.898  -0.269  0.00  0.00    +0.000 A 
ATOM     20  C   UNL     1       4.141  -4.029   0.141  0.00  0.00    +0.000 A 
ATOM     21  C   UNL     1       2.803  -3.919   0.542  0.00  0.00    +0.000 A 
ATOM     22  C   UNL     1       2.183  -2.660   0.516  0.00  0.00    +0.000 A 
BRANCH  21  23
ATOM     23  C   UNL     1       2.027  -5.106   1.053  0.00  0.00    +0.000 C 
ATOM     24  F   UNL     1       2.769  -6.241   1.161  0.00  0.00    +0.000 F 
ATOM     25  F   UNL     1       1.510  -4.880   2.295  0.00  0.00    +0.000 F 
ATOM     26  F   UNL     1       0.966  -5.418   0.260  0.00  0.00    +0.000 F 
ENDBRANCH  21  23
ENDBRANCH  16  17
ENDBRANCH   1  16
TORSDOF 5
