REMARK  Name = 
REMARK  9 active torsions:
REMARK  status: ('A' for Active; 'I' for Inactive)
REMARK    1  A    between atoms: C_1  and  C_2
REMARK    2  A    between atoms: C_2  and  N_3
REMARK    3  A    between atoms: N_3  and  C_4
REMARK    4  A    between atoms: C_8  and  C_9
REMARK    5  A    between atoms: C_9  and  C_10
REMARK    6  A    between atoms: C_9  and  C_11
REMARK    7  A    between atoms: C_9  and  C_12
REMARK    8  A    between atoms: C_12  and  N_13
REMARK    9  A    between atoms: C_17  and  C_18
REMARK                            x       y       z     vdW  Elec       q    Type
REMARK                         _______ _______ _______ _____ _____    ______ ____
ROOT
ATOM      1  C   UNL     1       6.021   1.658  -4.851  0.00  0.00    +0.000 C 
ATOM      2  C   UNL     1       4.875   1.521  -5.884  0.00  0.00    +0.000 C 
ATOM      3  C   UNL     1       6.091   3.112  -4.345  0.00  0.00    +0.000 C 
ENDROOT
BRANCH   1   8
ATOM      4  C   UNL     1       4.096  -0.157  -2.012  0.00  0.00    +0.000 A 
ATOM      5  C   UNL     1       4.980  -1.185  -1.695  0.00  0.00    +0.000 A 
ATOM      6  C   UNL     1       6.217  -1.277  -2.329  0.00  0.00    +0.000 A 
ATOM      7  C   UNL     1       6.583  -0.345  -3.300  0.00  0.00    +0.000 A 
ATOM      8  C   UNL     1       5.715   0.694  -3.674  0.00  0.00    +0.000 A 
ATOM      9  C   UNL     1       4.493   0.788  -2.976  0.00  0.00    +0.000 A 
BRANCH   4  10
ATOM     10  N   UNL     1       2.872   0.034  -1.349  0.00  0.00    +0.000 N 
ATOM     11  H   UNL     1       2.187   0.545  -1.899  0.00  0.00    +0.000 HD
BRANCH  10  13
ATOM     12  C   UNL     1       1.827  -1.902  -0.234  0.00  0.00    +0.000 C 
ATOM     13  C   UNL     1       2.387  -0.501  -0.097  0.00  0.00    +0.000 C 
ATOM     14  C   UNL     1       3.299  -0.238   1.123  0.00  0.00    +0.000 C 
ATOM     15  O   UNL     1       2.550   0.955   1.479  0.00  0.00    +0.000 OA
ATOM     16  C   UNL     1       1.466   0.532   0.612  0.00  0.00    +0.000 C 
ENDBRANCH  10  13
ENDBRANCH   4  10
ENDBRANCH   1   8
BRANCH   1  17
ATOM     17  C   UNL     1       7.363   1.284  -5.549  0.00  0.00    +0.000 C 
BRANCH  17  18
ATOM     18  N   UNL     1       7.714   2.117  -6.694  0.00  0.00    +0.000 N 
ATOM     19  C   UNL     1       8.890   1.805  -7.374  0.00  0.00    +0.000 A 
ATOM     20  C   UNL     1       9.408   0.515  -7.504  0.00  0.00    +0.000 A 
ATOM     21  N   UNL     1      10.538   0.199  -8.189  0.00  0.00    +0.000 NA
ATOM     22  C   UNL     1      11.132   1.259  -8.788  0.00  0.00    +0.000 A 
ATOM     23  C   UNL     1      10.626   2.550  -8.688  0.00  0.00    +0.000 A 
ATOM     24  N   UNL     1       9.505   2.845  -7.972  0.00  0.00    +0.000 NA
ATOM     25  H   UNL     1       7.710   3.124  -6.552  0.00  0.00    +0.000 HD
BRANCH  22  26
ATOM     26  C   UNL     1      12.364   0.991  -9.580  0.00  0.00    +0.000 C 
ATOM     27  N   UNL     1      12.797  -0.300  -9.636  0.00  0.00    +0.000 N 
ATOM     28  O   UNL     1      12.964   1.894 -10.156  0.00  0.00    +0.000 OA
ATOM     29  H   UNL     1      12.303  -1.046  -9.166  0.00  0.00    +0.000 HD
ATOM     30  H   UNL     1      13.632  -0.504 -10.181  0.00  0.00    +0.000 HD
ENDBRANCH  22  26
ENDBRANCH  17  18
ENDBRANCH   1  17
TORSDOF 6
