REMARK  Name = 
REMARK  6 active torsions:
REMARK  status: ('A' for Active; 'I' for Inactive)
REMARK    1  A    between atoms: C_1  and  O_2
REMARK    2  A    between atoms: O_2  and  C_3
REMARK    3  A    between atoms: N_10  and  C_11
REMARK    4  A    between atoms: C_11  and  C_12
REMARK    5  A    between atoms: C_15  and  C_16
REMARK    6  A    between atoms: C_16  and  N_17
REMARK                            x       y       z     vdW  Elec       q    Type
REMARK                         _______ _______ _______ _____ _____    ______ ____
ROOT
ATOM      1  C   UNL     1       3.114   0.991   0.622  0.00  0.00    +0.000 A 
ATOM      2  C   UNL     1       2.587   1.452   1.825  0.00  0.00    +0.000 A 
ATOM      3  C   UNL     1       3.274   2.393   2.606  0.00  0.00    +0.000 A 
ATOM      4  C   UNL     1       4.507   2.875   2.137  0.00  0.00    +0.000 A 
ATOM      5  C   UNL     1       5.035   2.457   0.913  0.00  0.00    +0.000 A 
ATOM      6  C   UNL     1       6.258   3.159   0.716  0.00  0.00    +0.000 A 
ATOM      7  C   UNL     1       6.458   3.962   1.814  0.00  0.00    +0.000 A 
ATOM      8  N   UNL     1       5.414   3.762   2.688  0.00  0.00    +0.000 N 
ATOM      9  C   UNL     1       4.333   1.499   0.157  0.00  0.00    +0.000 A 
ENDROOT
BRANCH   1  11
ATOM     10  C   UNL     1       1.338  -0.554   0.273  0.00  0.00    +0.000 C 
ATOM     11  O   UNL     1       2.542   0.048  -0.190  0.00  0.00    +0.000 OA
ENDBRANCH   1  11
BRANCH   8  12
ATOM     12  C   UNL     1       5.347   4.341   4.028  0.00  0.00    +0.000 C 
BRANCH  12  13
ATOM     13  C   UNL     1       4.807   5.745   4.001  0.00  0.00    +0.000 A 
ATOM     14  C   UNL     1       3.477   5.995   3.673  0.00  0.00    +0.000 A 
ATOM     15  C   UNL     1       3.055   7.312   3.518  0.00  0.00    +0.000 A 
ATOM     16  C   UNL     1       3.956   8.363   3.708  0.00  0.00    +0.000 A 
ATOM     17  C   UNL     1       5.245   8.020   4.101  0.00  0.00    +0.000 A 
ATOM     18  N   UNL     1       5.683   6.747   4.260  0.00  0.00    +0.000 NA
BRANCH  16  19
ATOM     19  C   UNL     1       3.573   9.767   3.340  0.00  0.00    +0.000 C 
BRANCH  19  20
ATOM     20  N   UNL     1       4.204  10.786   4.167  0.00  0.00    +0.000 NA
ATOM     21  H   UNL     1       3.832  10.724   5.113  0.00  0.00    +0.000 HD
ATOM     22  H   UNL     1       3.935  11.704   3.816  0.00  0.00    +0.000 HD
ENDBRANCH  19  20
ENDBRANCH  16  19
ENDBRANCH  12  13
ENDBRANCH   8  12
TORSDOF 5
