REMARK  Name = 
REMARK  5 active torsions:
REMARK  status: ('A' for Active; 'I' for Inactive)
REMARK    1  A    between atoms: C_2  and  C_4
REMARK    2  A    between atoms: C_7  and  O_8
REMARK    3  A    between atoms: O_8  and  C_9
REMARK    4  A    between atoms: C_9  and  C_10
REMARK    5  A    between atoms: C_15  and  C_16
REMARK                            x       y       z     vdW  Elec       q    Type
REMARK                         _______ _______ _______ _____ _____    ______ ____
ROOT
ATOM      1  C   UNL     1       4.775   2.766  -5.480  0.00  0.00    +0.000 C 
ENDROOT
BRANCH   1   2
ATOM      2  C   UNL     1       5.701   2.991  -6.653  0.00  0.00    +0.000 A 
ATOM      3  C   UNL     1       5.862   4.276  -7.177  0.00  0.00    +0.000 A 
ATOM      4  C   UNL     1       6.704   4.476  -8.263  0.00  0.00    +0.000 A 
ATOM      5  F   UNL     1       6.862   5.714  -8.750  0.00  0.00    +0.000 F 
ATOM      6  C   UNL     1       7.393   3.418  -8.849  0.00  0.00    +0.000 A 
ATOM      7  C   UNL     1       7.257   2.111  -8.355  0.00  0.00    +0.000 A 
ATOM      8  C   UNL     1       6.385   1.922  -7.264  0.00  0.00    +0.000 A 
BRANCH   7   9
ATOM      9  C   UNL     1       8.019   0.980  -8.927  0.00  0.00    +0.000 A 
ATOM     10  C   UNL     1       7.503  -0.323  -8.992  0.00  0.00    +0.000 A 
ATOM     11  C   UNL     1       8.270  -1.371  -9.501  0.00  0.00    +0.000 A 
ATOM     12  C   UNL     1       9.546  -1.092  -9.953  0.00  0.00    +0.000 A 
ATOM     13  N   UNL     1      10.091   0.140  -9.925  0.00  0.00    +0.000 NA
ATOM     14  C   UNL     1       9.322   1.133  -9.410  0.00  0.00    +0.000 A 
ENDBRANCH   7   9
ENDBRANCH   1   2
BRANCH   1  15
ATOM     15  O   UNL     1       5.218   1.643  -4.716  0.00  0.00    +0.000 OA
BRANCH  15  19
ATOM     16  C   UNL     1       3.179   0.448  -1.285  0.00  0.00    +0.000 A 
ATOM     17  C   UNL     1       2.707   1.563  -1.987  0.00  0.00    +0.000 A 
ATOM     18  C   UNL     1       3.360   1.994  -3.146  0.00  0.00    +0.000 A 
ATOM     19  C   UNL     1       4.492   1.320  -3.605  0.00  0.00    +0.000 A 
ATOM     20  C   UNL     1       4.969   0.215  -2.893  0.00  0.00    +0.000 A 
ATOM     21  C   UNL     1       4.322  -0.218  -1.735  0.00  0.00    +0.000 A 
BRANCH  16  23
ATOM     22  N   UNL     1       1.166   0.208   0.060  0.00  0.00    +0.000 N 
ATOM     23  C   UNL     1       2.507  -0.038  -0.053  0.00  0.00    +0.000 C 
ATOM     24  O   UNL     1       3.110  -0.664   0.808  0.00  0.00    +0.000 OA
ATOM     25  H   UNL     1       0.699  -0.224   0.848  0.00  0.00    +0.000 HD
ATOM     26  H   UNL     1       0.598   0.476  -0.731  0.00  0.00    +0.000 HD
ENDBRANCH  16  23
ENDBRANCH  15  19
ENDBRANCH   1  15
TORSDOF 5
