REMARK  Name = 
REMARK  8 active torsions:
REMARK  status: ('A' for Active; 'I' for Inactive)
REMARK    1  A    between atoms: N_1  and  C_2
REMARK    2  A    between atoms: C_2  and  C_3
REMARK    3  A    between atoms: C_3  and  C_4
REMARK    4  A    between atoms: C_4  and  N_5
REMARK    5  A    between atoms: N_5  and  C_6
REMARK    6  A    between atoms: C_9  and  C_10
REMARK    7  A    between atoms: C_10  and  N_11
REMARK    8  A    between atoms: C_17  and  C_18
REMARK                            x       y       z     vdW  Elec       q    Type
REMARK                         _______ _______ _______ _____ _____    ______ ____
ROOT
ATOM      1  C   UNL     1      10.527  -0.426  -3.902  0.00  0.00    +0.000 C 
ENDROOT
BRANCH   1   2
ATOM      2  N   UNL     1      10.861  -1.583  -4.735  0.00  0.00    +0.000 N 
ATOM      3  C   UNL     1      10.911  -1.568  -6.110  0.00  0.00    +0.000 A 
ATOM      4  C   UNL     1      11.523  -2.732  -6.528  0.00  0.00    +0.000 A 
ATOM      5  C   UNL     1      11.853  -3.477  -5.372  0.00  0.00    +0.000 A 
ATOM      6  N   UNL     1      12.528  -4.648  -5.276  0.00  0.00    +0.000 NA
ATOM      7  C   UNL     1      12.748  -5.071  -4.005  0.00  0.00    +0.000 A 
ATOM      8  C   UNL     1      12.316  -4.435  -2.843  0.00  0.00    +0.000 A 
ATOM      9  C   UNL     1      11.591  -3.248  -2.964  0.00  0.00    +0.000 A 
ATOM     10  C   UNL     1      11.397  -2.764  -4.263  0.00  0.00    +0.000 A 
BRANCH   8  11
ATOM     11  C   UNL     1      12.686  -5.036  -1.535  0.00  0.00    +0.000 C 
ATOM     12  N   UNL     1      12.264  -4.409  -0.389  0.00  0.00    +0.000 N 
ATOM     13  O   UNL     1      13.354  -6.049  -1.467  0.00  0.00    +0.000 OA
ATOM     14  H   UNL     1      11.781  -3.529  -0.346  0.00  0.00    +0.000 HD
ATOM     15  H   UNL     1      12.559  -4.826   0.485  0.00  0.00    +0.000 HD
ENDBRANCH   8  11
ENDBRANCH   1   2
BRANCH   1  19
ATOM     16  C   UNL     1       6.267  -0.058  -3.060  0.00  0.00    +0.000 A 
ATOM     17  C   UNL     1       7.098  -0.801  -2.223  0.00  0.00    +0.000 A 
ATOM     18  C   UNL     1       8.471  -0.917  -2.476  0.00  0.00    +0.000 A 
ATOM     19  C   UNL     1       9.053  -0.316  -3.599  0.00  0.00    +0.000 A 
ATOM     20  C   UNL     1       8.220   0.420  -4.450  0.00  0.00    +0.000 A 
ATOM     21  C   UNL     1       6.846   0.535  -4.186  0.00  0.00    +0.000 A 
BRANCH  16  22
ATOM     22  N   UNL     1       4.919   0.166  -2.802  0.00  0.00    +0.000 N 
ATOM     23  H   UNL     1       4.280  -0.186  -3.513  0.00  0.00    +0.000 HD
BRANCH  22  24
ATOM     24  C   UNL     1       4.436   0.212  -1.430  0.00  0.00    +0.000 C 
BRANCH  24  25
ATOM     25  C   UNL     1       3.221   1.131  -1.326  0.00  0.00    +0.000 C 
BRANCH  25  26
ATOM     26  C   UNL     1       2.730   1.183   0.120  0.00  0.00    +0.000 C 
BRANCH  26  27
ATOM     27  N   UNL     1       1.570   2.057   0.238  0.00  0.00    +0.000 NA
ATOM     28  H   UNL     1       1.247   2.065   1.205  0.00  0.00    +0.000 HD
ATOM     29  H   UNL     1       0.800   1.687  -0.317  0.00  0.00    +0.000 HD
ENDBRANCH  26  27
ENDBRANCH  25  26
ENDBRANCH  24  25
ENDBRANCH  22  24
ENDBRANCH  16  22
ENDBRANCH   1  19
TORSDOF 8
