REMARK  Name = 
REMARK  4 active torsions:
REMARK  status: ('A' for Active; 'I' for Inactive)
REMARK    1  A    between atoms: C_2  and  C_4
REMARK    2  A    between atoms: N_8  and  C_9
REMARK    3  A    between atoms: C_9  and  C_10
REMARK    4  A    between atoms: C_14  and  C_15
REMARK                            x       y       z     vdW  Elec       q    Type
REMARK                         _______ _______ _______ _____ _____    ______ ____
ROOT
ATOM      1  C   UNL     1       5.104   2.136   5.548  0.00  0.00    +0.000 C 
ATOM      2  C   UNL     1       4.969   0.924   6.462  0.00  0.00    +0.000 C 
ATOM      3  C   UNL     1       3.813   1.850   6.291  0.00  0.00    +0.000 C 
ENDROOT
BRANCH   1   8
ATOM      4  C   UNL     1       3.565   3.592   0.794  0.00  0.00    +0.000 A 
ATOM      5  C   UNL     1       2.799   3.470   1.949  0.00  0.00    +0.000 A 
ATOM      6  C   UNL     1       3.375   2.917   3.095  0.00  0.00    +0.000 A 
ATOM      7  C   UNL     1       4.696   2.488   3.063  0.00  0.00    +0.000 A 
ATOM      8  N   UNL     1       5.304   1.806   4.124  0.00  0.00    +0.000 N 
ATOM      9  N   UNL     1       5.452   2.611   1.951  0.00  0.00    +0.000 NA
ATOM     10  C   UNL     1       4.877   3.153   0.845  0.00  0.00    +0.000 A 
ATOM     11  H   UNL     1       6.275   1.688   3.838  0.00  0.00    +0.000 HD
BRANCH   4  13
ATOM     12  N   UNL     1       1.941   4.934  -0.414  0.00  0.00    +0.000 N 
ATOM     13  C   UNL     1       3.025   4.108  -0.483  0.00  0.00    +0.000 C 
ATOM     14  O   UNL     1       3.540   3.825  -1.554  0.00  0.00    +0.000 OA
ATOM     15  H   UNL     1       1.627   5.343  -1.289  0.00  0.00    +0.000 HD
ATOM     16  H   UNL     1       1.636   5.381   0.440  0.00  0.00    +0.000 HD
ENDBRANCH   4  13
ENDBRANCH   1   8
BRANCH   1  17
ATOM     17  C   UNL     1       5.965   3.308   6.007  0.00  0.00    +0.000 A 
ATOM     18  C   UNL     1       7.241   3.114   6.559  0.00  0.00    +0.000 A 
ATOM     19  C   UNL     1       8.070   4.192   6.861  0.00  0.00    +0.000 A 
ATOM     20  C   UNL     1       7.648   5.493   6.592  0.00  0.00    +0.000 A 
ATOM     21  C   UNL     1       6.388   5.747   6.026  0.00  0.00    +0.000 A 
ATOM     22  C   UNL     1       5.555   4.637   5.779  0.00  0.00    +0.000 A 
BRANCH  21  23
ATOM     23  C   UNL     1       5.989   7.108   5.613  0.00  0.00    +0.000 A 
ATOM     24  C   UNL     1       6.904   7.997   5.033  0.00  0.00    +0.000 A 
ATOM     25  C   UNL     1       6.499   9.255   4.590  0.00  0.00    +0.000 A 
ATOM     26  C   UNL     1       5.169   9.601   4.734  0.00  0.00    +0.000 A 
ATOM     27  N   UNL     1       4.244   8.792   5.291  0.00  0.00    +0.000 NA
ATOM     28  C   UNL     1       4.676   7.578   5.717  0.00  0.00    +0.000 A 
ENDBRANCH  21  23
ENDBRANCH   1  17
TORSDOF 4
