REMARK  Name = 
REMARK  7 active torsions:
REMARK  status: ('A' for Active; 'I' for Inactive)
REMARK    1  A    between atoms: C_1  and  N_2
REMARK    2  A    between atoms: C_4  and  N_5
REMARK    3  A    between atoms: C_4  and  C_16
REMARK    4  A    between atoms: N_5  and  C_6
REMARK    5  A    between atoms: C_9  and  C_10
REMARK    6  A    between atoms: C_19  and  O_20
REMARK    7  A    between atoms: O_20  and  C_21
REMARK                            x       y       z     vdW  Elec       q    Type
REMARK                         _______ _______ _______ _____ _____    ______ ____
ROOT
ATOM      1  C   UNL     1       1.020   0.176   0.097  0.00  0.00    +0.000 C 
ATOM      2  N   UNL     1       2.470   0.135  -0.007  0.00  0.00    +0.000 NA
ATOM      3  C   UNL     1       3.040  -0.978   0.803  0.00  0.00    +0.000 C 
ATOM      4  C   UNL     1       4.214  -0.009   1.194  0.00  0.00    +0.000 C 
ATOM      5  C   UNL     1       3.111   1.093   0.929  0.00  0.00    +0.000 C 
ENDROOT
BRANCH   4   6
ATOM      6  C   UNL     1       5.546   0.070   0.297  0.00  0.00    +0.000 A 
ATOM      7  C   UNL     1       6.309   1.254   0.198  0.00  0.00    +0.000 A 
ATOM      8  C   UNL     1       7.472   1.338  -0.581  0.00  0.00    +0.000 A 
ATOM      9  C   UNL     1       7.928   0.219  -1.271  0.00  0.00    +0.000 A 
ATOM     10  C   UNL     1       7.184  -0.955  -1.224  0.00  0.00    +0.000 A 
ATOM     11  C   UNL     1       6.024  -1.027  -0.447  0.00  0.00    +0.000 A 
BRANCH   9  12
ATOM     12  O   UNL     1       9.061   0.162  -2.031  0.00  0.00    +0.000 OA
BRANCH  12  13
ATOM     13  C   UNL     1      10.098   1.038  -1.624  0.00  0.00    +0.000 C 
ATOM     14  F   UNL     1      11.271   0.504  -2.052  0.00  0.00    +0.000 F 
ATOM     15  F   UNL     1       9.948   2.219  -2.273  0.00  0.00    +0.000 F 
ENDBRANCH  12  13
ENDBRANCH   9  12
ENDBRANCH   4   6
BRANCH   4  16
ATOM     16  N   UNL     1       4.568  -0.064   2.606  0.00  0.00    +0.000 N 
ATOM     17  H   UNL     1       3.856   0.327   3.215  0.00  0.00    +0.000 HD
BRANCH  16  18
ATOM     18  C   UNL     1       5.128  -1.200   3.239  0.00  0.00    +0.000 A 
ATOM     19  N   UNL     1       5.296  -2.335   2.525  0.00  0.00    +0.000 NA
ATOM     20  C   UNL     1       5.882  -3.394   3.138  0.00  0.00    +0.000 A 
ATOM     21  C   UNL     1       6.347  -3.377   4.446  0.00  0.00    +0.000 A 
ATOM     22  C   UNL     1       6.159  -2.213   5.189  0.00  0.00    +0.000 A 
ATOM     23  C   UNL     1       5.543  -1.118   4.582  0.00  0.00    +0.000 A 
ATOM     24 CL   UNL     1       5.288   0.308   5.524  0.00  0.00    +0.000 Cl
BRANCH  21  25
ATOM     25  C   UNL     1       6.970  -4.593   5.001  0.00  0.00    +0.000 C 
ATOM     26  N   UNL     1       7.867  -4.437   6.016  0.00  0.00    +0.000 N 
ATOM     27  O   UNL     1       6.712  -5.700   4.546  0.00  0.00    +0.000 OA
ATOM     28  H   UNL     1       8.287  -3.550   6.258  0.00  0.00    +0.000 HD
ATOM     29  H   UNL     1       8.355  -5.275   6.318  0.00  0.00    +0.000 HD
ENDBRANCH  21  25
ENDBRANCH  16  18
ENDBRANCH   4  16
TORSDOF 6
