REMARK  Name = 
REMARK  6 active torsions:
REMARK  status: ('A' for Active; 'I' for Inactive)
REMARK    1  A    between atoms: C_1  and  C_2
REMARK    2  A    between atoms: N_9  and  C_10
REMARK    3  A    between atoms: C_10  and  C_11
REMARK    4  A    between atoms: C_14  and  C_15
REMARK    5  A    between atoms: C_15  and  N_16
REMARK    6  A    between atoms: C_17  and  C_19
REMARK                            x       y       z     vdW  Elec       q    Type
REMARK                         _______ _______ _______ _____ _____    ______ ____
ROOT
ATOM      1  C   UNL     1      -0.519  -4.107  -0.145  0.00  0.00    +0.000 A 
ATOM      2  C   UNL     1      -1.180  -5.313  -0.097  0.00  0.00    +0.000 A 
ATOM      3  C   UNL     1      -2.553  -5.367   0.032  0.00  0.00    +0.000 A 
ATOM      4  C   UNL     1      -3.321  -4.230   0.080  0.00  0.00    +0.000 A 
ATOM      5  C   UNL     1      -2.638  -3.036   0.107  0.00  0.00    +0.000 A 
ATOM      6  C   UNL     1      -1.282  -2.961  -0.159  0.00  0.00    +0.000 A 
ENDROOT
BRANCH   1   7
ATOM      7  C   UNL     1       0.974  -4.074  -0.132  0.00  0.00    +0.000 C 
BRANCH   7  16
ATOM      8  C   UNL     1       4.645  -2.026  -3.156  0.00  0.00    +0.000 C 
ATOM      9  C   UNL     1       4.134  -3.268  -3.729  0.00  0.00    +0.000 A 
ATOM     10  C   UNL     1       4.314  -3.732  -5.010  0.00  0.00    +0.000 A 
ATOM     11  C   UNL     1       3.668  -4.946  -5.120  0.00  0.00    +0.000 A 
ATOM     12  C   UNL     1       3.093  -5.196  -3.909  0.00  0.00    +0.000 A 
ATOM     13  N   UNL     1       3.351  -4.174  -3.023  0.00  0.00    +0.000 N 
ATOM     14  C   UNL     1       2.911  -4.113  -1.671  0.00  0.00    +0.000 C 
ATOM     15  O   UNL     1       3.734  -4.055  -0.774  0.00  0.00    +0.000 OA
ATOM     16  N   UNL     1       1.546  -4.131  -1.464  0.00  0.00    +0.000 N 
ATOM     17  H   UNL     1       0.880  -4.168  -2.208  0.00  0.00    +0.000 HD
ENDBRANCH   7  16
ENDBRANCH   1   7
BRANCH   4  18
ATOM     18  C   UNL     1      -4.823  -4.280   0.067  0.00  0.00    +0.000 C 
BRANCH  18  19
ATOM     19  N   UNL     1      -5.408  -4.361   1.405  0.00  0.00    +0.000 N 
ATOM     20  C   UNL     1      -6.779  -4.417   1.620  0.00  0.00    +0.000 C 
ATOM     21  O   UNL     1      -7.565  -4.397   0.674  0.00  0.00    +0.000 OA
ATOM     22  H   UNL     1      -4.761  -4.400   2.186  0.00  0.00    +0.000 HD
BRANCH  20  23
ATOM     23  C   UNL     1      -7.286  -4.520   3.006  0.00  0.00    +0.000 A 
ATOM     24  C   UNL     1      -8.643  -4.582   3.347  0.00  0.00    +0.000 A 
ATOM     25  O   UNL     1      -8.791  -4.711   4.705  0.00  0.00    +0.000 OA
ATOM     26  C   UNL     1      -7.561  -4.739   5.284  0.00  0.00    +0.000 A 
ATOM     27  N   UNL     1      -7.284  -4.847   6.605  0.00  0.00    +0.000 NA
ATOM     28  C   UNL     1      -6.068  -4.842   6.752  0.00  0.00    +0.000 A 
ATOM     29  N   UNL     1      -4.830  -4.840   6.914  0.00  0.00    +0.000 N 
ATOM     30  C   UNL     1      -5.092  -4.649   5.005  0.00  0.00    +0.000 A 
ATOM     31  O   UNL     1      -4.423  -4.532   3.951  0.00  0.00    +0.000 OA
ATOM     32  C   UNL     1      -6.587  -4.634   4.343  0.00  0.00    +0.000 A 
ATOM     33  H   UNL     1      -5.155  -4.931   8.123  0.00  0.00    +0.000 HD
ENDBRANCH  20  23
ENDBRANCH  18  19
ENDBRANCH   4  18
TORSDOF 5
