REMARK  Name = 
REMARK  8 active torsions:
REMARK  status: ('A' for Active; 'I' for Inactive)
REMARK    1  A    between atoms: C_1  and  C_2
REMARK    2  A    between atoms: C_2  and  N_3
REMARK    3  A    between atoms: C_2  and  C_18
REMARK    4  A    between atoms: N_3  and  C_4
REMARK    5  A    between atoms: C_7  and  C_8
REMARK    6  A    between atoms: C_8  and  N_9
REMARK    7  A    between atoms: N_9  and  C_10
REMARK    8  A    between atoms: N_13  and  C_14
REMARK                            x       y       z     vdW  Elec       q    Type
REMARK                         _______ _______ _______ _____ _____    ______ ____
ROOT
ATOM      1  N   UNL     1       0.920   0.029   0.125  0.00  0.00    +0.000 N 
ATOM      2  H   UNL     1       1.438  -0.343  -0.668  0.00  0.00    +0.000 HD
ENDROOT
BRANCH   1   3
ATOM      3  C   UNL     1       0.141   1.099  -0.295  0.00  0.00    +0.000 A 
ATOM      4  C   UNL     1       0.836   2.216  -0.773  0.00  0.00    +0.000 A 
ATOM      5  C   UNL     1       0.171   3.347  -1.242  0.00  0.00    +0.000 A 
ATOM      6  C   UNL     1      -1.225   3.380  -1.295  0.00  0.00    +0.000 A 
ATOM      7  C   UNL     1      -1.931   2.254  -0.846  0.00  0.00    +0.000 A 
ATOM      8  C   UNL     1      -1.254   1.126  -0.346  0.00  0.00    +0.000 A 
BRANCH   6   9
ATOM      9  C   UNL     1      -1.916   4.627  -1.815  0.00  0.00    +0.000 C 
BRANCH   9  10
ATOM     10  N   UNL     1      -1.411   4.974  -3.142  0.00  0.00    +0.000 NA
ATOM     11  H   UNL     1      -1.652   4.227  -3.795  0.00  0.00    +0.000 HD
BRANCH  10  12
ATOM     12  C   UNL     1      -1.891   6.249  -3.673  0.00  0.00    +0.000 C 
ATOM     13  C   UNL     1      -3.404   6.291  -3.935  0.00  0.00    +0.000 C 
ATOM     14  C   UNL     1      -3.554   6.687  -5.398  0.00  0.00    +0.000 C 
ATOM     15  N   UNL     1      -2.339   6.148  -5.999  0.00  0.00    +0.000 NA
ATOM     16  C   UNL     1      -2.108   6.645  -7.350  0.00  0.00    +0.000 C 
ATOM     17  C   UNL     1      -1.270   6.527  -5.064  0.00  0.00    +0.000 C 
ENDBRANCH  10  12
ENDBRANCH   9  10
ENDBRANCH   6   9
ENDBRANCH   1   3
BRANCH   1  19
ATOM     18  C   UNL     1       1.509  -2.164   0.902  0.00  0.00    +0.000 C 
ATOM     19  C   UNL     1       0.480  -1.013   1.059  0.00  0.00    +0.000 C 
BRANCH  19  20
ATOM     20  C   UNL     1       0.478  -0.626   2.531  0.00  0.00    +0.000 A 
ATOM     21  C   UNL     1       1.196   0.433   3.065  0.00  0.00    +0.000 A 
ATOM     22  S   UNL     1       1.265   0.398   4.773  0.00  0.00    +0.000 S 
ATOM     23  C   UNL     1       0.326  -1.023   4.836  0.00  0.00    +0.000 A 
ATOM     24  N   UNL     1       0.106  -1.685   6.004  0.00  0.00    +0.000 NA
ATOM     25  C   UNL     1      -0.629  -2.741   5.883  0.00  0.00    +0.000 A 
ATOM     26  N   UNL     1      -1.213  -3.162   4.712  0.00  0.00    +0.000 N 
ATOM     27  C   UNL     1      -1.066  -2.490   3.520  0.00  0.00    +0.000 A 
ATOM     28  O   UNL     1      -1.688  -2.810   2.512  0.00  0.00    +0.000 OA
ATOM     29  C   UNL     1      -0.147  -1.369   3.587  0.00  0.00    +0.000 A 
ATOM     30  H   UNL     1      -1.840  -3.952   4.703  0.00  0.00    +0.000 HD
ENDBRANCH  19  20
ENDBRANCH   1  19
TORSDOF 6
