REMARK  Name = 
REMARK  7 active torsions:
REMARK  status: ('A' for Active; 'I' for Inactive)
REMARK    1  A    between atoms: C_1  and  C_2
REMARK    2  A    between atoms: C_2  and  N_3
REMARK    3  A    between atoms: C_2  and  C_17
REMARK    4  A    between atoms: C_4  and  C_6
REMARK    5  A    between atoms: N_12  and  C_13
REMARK    6  A    between atoms: C_20  and  C_21
REMARK    7  A    between atoms: C_21  and  C_22
REMARK                            x       y       z     vdW  Elec       q    Type
REMARK                         _______ _______ _______ _____ _____    ______ ____
ROOT
ATOM      1  C   UNL     1       2.812   0.840   1.198  0.00  0.00    +0.000 C 
ATOM      2  C   UNL     1       2.406   0.001  -0.019  0.00  0.00    +0.000 C 
ENDROOT
BRANCH   2   3
ATOM      3  C   UNL     1       3.098  -1.353  -0.065  0.00  0.00    +0.000 A 
ATOM      4  C   UNL     1       3.419  -1.914  -1.310  0.00  0.00    +0.000 A 
ATOM      5  C   UNL     1       4.182  -3.081  -1.394  0.00  0.00    +0.000 A 
ATOM      6  C   UNL     1       4.644  -3.715  -0.233  0.00  0.00    +0.000 A 
ATOM      7  C   UNL     1       4.242  -3.216   1.010  0.00  0.00    +0.000 A 
ATOM      8  C   UNL     1       3.459  -2.061   1.092  0.00  0.00    +0.000 A 
BRANCH   6   9
ATOM      9  C   UNL     1       5.593  -4.890  -0.316  0.00  0.00    +0.000 C 
BRANCH   9  10
ATOM     10  C   UNL     1       7.068  -4.531  -0.329  0.00  0.00    +0.000 A 
ATOM     11  C   UNL     1       7.603  -3.711  -1.323  0.00  0.00    +0.000 A 
ATOM     12  C   UNL     1       8.979  -3.493  -1.360  0.00  0.00    +0.000 A 
ATOM     13  C   UNL     1       9.789  -4.097  -0.409  0.00  0.00    +0.000 A 
ATOM     14  C   UNL     1       9.184  -4.886   0.553  0.00  0.00    +0.000 A 
ATOM     15  N   UNL     1       7.852  -5.118   0.612  0.00  0.00    +0.000 NA
ENDBRANCH   9  10
ENDBRANCH   6   9
ENDBRANCH   2   3
BRANCH   2  16
ATOM     16  N   UNL     1       0.974  -0.178  -0.059  0.00  0.00    +0.000 N 
ATOM     17  C   UNL     1       0.123   0.758  -0.590  0.00  0.00    +0.000 C 
ATOM     18  O   UNL     1       0.515   1.737  -1.220  0.00  0.00    +0.000 OA
ATOM     19  H   UNL     1       0.604  -0.851   0.601  0.00  0.00    +0.000 HD
BRANCH  17  20
ATOM     20  C   UNL     1      -1.312   0.483  -0.413  0.00  0.00    +0.000 A 
ATOM     21  C   UNL     1      -2.239   0.984  -1.314  0.00  0.00    +0.000 A 
ATOM     22  S   UNL     1      -3.840   0.489  -0.989  0.00  0.00    +0.000 S 
ATOM     23  C   UNL     1      -3.354  -0.369   0.399  0.00  0.00    +0.000 A 
ATOM     24  N   UNL     1      -4.256  -1.041   1.159  0.00  0.00    +0.000 NA
ATOM     25  C   UNL     1      -3.755  -1.615   2.204  0.00  0.00    +0.000 A 
ATOM     26  N   UNL     1      -2.428  -1.581   2.577  0.00  0.00    +0.000 N 
ATOM     27  C   UNL     1      -1.980  -2.243   3.785  0.00  0.00    +0.000 C 
ATOM     28  C   UNL     1      -1.475  -0.920   1.810  0.00  0.00    +0.000 A 
ATOM     29  O   UNL     1      -0.282  -0.899   2.107  0.00  0.00    +0.000 OA
ATOM     30  C   UNL     1      -1.994  -0.272   0.617  0.00  0.00    +0.000 A 
ENDBRANCH  17  20
ENDBRANCH   2  16
TORSDOF 5
