REMARK  Name = 
REMARK  5 active torsions:
REMARK  status: ('A' for Active; 'I' for Inactive)
REMARK    1  A    between atoms: N_1  and  C_2
REMARK    2  A    between atoms: C_2  and  C_3
REMARK    3  A    between atoms: N_9  and  C_10
REMARK    4  A    between atoms: C_10  and  C_11
REMARK    5  A    between atoms: C_15  and  O_16
REMARK                            x       y       z     vdW  Elec       q    Type
REMARK                         _______ _______ _______ _____ _____    ______ ____
ROOT
ATOM      1  C   UNL     1       3.031  -1.368   0.611  0.00  0.00    +0.000 A 
ATOM      2  C   UNL     1       2.518  -2.571   0.112  0.00  0.00    +0.000 A 
ATOM      3  N   UNL     1       2.827  -3.802   0.592  0.00  0.00    +0.000 NA
ATOM      4  C   UNL     1       3.692  -3.746   1.637  0.00  0.00    +0.000 A 
ATOM      5  C   UNL     1       4.272  -4.739   2.447  0.00  0.00    +0.000 A 
ATOM      6  N   UNL     1       5.097  -4.236   3.376  0.00  0.00    +0.000 NA
ATOM      7  N   UNL     1       5.022  -2.893   3.161  0.00  0.00    +0.000 N 
ATOM      8  C   UNL     1       4.197  -2.546   2.123  0.00  0.00    +0.000 A 
ATOM      9  N   UNL     1       3.912  -1.310   1.651  0.00  0.00    +0.000 NA
ENDROOT
BRANCH   1  10
ATOM     10  C   UNL     1       2.586  -0.061  -0.005  0.00  0.00    +0.000 C 
BRANCH  10  11
ATOM     11  N   UNL     1       1.149   0.176   0.152  0.00  0.00    +0.000 NA
ATOM     12  H   UNL     1       0.926   1.102  -0.210  0.00  0.00    +0.000 HD
ATOM     13  H   UNL     1       0.938   0.212   1.151  0.00  0.00    +0.000 HD
ENDBRANCH  10  11
ENDBRANCH   1  10
BRANCH   7  14
ATOM     14  C   UNL     1       5.812  -1.986   3.978  0.00  0.00    +0.000 C 
BRANCH  14  15
ATOM     15  C   UNL     1       5.043  -1.477   5.165  0.00  0.00    +0.000 A 
ATOM     16  C   UNL     1       4.513  -2.346   6.118  0.00  0.00    +0.000 A 
ATOM     17  N   UNL     1       3.822  -1.946   7.211  0.00  0.00    +0.000 NA
ATOM     18  C   UNL     1       3.652  -0.614   7.368  0.00  0.00    +0.000 A 
ATOM     19  C   UNL     1       4.154   0.329   6.486  0.00  0.00    +0.000 A 
ATOM     20  C   UNL     1       4.859  -0.105   5.373  0.00  0.00    +0.000 A 
BRANCH  19  21
ATOM     21  O   UNL     1       3.988   1.670   6.661  0.00  0.00    +0.000 OA
ATOM     22  H   UNL     1       3.480   1.821   7.476  0.00  0.00    +0.000 HD
ENDBRANCH  19  21
ENDBRANCH  14  15
ENDBRANCH   7  14
TORSDOF 5
