REMARK  Name = 
REMARK  8 active torsions:
REMARK  status: ('A' for Active; 'I' for Inactive)
REMARK    1  A    between atoms: C_2  and  C_21
REMARK    2  A    between atoms: N_3  and  C_4
REMARK    3  A    between atoms: C_4  and  C_5
REMARK    4  A    between atoms: C_8  and  C_9
REMARK    5  A    between atoms: C_9  and  O_10
REMARK    6  A    between atoms: C_9  and  C_11
REMARK    7  A    between atoms: C_11  and  C_12
REMARK    8  A    between atoms: C_12  and  C_13
REMARK                            x       y       z     vdW  Elec       q    Type
REMARK                         _______ _______ _______ _____ _____    ______ ____
ROOT
ATOM      1  C   UNL     1       3.168  -1.580   3.213  0.00  0.00    +0.000 A 
ATOM      2  C   UNL     1       3.940  -0.703   3.976  0.00  0.00    +0.000 A 
ATOM      3  C   UNL     1       4.765  -1.203   4.983  0.00  0.00    +0.000 A 
ATOM      4  C   UNL     1       4.804  -2.577   5.205  0.00  0.00    +0.000 A 
ATOM      5  N   UNL     1       4.049  -3.452   4.487  0.00  0.00    +0.000 NA
ATOM      6  C   UNL     1       3.247  -2.933   3.525  0.00  0.00    +0.000 A 
ENDROOT
BRANCH   1   7
ATOM      7  C   UNL     1       2.253  -1.080   2.133  0.00  0.00    +0.000 C 
BRANCH   7  10
ATOM      8  O   UNL     1       0.186   0.071   0.676  0.00  0.00    +0.000 OA
ATOM      9  C   UNL     1      -0.027  -0.232   1.845  0.00  0.00    +0.000 C 
ATOM     10  N   UNL     1       0.961  -0.729   2.660  0.00  0.00    +0.000 N 
ATOM     11  H   UNL     1       0.700  -1.141   3.551  0.00  0.00    +0.000 HD
BRANCH   9  12
ATOM     12  C   UNL     1      -1.348  -0.057   2.457  0.00  0.00    +0.000 A 
ATOM     13  C   UNL     1      -2.228   0.895   1.961  0.00  0.00    +0.000 A 
ATOM     14  S   UNL     1      -3.725   0.935   2.780  0.00  0.00    +0.000 S 
ATOM     15  C   UNL     1      -3.262  -0.344   3.803  0.00  0.00    +0.000 A 
ATOM     16  N   UNL     1      -4.119  -0.848   4.731  0.00  0.00    +0.000 NA
ATOM     17  C   UNL     1      -3.646  -1.840   5.411  0.00  0.00    +0.000 A 
ATOM     18  N   UNL     1      -2.389  -2.363   5.260  0.00  0.00    +0.000 N 
ATOM     19  C   UNL     1      -1.472  -1.852   4.374  0.00  0.00    +0.000 A 
ATOM     20  O   UNL     1      -0.324  -2.279   4.327  0.00  0.00    +0.000 OA
ATOM     21  C   UNL     1      -1.970  -0.767   3.552  0.00  0.00    +0.000 A 
ATOM     22  H   UNL     1      -2.067  -3.121   5.845  0.00  0.00    +0.000 HD
ENDBRANCH   9  12
ENDBRANCH   7  10
ENDBRANCH   1   7
BRANCH   4  23
ATOM     23  C   UNL     1       5.703  -3.161   6.284  0.00  0.00    +0.000 C 
BRANCH  23  24
ATOM     24  O   UNL     1       5.080  -4.340   6.821  0.00  0.00    +0.000 OA
ATOM     25  H   UNL     1       4.524  -4.679   6.089  0.00  0.00    +0.000 HD
ENDBRANCH  23  24
BRANCH  23  26
ATOM     26  C   UNL     1       7.082  -3.590   5.769  0.00  0.00    +0.000 C 
BRANCH  26  27
ATOM     27  C   UNL     1       7.925  -2.440   5.220  0.00  0.00    +0.000 C 
BRANCH  27  28
ATOM     28  C   UNL     1       9.291  -2.901   4.775  0.00  0.00    +0.000 A 
ATOM     29  C   UNL     1       9.496  -3.350   3.463  0.00  0.00    +0.000 A 
ATOM     30  C   UNL     1      10.766  -3.751   3.044  0.00  0.00    +0.000 A 
ATOM     31  C   UNL     1      11.838  -3.717   3.934  0.00  0.00    +0.000 A 
ATOM     32  C   UNL     1      11.638  -3.296   5.247  0.00  0.00    +0.000 A 
ATOM     33  C   UNL     1      10.369  -2.895   5.669  0.00  0.00    +0.000 A 
ENDBRANCH  27  28
ENDBRANCH  26  27
ENDBRANCH  23  26
ENDBRANCH   4  23
TORSDOF 8
