REMARK  Name = 
REMARK  6 active torsions:
REMARK  status: ('A' for Active; 'I' for Inactive)
REMARK    1  A    between atoms: N_1  and  C_2
REMARK    2  A    between atoms: C_2  and  C_3
REMARK    3  A    between atoms: C_6  and  S_7
REMARK    4  A    between atoms: S_7  and  C_8
REMARK    5  A    between atoms: C_8  and  C_9
REMARK    6  A    between atoms: C_12  and  C_13
REMARK                            x       y       z     vdW  Elec       q    Type
REMARK                         _______ _______ _______ _____ _____    ______ ____
ROOT
ATOM      1  C   UNL     1       6.002  -5.806   0.344  0.00  0.00    +0.000 C 
ENDROOT
BRANCH   1   2
ATOM      2  C   UNL     1       6.447  -7.251   0.353  0.00  0.00    +0.000 C 
ATOM      3  C   UNL     1       6.616  -7.956  -0.784  0.00  0.00    +0.000 C 
ATOM      4  C   UNL     1       6.899  -9.436  -0.808  0.00  0.00    +0.000 C 
ATOM      5  C   UNL     1       6.690 -10.120   0.549  0.00  0.00    +0.000 C 
ATOM      6  C   UNL     1       7.288  -9.267   1.668  0.00  0.00    +0.000 C 
ATOM      7  C   UNL     1       6.679  -7.864   1.718  0.00  0.00    +0.000 C 
BRANCH   5   8
ATOM      8  C   UNL     1       5.242 -10.501   0.864  0.00  0.00    +0.000 C 
ATOM      9  N   UNL     1       4.244  -9.684   0.429  0.00  0.00    +0.000 N 
ATOM     10  O   UNL     1       4.964 -11.478   1.555  0.00  0.00    +0.000 OA
ATOM     11  H   UNL     1       4.406  -8.744   0.096  0.00  0.00    +0.000 HD
ATOM     12  H   UNL     1       3.310  -9.893   0.758  0.00  0.00    +0.000 HD
ENDBRANCH   5   8
ENDBRANCH   1   2
BRANCH   1  13
ATOM     13  S   UNL     1       4.179  -5.744   0.494  0.00  0.00    +0.000 S 
BRANCH  13  17
ATOM     14  C   UNL     1       3.562  -1.249   0.233  0.00  0.00    +0.000 A 
ATOM     15  C   UNL     1       2.452  -2.084   0.387  0.00  0.00    +0.000 A 
ATOM     16  C   UNL     1       2.634  -3.465   0.485  0.00  0.00    +0.000 A 
ATOM     17  C   UNL     1       3.922  -3.979   0.424  0.00  0.00    +0.000 A 
ATOM     18  N   UNL     1       5.012  -3.191   0.295  0.00  0.00    +0.000 NA
ATOM     19  C   UNL     1       4.808  -1.858   0.203  0.00  0.00    +0.000 A 
BRANCH  14  20
ATOM     20  C   UNL     1       3.426   0.236   0.048  0.00  0.00    +0.000 C 
BRANCH  20  21
ATOM     21  N   UNL     1       2.770   0.878   1.179  0.00  0.00    +0.000 NA
ATOM     22  H   UNL     1       2.722   1.881   1.008  0.00  0.00    +0.000 HD
ATOM     23  H   UNL     1       3.346   0.760   2.012  0.00  0.00    +0.000 HD
ENDBRANCH  20  21
ENDBRANCH  14  20
ENDBRANCH  13  17
ENDBRANCH   1  13
TORSDOF 6
