REMARK  Name = 
REMARK  9 active torsions:
REMARK  status: ('A' for Active; 'I' for Inactive)
REMARK    1  A    between atoms: C_1  and  C_2
REMARK    2  A    between atoms: C_2  and  C_3
REMARK    3  A    between atoms: C_2  and  C_14
REMARK    4  A    between atoms: C_3  and  N_4
REMARK    5  A    between atoms: C_8  and  C_9
REMARK    6  A    between atoms: C_17  and  O_18
REMARK    7  A    between atoms: O_18  and  C_19
REMARK    8  A    between atoms: C_21  and  C_22
REMARK    9  A    between atoms: C_21  and  C_23
REMARK                            x       y       z     vdW  Elec       q    Type
REMARK                         _______ _______ _______ _____ _____    ______ ____
ROOT
ATOM      1  C   UNL     1       3.324  -0.596  -1.114  0.00  0.00    +0.000 C 
ATOM      2  C   UNL     1       2.421   0.174  -0.138  0.00  0.00    +0.000 C 
ENDROOT
BRANCH   2   3
ATOM      3  C   UNL     1       2.959   0.100   1.295  0.00  0.00    +0.000 A 
ATOM      4  C   UNL     1       3.273   1.231   2.063  0.00  0.00    +0.000 A 
ATOM      5  C   UNL     1       3.676   1.119   3.398  0.00  0.00    +0.000 A 
ATOM      6  C   UNL     1       3.784  -0.131   4.001  0.00  0.00    +0.000 A 
ATOM      7  C   UNL     1       3.506  -1.264   3.243  0.00  0.00    +0.000 A 
ATOM      8  F   UNL     1       3.619  -2.494   3.760  0.00  0.00    +0.000 F 
ATOM      9  C   UNL     1       3.092  -1.155   1.915  0.00  0.00    +0.000 A 
BRANCH   6  10
ATOM     10  O   UNL     1       4.184  -0.107   5.313  0.00  0.00    +0.000 OA
BRANCH  10  11
ATOM     11  C   UNL     1       3.908  -1.251   6.149  0.00  0.00    +0.000 C 
ATOM     12  C   UNL     1       2.428  -1.528   6.506  0.00  0.00    +0.000 C 
ATOM     13  C   UNL     1       2.821  -1.659   8.000  0.00  0.00    +0.000 C 
ATOM     14  C   UNL     1       2.965  -3.096   8.496  0.00  0.00    +0.000 C 
ATOM     15  C   UNL     1       1.948  -0.828   8.937  0.00  0.00    +0.000 C 
ATOM     16  C   UNL     1       4.180  -1.005   7.650  0.00  0.00    +0.000 C 
ENDBRANCH  10  11
ENDBRANCH   6  10
ENDBRANCH   2   3
BRANCH   2  17
ATOM     17  C   UNL     1       2.198   1.607  -0.692  0.00  0.00    +0.000 C 
BRANCH  17  18
ATOM     18  N   UNL     1       1.178   2.326   0.083  0.00  0.00    +0.000 N 
ATOM     19  C   UNL     1      -0.145   2.193  -0.349  0.00  0.00    +0.000 A 
ATOM     20  C   UNL     1      -1.179   2.776   0.401  0.00  0.00    +0.000 A 
ATOM     21  N   UNL     1      -2.486   2.776   0.032  0.00  0.00    +0.000 NA
ATOM     22  C   UNL     1      -2.728   2.133  -1.140  0.00  0.00    +0.000 A 
ATOM     23  C   UNL     1      -1.733   1.512  -1.871  0.00  0.00    +0.000 A 
ATOM     24  N   UNL     1      -0.429   1.524  -1.485  0.00  0.00    +0.000 NA
ATOM     25  H   UNL     1       1.400   3.312   0.189  0.00  0.00    +0.000 HD
BRANCH  22  26
ATOM     26  C   UNL     1      -4.122   2.146  -1.666  0.00  0.00    +0.000 C 
ATOM     27  N   UNL     1      -5.043   2.805  -0.898  0.00  0.00    +0.000 N 
ATOM     28  O   UNL     1      -4.423   1.619  -2.729  0.00  0.00    +0.000 OA
ATOM     29  H   UNL     1      -4.757   3.254  -0.035  0.00  0.00    +0.000 HD
ATOM     30  H   UNL     1      -5.995   2.880  -1.224  0.00  0.00    +0.000 HD
ENDBRANCH  22  26
ENDBRANCH  17  18
ENDBRANCH   2  17
TORSDOF 6
