REMARK  Name = 
REMARK  8 active torsions:
REMARK  status: ('A' for Active; 'I' for Inactive)
REMARK    1  A    between atoms: C_1  and  C_2
REMARK    2  A    between atoms: C_2  and  C_3
REMARK    3  A    between atoms: C_7  and  C_8
REMARK    4  A    between atoms: C_8  and  C_9
REMARK    5  A    between atoms: C_9  and  N_10
REMARK    6  A    between atoms: N_10  and  C_11
REMARK    7  A    between atoms: C_14  and  C_15
REMARK    8  A    between atoms: C_23  and  O_24
REMARK                            x       y       z     vdW  Elec       q    Type
REMARK                         _______ _______ _______ _____ _____    ______ ____
ROOT
ATOM      1  C   UNL     1       2.923   0.328   1.309  0.00  0.00    +0.000 A 
ATOM      2  C   UNL     1       2.673   1.599   1.848  0.00  0.00    +0.000 A 
ATOM      3  C   UNL     1       2.992   1.895   3.179  0.00  0.00    +0.000 A 
ATOM      4  C   UNL     1       3.563   0.924   4.004  0.00  0.00    +0.000 A 
ATOM      5  C   UNL     1       3.843  -0.348   3.501  0.00  0.00    +0.000 A 
ATOM      6  C   UNL     1       3.537  -0.608   2.153  0.00  0.00    +0.000 A 
ENDROOT
BRANCH   1   8
ATOM      7  C   UNL     1       0.905   0.021  -0.101  0.00  0.00    +0.000 C 
ATOM      8  C   UNL     1       2.452  -0.061  -0.113  0.00  0.00    +0.000 C 
ATOM      9  C   UNL     1       3.052   0.913  -1.162  0.00  0.00    +0.000 C 
ATOM     10  C   UNL     1       2.709   0.543  -2.607  0.00  0.00    +0.000 C 
ATOM     11  C   UNL     1       3.095  -0.894  -2.947  0.00  0.00    +0.000 C 
ATOM     12  C   UNL     1       2.516  -1.891  -1.953  0.00  0.00    +0.000 C 
ATOM     13  C   UNL     1       2.867  -1.511  -0.519  0.00  0.00    +0.000 C 
BRANCH  11  14
ATOM     14  O   UNL     1       2.640  -1.214  -4.257  0.00  0.00    +0.000 OA
ATOM     15  H   UNL     1       1.667  -1.202  -4.250  0.00  0.00    +0.000 HD
ENDBRANCH  11  14
ENDBRANCH   1   8
BRANCH   5  16
ATOM     16  C   UNL     1       4.407  -1.424   4.416  0.00  0.00    +0.000 C 
BRANCH  16  17
ATOM     17  C   UNL     1       4.681  -2.759   3.709  0.00  0.00    +0.000 C 
BRANCH  17  18
ATOM     18  N   UNL     1       5.117  -3.816   4.612  0.00  0.00    +0.000 N 
ATOM     19  H   UNL     1       5.777  -3.522   5.329  0.00  0.00    +0.000 HD
BRANCH  18  20
ATOM     20  C   UNL     1       5.441  -5.063   4.060  0.00  0.00    +0.000 A 
ATOM     21  C   UNL     1       5.239  -5.402   2.713  0.00  0.00    +0.000 A 
ATOM     22  C   UNL     1       5.494  -6.693   2.239  0.00  0.00    +0.000 A 
ATOM     23  C   UNL     1       5.933  -7.687   3.115  0.00  0.00    +0.000 A 
ATOM     24  C   UNL     1       6.109  -7.378   4.465  0.00  0.00    +0.000 A 
ATOM     25  C   UNL     1       5.863  -6.077   4.929  0.00  0.00    +0.000 A 
BRANCH  23  26
ATOM     26  C   UNL     1       6.154  -9.054   2.575  0.00  0.00    +0.000 C 
ATOM     27  N   UNL     1       6.996  -9.877   3.267  0.00  0.00    +0.000 N 
ATOM     28  O   UNL     1       5.626  -9.429   1.534  0.00  0.00    +0.000 OA
ATOM     29  H   UNL     1       7.625  -9.540   3.981  0.00  0.00    +0.000 HD
ATOM     30  H   UNL     1       7.210 -10.766   2.832  0.00  0.00    +0.000 HD
ENDBRANCH  23  26
ENDBRANCH  18  20
ENDBRANCH  17  18
ENDBRANCH  16  17
ENDBRANCH   5  16
TORSDOF 7
