REMARK  Name = 
REMARK  4 active torsions:
REMARK  status: ('A' for Active; 'I' for Inactive)
REMARK    1  A    between atoms: C_2  and  C_4
REMARK    2  A    between atoms: C_7  and  C_8
REMARK    3  A    between atoms: C_8  and  N_9
REMARK    4  A    between atoms: C_12  and  C_13
REMARK                            x       y       z     vdW  Elec       q    Type
REMARK                         _______ _______ _______ _____ _____    ______ ____
ROOT
ATOM      1  N   UNL     1       4.640  -4.335  -4.290  0.00  0.00    +0.000 N 
ATOM      2  C   UNL     1       5.441  -5.207  -5.057  0.00  0.00    +0.000 A 
ATOM      3  C   UNL     1       4.983  -5.619  -6.310  0.00  0.00    +0.000 A 
ATOM      4  C   UNL     1       5.750  -6.496  -7.100  0.00  0.00    +0.000 A 
ATOM      5  C   UNL     1       6.964  -6.932  -6.560  0.00  0.00    +0.000 A 
ATOM      6  C   UNL     1       7.350  -6.481  -5.312  0.00  0.00    +0.000 A 
ATOM      7  N   UNL     1       6.613  -5.644  -4.560  0.00  0.00    +0.000 NA
ATOM      8  H   UNL     1       4.431  -3.508  -4.843  0.00  0.00    +0.000 HD
ENDROOT
BRANCH   4   9
ATOM      9  C   UNL     1       5.318  -6.921  -8.454  0.00  0.00    +0.000 A 
ATOM     10  C   UNL     1       3.960  -7.106  -8.783  0.00  0.00    +0.000 A 
ATOM     11  C   UNL     1       3.561  -7.473 -10.076  0.00  0.00    +0.000 A 
ATOM     12  C   UNL     1       4.514  -7.679 -11.068  0.00  0.00    +0.000 A 
ATOM     13  C   UNL     1       5.855  -7.521 -10.757  0.00  0.00    +0.000 A 
ATOM     14  F   UNL     1       6.782  -7.724 -11.703  0.00  0.00    +0.000 F 
ATOM     15  C   UNL     1       6.258  -7.146  -9.477  0.00  0.00    +0.000 A 
ENDBRANCH   4   9
BRANCH   1  16
ATOM     16  C   UNL     1       5.274  -3.981  -3.023  0.00  0.00    +0.000 C 
BRANCH  16  20
ATOM     17  C   UNL     1       2.982  -1.161  -0.682  0.00  0.00    +0.000 A 
ATOM     18  C   UNL     1       2.423  -2.396  -1.030  0.00  0.00    +0.000 A 
ATOM     19  C   UNL     1       3.150  -3.298  -1.815  0.00  0.00    +0.000 A 
ATOM     20  C   UNL     1       4.441  -2.976  -2.259  0.00  0.00    +0.000 A 
ATOM     21  C   UNL     1       4.981  -1.724  -1.927  0.00  0.00    +0.000 A 
ATOM     22  C   UNL     1       4.256  -0.820  -1.150  0.00  0.00    +0.000 A 
BRANCH  17  24
ATOM     23  N   UNL     1       1.376  -0.686   1.084  0.00  0.00    +0.000 N 
ATOM     24  C   UNL     1       2.266  -0.182   0.175  0.00  0.00    +0.000 C 
ATOM     25  O   UNL     1       2.494   1.017   0.116  0.00  0.00    +0.000 OA
ATOM     26  H   UNL     1       0.996  -0.023   1.747  0.00  0.00    +0.000 HD
ATOM     27  H   UNL     1       1.368  -1.662   1.341  0.00  0.00    +0.000 HD
ENDBRANCH  17  24
ENDBRANCH  16  20
ENDBRANCH   1  16
TORSDOF 4
