REMARK  Name = 
REMARK  9 active torsions:
REMARK  status: ('A' for Active; 'I' for Inactive)
REMARK    1  A    between atoms: C_1  and  N_2
REMARK    2  A    between atoms: N_2  and  C_3
REMARK    3  A    between atoms: N_2  and  C_4
REMARK    4  A    between atoms: C_4  and  C_5
REMARK    5  A    between atoms: C_5  and  O_6
REMARK    6  A    between atoms: C_5  and  C_7
REMARK    7  A    between atoms: C_10  and  C_11
REMARK    8  A    between atoms: C_11  and  N_12
REMARK    9  A    between atoms: C_17  and  C_18
REMARK                            x       y       z     vdW  Elec       q    Type
REMARK                         _______ _______ _______ _____ _____    ______ ____
ROOT
ATOM      1  C   UNL     1       6.287   6.901   1.636  0.00  0.00    +0.000 C 
ENDROOT
BRANCH   1   2
ATOM      2  N   UNL     1       5.581   7.335   2.834  0.00  0.00    +0.000 N 
ATOM      3  C   UNL     1       6.090   7.178   4.098  0.00  0.00    +0.000 A 
ATOM      4  N   UNL     1       5.152   7.239   5.012  0.00  0.00    +0.000 NA
ATOM      5  C   UNL     1       3.992   7.390   4.305  0.00  0.00    +0.000 A 
ATOM      6  C   UNL     1       2.684   7.258   4.758  0.00  0.00    +0.000 A 
ATOM      7  C   UNL     1       1.647   7.332   3.831  0.00  0.00    +0.000 A 
ATOM      8  C   UNL     1       1.893   7.740   2.506  0.00  0.00    +0.000 A 
ATOM      9  C   UNL     1       3.209   7.913   2.041  0.00  0.00    +0.000 A 
ATOM     10  C   UNL     1       4.236   7.621   2.951  0.00  0.00    +0.000 A 
BRANCH   7  11
ATOM     11  C   UNL     1       0.292   6.888   4.235  0.00  0.00    +0.000 C 
ATOM     12  N   UNL     1       0.241   5.870   5.150  0.00  0.00    +0.000 N 
ATOM     13  O   UNL     1      -0.724   7.364   3.744  0.00  0.00    +0.000 OA
ATOM     14  H   UNL     1       1.060   5.327   5.413  0.00  0.00    +0.000 HD
ATOM     15  H   UNL     1      -0.668   5.495   5.375  0.00  0.00    +0.000 HD
ENDBRANCH   7  11
ENDBRANCH   1   2
BRANCH   1  19
ATOM     16  C   UNL     1       4.957   2.901   0.509  0.00  0.00    +0.000 A 
ATOM     17  C   UNL     1       4.492   4.039  -0.163  0.00  0.00    +0.000 A 
ATOM     18  C   UNL     1       4.933   5.322   0.185  0.00  0.00    +0.000 A 
ATOM     19  C   UNL     1       5.851   5.510   1.224  0.00  0.00    +0.000 A 
ATOM     20  C   UNL     1       6.321   4.376   1.902  0.00  0.00    +0.000 A 
ATOM     21  C   UNL     1       5.878   3.094   1.553  0.00  0.00    +0.000 A 
BRANCH  16  22
ATOM     22  C   UNL     1       4.499   1.484   0.177  0.00  0.00    +0.000 C 
BRANCH  22  23
ATOM     23  O   UNL     1       5.669   0.700  -0.077  0.00  0.00    +0.000 OA
ATOM     24  H   UNL     1       6.007   0.971  -0.946  0.00  0.00    +0.000 HD
ENDBRANCH  22  23
BRANCH  22  25
ATOM     25  C   UNL     1       3.483   1.371  -1.008  0.00  0.00    +0.000 C 
BRANCH  25  27
ATOM     26  C   UNL     1       2.302  -0.621  -0.272  0.00  0.00    +0.000 C 
ATOM     27  N   UNL     1       3.020   0.012  -1.379  0.00  0.00    +0.000 NA
ATOM     28  C   UNL     1       2.141   0.079  -2.554  0.00  0.00    +0.000 C 
ENDBRANCH  25  27
ENDBRANCH  22  25
ENDBRANCH  16  22
ENDBRANCH   1  19
TORSDOF 7
