REMARK  Name = 
REMARK  7 active torsions:
REMARK  status: ('A' for Active; 'I' for Inactive)
REMARK    1  A    between atoms: C_2  and  C_4
REMARK    2  A    between atoms: C_7  and  O_8
REMARK    3  A    between atoms: O_8  and  C_9
REMARK    4  A    between atoms: C_9  and  C_10
REMARK    5  A    between atoms: C_14  and  C_15
REMARK    6  A    between atoms: C_19  and  O_20
REMARK    7  A    between atoms: O_20  and  C_21
REMARK                            x       y       z     vdW  Elec       q    Type
REMARK                         _______ _______ _______ _____ _____    ______ ____
ROOT
ATOM      1  C   UNL     1       5.199  -6.061   2.987  0.00  0.00    +0.000 A 
ATOM      2  C   UNL     1       6.592  -5.996   3.130  0.00  0.00    +0.000 A 
ATOM      3  C   UNL     1       7.193  -6.075   4.385  0.00  0.00    +0.000 A 
ATOM      4  C   UNL     1       6.405  -6.208   5.529  0.00  0.00    +0.000 A 
ATOM      5  C   UNL     1       5.006  -6.287   5.442  0.00  0.00    +0.000 A 
ATOM      6  C   UNL     1       4.435  -6.247   4.156  0.00  0.00    +0.000 A 
ENDROOT
BRANCH   5   7
ATOM      7  C   UNL     1       4.153  -6.323   6.649  0.00  0.00    +0.000 A 
ATOM      8  C   UNL     1       4.456  -5.528   7.761  0.00  0.00    +0.000 A 
ATOM      9  C   UNL     1       3.607  -5.544   8.853  0.00  0.00    +0.000 A 
ATOM     10  N   UNL     1       2.477  -6.274   8.911  0.00  0.00    +0.000 NA
ATOM     11  C   UNL     1       2.174  -7.037   7.843  0.00  0.00    +0.000 A 
ATOM     12  C   UNL     1       2.987  -7.105   6.716  0.00  0.00    +0.000 A 
BRANCH  11  13
ATOM     13  O   UNL     1       1.023  -7.747   8.012  0.00  0.00    +0.000 OA
BRANCH  13  14
ATOM     14  C   UNL     1       0.263  -7.889   6.833  0.00  0.00    +0.000 C 
ATOM     15  F   UNL     1       0.689  -9.000   6.179  0.00  0.00    +0.000 F 
ATOM     16  F   UNL     1      -1.023  -8.128   7.198  0.00  0.00    +0.000 F 
ENDBRANCH  13  14
ENDBRANCH  11  13
ENDBRANCH   5   7
BRANCH   1  17
ATOM     17  C   UNL     1       4.552  -5.874   1.627  0.00  0.00    +0.000 C 
ATOM     18  C   UNL     1       3.244  -5.092   1.515  0.00  0.00    +0.000 C 
ATOM     19  C   UNL     1       4.515  -4.464   1.063  0.00  0.00    +0.000 C 
BRANCH  17  20
ATOM     20  O   UNL     1       4.524  -7.041   0.774  0.00  0.00    +0.000 OA
BRANCH  20  24
ATOM     21  C   UNL     1       7.024  -7.536  -2.369  0.00  0.00    +0.000 A 
ATOM     22  C   UNL     1       7.017  -6.329  -1.683  0.00  0.00    +0.000 A 
ATOM     23  N   UNL     1       6.258  -6.126  -0.574  0.00  0.00    +0.000 NA
ATOM     24  C   UNL     1       5.494  -7.176  -0.199  0.00  0.00    +0.000 A 
ATOM     25  C   UNL     1       5.535  -8.398  -0.865  0.00  0.00    +0.000 A 
ATOM     26  N   UNL     1       6.297  -8.617  -1.965  0.00  0.00    +0.000 NA
BRANCH  21  28
ATOM     27  N   UNL     1       7.630  -8.853  -4.305  0.00  0.00    +0.000 N 
ATOM     28  C   UNL     1       7.773  -7.660  -3.648  0.00  0.00    +0.000 C 
ATOM     29  O   UNL     1       8.450  -6.744  -4.103  0.00  0.00    +0.000 OA
ATOM     30  H   UNL     1       8.047  -8.968  -5.217  0.00  0.00    +0.000 HD
ATOM     31  H   UNL     1       7.023  -9.571  -3.925  0.00  0.00    +0.000 HD
ENDBRANCH  21  28
ENDBRANCH  20  24
ENDBRANCH  17  20
ENDBRANCH   1  17
TORSDOF 7
