REMARK  Name = 
REMARK  4 active torsions:
REMARK  status: ('A' for Active; 'I' for Inactive)
REMARK    1  A    between atoms: C_2  and  C_3
REMARK    2  A    between atoms: C_6  and  C_7
REMARK    3  A    between atoms: C_7  and  C_8
REMARK    4  A    between atoms: C_11  and  C_12
REMARK                            x       y       z     vdW  Elec       q    Type
REMARK                         _______ _______ _______ _____ _____    ______ ____
ROOT
ATOM      1  C   UNL     1      -3.875  -1.222   0.518  0.00  0.00    +0.000 A 
ATOM      2  C   UNL     1      -3.676  -2.371  -0.261  0.00  0.00    +0.000 A 
ATOM      3  C   UNL     1      -3.664  -3.642   0.312  0.00  0.00    +0.000 A 
ATOM      4  C   UNL     1      -3.874  -3.808   1.686  0.00  0.00    +0.000 A 
ATOM      5  C   UNL     1      -4.159  -2.677   2.459  0.00  0.00    +0.000 A 
ATOM      6  C   UNL     1      -4.169  -1.405   1.879  0.00  0.00    +0.000 A 
ENDROOT
BRANCH   4   7
ATOM      7  C   UNL     1      -3.821  -5.180   2.329  0.00  0.00    +0.000 C 
ATOM      8  C   UNL     1      -2.462  -5.875   2.138  0.00  0.00    +0.000 C 
ATOM      9  C   UNL     1      -2.510  -7.300   2.674  0.00  0.00    +0.000 C 
ATOM     10  O   UNL     1      -3.576  -8.032   2.072  0.00  0.00    +0.000 OA
ATOM     11  C   UNL     1      -4.852  -7.469   2.368  0.00  0.00    +0.000 C 
ATOM     12  C   UNL     1      -4.960  -6.062   1.805  0.00  0.00    +0.000 C 
ENDBRANCH   4   7
BRANCH   1  13
ATOM     13  C   UNL     1      -3.656   0.163  -0.084  0.00  0.00    +0.000 C 
ATOM     14  C   UNL     1      -2.748   1.136   0.668  0.00  0.00    +0.000 C 
ATOM     15  C   UNL     1      -2.220   0.444  -0.544  0.00  0.00    +0.000 C 
BRANCH  13  19
ATOM     16  C   UNL     1      -6.711   1.901  -2.572  0.00  0.00    +0.000 A 
ATOM     17  C   UNL     1      -6.748   2.131  -1.201  0.00  0.00    +0.000 A 
ATOM     18  C   UNL     1      -5.779   1.543  -0.383  0.00  0.00    +0.000 A 
ATOM     19  C   UNL     1      -4.780   0.743  -0.945  0.00  0.00    +0.000 A 
ATOM     20  N   UNL     1      -4.756   0.511  -2.287  0.00  0.00    +0.000 NA
ATOM     21  C   UNL     1      -5.709   1.083  -3.062  0.00  0.00    +0.000 A 
BRANCH  16  23
ATOM     22  N   UNL     1      -8.429   2.987  -4.174  0.00  0.00    +0.000 NA
ATOM     23  C   UNL     1      -7.663   2.498  -3.457  0.00  0.00    +0.000 C 
ENDBRANCH  16  23
ENDBRANCH  13  19
ENDBRANCH   1  13
TORSDOF 4
