REMARK  Name = 
REMARK  4 active torsions:
REMARK  status: ('A' for Active; 'I' for Inactive)
REMARK    1  A    between atoms: C_2  and  C_4
REMARK    2  A    between atoms: C_7  and  O_8
REMARK    3  A    between atoms: O_8  and  C_9
REMARK    4  A    between atoms: C_9  and  C_10
REMARK                            x       y       z     vdW  Elec       q    Type
REMARK                         _______ _______ _______ _____ _____    ______ ____
ROOT
ATOM      1  C   UNL     1       3.337  -2.339  -1.379  0.00  0.00    +0.000 A 
ATOM      2  C   UNL     1       3.358  -3.020  -2.602  0.00  0.00    +0.000 A 
ATOM      3  C   UNL     1       4.073  -2.499  -3.686  0.00  0.00    +0.000 A 
ATOM      4  C   UNL     1       4.757  -1.293  -3.559  0.00  0.00    +0.000 A 
ATOM      5  C   UNL     1       4.744  -0.617  -2.337  0.00  0.00    +0.000 A 
ATOM      6  C   UNL     1       4.029  -1.130  -1.251  0.00  0.00    +0.000 A 
ENDROOT
BRANCH   1   8
ATOM      7  N   UNL     1       2.352  -4.199  -0.146  0.00  0.00    +0.000 N 
ATOM      8  C   UNL     1       2.573  -2.851  -0.211  0.00  0.00    +0.000 C 
ATOM      9  O   UNL     1       2.180  -2.105   0.677  0.00  0.00    +0.000 OA
ATOM     10  H   UNL     1       1.913  -4.539   0.699  0.00  0.00    +0.000 HD
ATOM     11  H   UNL     1       2.877  -4.860  -0.701  0.00  0.00    +0.000 HD
ENDBRANCH   1   8
BRANCH   4  12
ATOM     12  O   UNL     1       5.518  -0.729  -4.547  0.00  0.00    +0.000 OA
BRANCH  12  13
ATOM     13  C   UNL     1       5.054  -0.824  -5.920  0.00  0.00    +0.000 C 
ATOM     14  C   UNL     1       5.034   0.559  -6.565  0.00  0.00    +0.000 C 
ATOM     15  C   UNL     1       3.748  -0.155  -6.309  0.00  0.00    +0.000 C 
BRANCH  13  16
ATOM     16  C   UNL     1       5.588  -1.979  -6.757  0.00  0.00    +0.000 A 
ATOM     17  C   UNL     1       4.735  -2.960  -7.299  0.00  0.00    +0.000 A 
ATOM     18  C   UNL     1       5.226  -4.012  -8.077  0.00  0.00    +0.000 A 
ATOM     19  C   UNL     1       6.590  -4.107  -8.331  0.00  0.00    +0.000 A 
ATOM     20  C   UNL     1       7.460  -3.158  -7.803  0.00  0.00    +0.000 A 
ATOM     21  C   UNL     1       6.962  -2.110  -7.021  0.00  0.00    +0.000 A 
ENDBRANCH  13  16
ENDBRANCH  12  13
ENDBRANCH   4  12
TORSDOF 4
