REMARK  Name = 
REMARK  7 active torsions:
REMARK  status: ('A' for Active; 'I' for Inactive)
REMARK    1  A    between atoms: C_2  and  C_3
REMARK    2  A    between atoms: C_3  and  N_4
REMARK    3  A    between atoms: C_3  and  C_22
REMARK    4  A    between atoms: C_5  and  C_7
REMARK    5  A    between atoms: C_10  and  C_11
REMARK    6  A    between atoms: C_11  and  N_12
REMARK    7  A    between atoms: C_13  and  C_15
REMARK                            x       y       z     vdW  Elec       q    Type
REMARK                         _______ _______ _______ _____ _____    ______ ____
ROOT
ATOM      1  N   UNL     1      10.719   2.546   4.551  0.00  0.00    +0.000 N 
ATOM      2  C   UNL     1       9.496   1.912   4.579  0.00  0.00    +0.000 C 
ATOM      3  O   UNL     1       8.439   2.483   4.343  0.00  0.00    +0.000 OA
ATOM      4  H   UNL     1      11.448   2.103   5.108  0.00  0.00    +0.000 HD
ENDROOT
BRANCH   2   5
ATOM      5  C   UNL     1       9.632   0.409   4.830  0.00  0.00    +0.000 C 
ATOM      6  C   UNL     1       8.385  -0.249   5.436  0.00  0.00    +0.000 C 
ATOM      7  C   UNL     1       7.292  -0.629   4.437  0.00  0.00    +0.000 C 
ATOM      8  C   UNL     1       7.817  -1.332   3.178  0.00  0.00    +0.000 C 
ATOM      9  C   UNL     1       8.939  -0.481   2.554  0.00  0.00    +0.000 C 
ATOM     10  C   UNL     1      10.099  -0.257   3.530  0.00  0.00    +0.000 C 
BRANCH   8  11
ATOM     11  C   UNL     1       8.370  -2.741   3.428  0.00  0.00    +0.000 C 
BRANCH  11  12
ATOM     12  N   UNL     1       7.446  -3.748   3.871  0.00  0.00    +0.000 N 
ATOM     13  C   UNL     1       7.951  -5.020   4.089  0.00  0.00    +0.000 C 
ATOM     14  O   UNL     1       9.105  -5.337   3.800  0.00  0.00    +0.000 OA
ATOM     15  H   UNL     1       6.539  -3.542   4.284  0.00  0.00    +0.000 HD
BRANCH  13  16
ATOM     16  C   UNL     1       7.025  -5.965   4.715  0.00  0.00    +0.000 A 
ATOM     17  C   UNL     1       7.315  -7.320   5.027  0.00  0.00    +0.000 A 
ATOM     18  C   UNL     1       6.164  -7.815   5.584  0.00  0.00    +0.000 A 
ATOM     19  N   UNL     1       5.275  -6.783   5.586  0.00  0.00    +0.000 N 
ATOM     20  N   UNL     1       5.768  -5.639   5.077  0.00  0.00    +0.000 NA
ATOM     21  H   UNL     1       4.316  -6.786   5.918  0.00  0.00    +0.000 HD
ENDBRANCH  13  16
ENDBRANCH  11  12
ENDBRANCH   8  11
ENDBRANCH   2   5
BRANCH   1  22
ATOM     22  C   UNL     1      10.832   3.989   4.439  0.00  0.00    +0.000 C 
BRANCH  22  23
ATOM     23  C   UNL     1      12.181   4.340   3.822  0.00  0.00    +0.000 A 
ATOM     24  C   UNL     1      12.348   5.377   2.915  0.00  0.00    +0.000 A 
ATOM     25  S   UNL     1      13.924   5.457   2.256  0.00  0.00    +0.000 S 
ATOM     26  C   UNL     1      14.462   4.165   3.222  0.00  0.00    +0.000 A 
ATOM     27  N   UNL     1      15.736   3.697   3.137  0.00  0.00    +0.000 NA
ATOM     28  C   UNL     1      16.015   2.750   3.970  0.00  0.00    +0.000 A 
ATOM     29  N   UNL     1      15.137   2.233   4.889  0.00  0.00    +0.000 N 
ATOM     30  C   UNL     1      13.833   2.654   4.991  0.00  0.00    +0.000 A 
ATOM     31  O   UNL     1      13.049   2.160   5.796  0.00  0.00    +0.000 OA
ATOM     32  C   UNL     1      13.462   3.703   4.058  0.00  0.00    +0.000 A 
ATOM     33  H   UNL     1      15.428   1.505   5.526  0.00  0.00    +0.000 HD
ENDBRANCH  22  23
BRANCH  22  35
ATOM     34  N   UNL     1      10.523   5.146   6.794  0.00  0.00    +0.000 NA
ATOM     35  C   UNL     1      10.660   4.645   5.750  0.00  0.00    +0.000 C 
ENDBRANCH  22  35
ENDBRANCH   1  22
TORSDOF 7
