REMARK  Name = 
REMARK  6 active torsions:
REMARK  status: ('A' for Active; 'I' for Inactive)
REMARK    1  A    between atoms: C_1  and  O_2
REMARK    2  A    between atoms: O_2  and  C_3
REMARK    3  A    between atoms: C_5  and  C_6
REMARK    4  A    between atoms: C_11  and  O_12
REMARK    5  A    between atoms: O_12  and  C_13
REMARK    6  A    between atoms: C_13  and  C_14
REMARK                            x       y       z     vdW  Elec       q    Type
REMARK                         _______ _______ _______ _____ _____    ______ ____
ROOT
ATOM      1  C   UNL     1       3.090   0.520  -1.076  0.00  0.00    +0.000 A 
ATOM      2  C   UNL     1       2.659   1.752  -1.579  0.00  0.00    +0.000 A 
ATOM      3  C   UNL     1       3.274   2.297  -2.706  0.00  0.00    +0.000 A 
ATOM      4  C   UNL     1       4.302   1.576  -3.297  0.00  0.00    +0.000 A 
ATOM      5  N   UNL     1       4.716   0.359  -2.867  0.00  0.00    +0.000 NA
ATOM      6  C   UNL     1       4.097  -0.154  -1.776  0.00  0.00    +0.000 A 
ENDROOT
BRANCH   3   7
ATOM      7  C   UNL     1       2.918   3.615  -3.267  0.00  0.00    +0.000 C 
ATOM      8  N   UNL     1       1.650   4.076  -3.048  0.00  0.00    +0.000 N 
ATOM      9  O   UNL     1       3.720   4.261  -3.928  0.00  0.00    +0.000 OA
ATOM     10  H   UNL     1       0.901   3.499  -2.693  0.00  0.00    +0.000 HD
ATOM     11  H   UNL     1       1.397   4.942  -3.508  0.00  0.00    +0.000 HD
ENDBRANCH   3   7
BRANCH   1  13
ATOM     12  C   UNL     1       3.142  -0.741   0.932  0.00  0.00    +0.000 C 
ATOM     13  O   UNL     1       2.425   0.115   0.048  0.00  0.00    +0.000 OA
ENDBRANCH   1  13
BRANCH   6  14
ATOM     14  O   UNL     1       4.535  -1.374  -1.317  0.00  0.00    +0.000 OA
BRANCH  14  15
ATOM     15  C   UNL     1       5.110  -2.188  -2.341  0.00  0.00    +0.000 C 
BRANCH  15  16
ATOM     16  C   UNL     1       5.579  -3.487  -1.718  0.00  0.00    +0.000 A 
ATOM     17  C   UNL     1       6.590  -3.472  -0.755  0.00  0.00    +0.000 A 
ATOM     18  C   UNL     1       7.024  -4.678  -0.204  0.00  0.00    +0.000 A 
ATOM     19  C   UNL     1       6.437  -5.863  -0.626  0.00  0.00    +0.000 A 
ATOM     20 CL   UNL     1       6.942  -7.370   0.023  0.00  0.00    +0.000 Cl
ATOM     21  C   UNL     1       5.438  -5.797  -1.583  0.00  0.00    +0.000 A 
ATOM     22  N   UNL     1       4.996  -4.640  -2.138  0.00  0.00    +0.000 NA
ENDBRANCH  15  16
ENDBRANCH  14  15
ENDBRANCH   6  14
TORSDOF 5
