REMARK  Name = 
REMARK  7 active torsions:
REMARK  status: ('A' for Active; 'I' for Inactive)
REMARK    1  A    between atoms: N_1  and  C_2
REMARK    2  A    between atoms: C_2  and  C_3
REMARK    3  A    between atoms: C_7  and  C_8
REMARK    4  A    between atoms: C_8  and  C_9
REMARK    5  A    between atoms: C_9  and  C_10
REMARK    6  A    between atoms: C_10  and  N_11
REMARK    7  A    between atoms: C_15  and  C_16
REMARK                            x       y       z     vdW  Elec       q    Type
REMARK                         _______ _______ _______ _____ _____    ______ ____
ROOT
ATOM      1  C   UNL     1       6.550   5.267   3.617  0.00  0.00    +0.000 C 
ENDROOT
BRANCH   1   2
ATOM      2  N   UNL     1       6.609   6.718   3.802  0.00  0.00    +0.000 N 
ATOM      3  C   UNL     1       7.462   7.144   4.831  0.00  0.00    +0.000 A 
ATOM      4  C   UNL     1       7.580   8.510   5.078  0.00  0.00    +0.000 A 
ATOM      5  C   UNL     1       8.424   8.960   6.096  0.00  0.00    +0.000 A 
ATOM      6  C   UNL     1       9.138   8.034   6.855  0.00  0.00    +0.000 A 
ATOM      7  C   UNL     1       8.973   6.698   6.533  0.00  0.00    +0.000 A 
ATOM      8  N   UNL     1       8.165   6.242   5.544  0.00  0.00    +0.000 NA
ATOM      9  H   UNL     1       5.687   7.120   3.959  0.00  0.00    +0.000 HD
BRANCH   6  10
ATOM     10  C   UNL     1      10.018   8.512   7.951  0.00  0.00    +0.000 C 
ATOM     11  N   UNL     1      10.703   7.593   8.696  0.00  0.00    +0.000 N 
ATOM     12  O   UNL     1      10.129   9.707   8.196  0.00  0.00    +0.000 OA
ATOM     13  H   UNL     1      10.684   6.594   8.582  0.00  0.00    +0.000 HD
ATOM     14  H   UNL     1      11.285   7.966   9.438  0.00  0.00    +0.000 HD
ENDBRANCH   6  10
ENDBRANCH   1   2
BRANCH   1  15
ATOM     15  C   UNL     1       5.557   4.950   2.497  0.00  0.00    +0.000 C 
BRANCH  15  16
ATOM     16  C   UNL     1       5.441   3.446   2.232  0.00  0.00    +0.000 C 
BRANCH  16  21
ATOM     17  C   UNL     1       2.114   2.888   0.426  0.00  0.00    +0.000 A 
ATOM     18  C   UNL     1       2.541   2.825  -0.906  0.00  0.00    +0.000 A 
ATOM     19  C   UNL     1       3.898   2.922  -1.219  0.00  0.00    +0.000 A 
ATOM     20  C   UNL     1       4.842   3.099  -0.206  0.00  0.00    +0.000 A 
ATOM     21  C   UNL     1       4.440   3.166   1.133  0.00  0.00    +0.000 A 
ATOM     22  C   UNL     1       3.077   3.041   1.438  0.00  0.00    +0.000 A 
BRANCH  17  23
ATOM     23  C   UNL     1       0.650   2.802   0.774  0.00  0.00    +0.000 C 
BRANCH  23  24
ATOM     24  N   UNL     1       0.192   4.001   1.470  0.00  0.00    +0.000 NA
ATOM     25  H   UNL     1      -0.806   3.924   1.648  0.00  0.00    +0.000 HD
ATOM     26  H   UNL     1       0.315   4.802   0.851  0.00  0.00    +0.000 HD
ENDBRANCH  23  24
ENDBRANCH  17  23
ENDBRANCH  16  21
ENDBRANCH  15  16
ENDBRANCH   1  15
TORSDOF 7
