REMARK  Name = 
REMARK  5 active torsions:
REMARK  status: ('A' for Active; 'I' for Inactive)
REMARK    1  A    between atoms: C_1  and  C_2
REMARK    2  A    between atoms: C_6  and  N_7
REMARK    3  A    between atoms: N_7  and  C_8
REMARK    4  A    between atoms: C_8  and  C_9
REMARK    5  A    between atoms: C_13  and  C_14
REMARK                            x       y       z     vdW  Elec       q    Type
REMARK                         _______ _______ _______ _____ _____    ______ ____
ROOT
ATOM      1  C   UNL     1      -3.479   4.045   0.068  0.00  0.00    +0.000 A 
ATOM      2  C   UNL     1      -4.757   4.368   0.535  0.00  0.00    +0.000 A 
ATOM      3  C   UNL     1      -5.137   5.699   0.685  0.00  0.00    +0.000 A 
ATOM      4  C   UNL     1      -4.242   6.722   0.364  0.00  0.00    +0.000 A 
ATOM      5  C   UNL     1      -2.947   6.443  -0.111  0.00  0.00    +0.000 A 
ATOM      6  C   UNL     1      -2.595   5.087  -0.267  0.00  0.00    +0.000 A 
ENDROOT
BRANCH   5   7
ATOM      7  C   UNL     1      -1.982   7.528  -0.395  0.00  0.00    +0.000 A 
ATOM      8  C   UNL     1      -1.048   7.456  -1.439  0.00  0.00    +0.000 A 
ATOM      9  C   UNL     1      -0.134   8.489  -1.653  0.00  0.00    +0.000 A 
ATOM     10  C   UNL     1      -0.178   9.590  -0.817  0.00  0.00    +0.000 A 
ATOM     11  N   UNL     1      -1.054   9.717   0.197  0.00  0.00    +0.000 NA
ATOM     12  C   UNL     1      -1.923   8.691   0.381  0.00  0.00    +0.000 A 
ENDBRANCH   5   7
BRANCH   1  13
ATOM     13  C   UNL     1      -3.048   2.598  -0.041  0.00  0.00    +0.000 C 
BRANCH  13  14
ATOM     14  N   UNL     1      -3.606   1.990  -1.232  0.00  0.00    +0.000 N 
ATOM     15  H   UNL     1      -3.488   2.533  -2.083  0.00  0.00    +0.000 HD
BRANCH  14  21
ATOM     16  C   UNL     1      -2.647  -1.127  -4.686  0.00  0.00    +0.000 C 
ATOM     17  C   UNL     1      -2.793  -0.864  -3.216  0.00  0.00    +0.000 A 
ATOM     18  C   UNL     1      -2.663  -1.900  -2.302  0.00  0.00    +0.000 A 
ATOM     19  C   UNL     1      -2.835  -1.615  -0.956  0.00  0.00    +0.000 A 
ATOM     20  C   UNL     1      -3.139  -0.314  -0.569  0.00  0.00    +0.000 A 
ATOM     21  C   UNL     1      -3.244   0.682  -1.533  0.00  0.00    +0.000 A 
ATOM     22  N   UNL     1      -3.069   0.414  -2.843  0.00  0.00    +0.000 NA
ENDBRANCH  14  21
ENDBRANCH  13  14
ENDBRANCH   1  13
TORSDOF 4
