REMARK  Name = 
REMARK  7 active torsions:
REMARK  status: ('A' for Active; 'I' for Inactive)
REMARK    1  A    between atoms: C_2  and  C_3
REMARK    2  A    between atoms: C_5  and  C_6
REMARK    3  A    between atoms: C_6  and  O_7
REMARK    4  A    between atoms: C_9  and  C_10
REMARK    5  A    between atoms: C_14  and  C_15
REMARK    6  A    between atoms: C_15  and  N_16
REMARK    7  A    between atoms: C_20  and  C_21
REMARK                            x       y       z     vdW  Elec       q    Type
REMARK                         _______ _______ _______ _____ _____    ______ ____
ROOT
ATOM      1  C   UNL     1       2.389   2.485  -0.124  0.00  0.00    +0.000 A 
ATOM      2  C   UNL     1       3.328   2.756  -1.115  0.00  0.00    +0.000 A 
ATOM      3  C   UNL     1       4.005   3.970  -1.094  0.00  0.00    +0.000 A 
ATOM      4  C   UNL     1       3.732   4.881  -0.080  0.00  0.00    +0.000 A 
ATOM      5  C   UNL     1       2.789   4.565   0.897  0.00  0.00    +0.000 A 
ATOM      6  N   UNL     1       2.116   3.381   0.858  0.00  0.00    +0.000 NA
ENDROOT
BRANCH   1  11
ATOM      7  C   UNL     1      -0.449   0.030   0.473  0.00  0.00    +0.000 A 
ATOM      8  C   UNL     1       0.102  -1.164  -0.002  0.00  0.00    +0.000 A 
ATOM      9  C   UNL     1       1.412  -1.191  -0.493  0.00  0.00    +0.000 A 
ATOM     10  C   UNL     1       2.154   0.003  -0.516  0.00  0.00    +0.000 A 
ATOM     11  C   UNL     1       1.618   1.226  -0.070  0.00  0.00    +0.000 A 
ATOM     12  C   UNL     1       0.306   1.209   0.441  0.00  0.00    +0.000 A 
BRANCH   7  14
ATOM     13  N   UNL     1      -2.871   0.043   1.401  0.00  0.00    +0.000 NA
ATOM     14  C   UNL     1      -1.788   0.048   0.990  0.00  0.00    +0.000 C 
ENDBRANCH   7  14
BRANCH   9  15
ATOM     15  C   UNL     1       2.039  -2.474  -0.968  0.00  0.00    +0.000 C 
BRANCH  15  16
ATOM     16  O   UNL     1       2.455  -2.341  -2.319  0.00  0.00    +0.000 OA
ATOM     17  H   UNL     1       1.675  -2.063  -2.829  0.00  0.00    +0.000 HD
ENDBRANCH  15  16
ENDBRANCH   9  15
ENDBRANCH   1  11
BRANCH   5  18
ATOM     18  C   UNL     1       2.487   5.532   2.051  0.00  0.00    +0.000 C 
ATOM     19  C   UNL     1       3.577   5.770   3.081  0.00  0.00    +0.000 C 
ATOM     20  C   UNL     1       2.410   4.917   3.449  0.00  0.00    +0.000 C 
BRANCH  18  21
ATOM     21  N   UNL     1       1.408   6.501   1.765  0.00  0.00    +0.000 N 
ATOM     22  C   UNL     1       1.589   7.702   1.075  0.00  0.00    +0.000 A 
ATOM     23  C   UNL     1       2.666   8.552   1.300  0.00  0.00    +0.000 A 
ATOM     24  C   UNL     1       2.692   9.810   0.691  0.00  0.00    +0.000 A 
ATOM     25  C   UNL     1       1.642  10.185  -0.142  0.00  0.00    +0.000 A 
ATOM     26  C   UNL     1       0.632   9.261  -0.357  0.00  0.00    +0.000 A 
ATOM     27  N   UNL     1       0.582   8.044   0.244  0.00  0.00    +0.000 NA
ATOM     28  H   UNL     1       0.565   6.081   1.375  0.00  0.00    +0.000 HD
BRANCH  25  29
ATOM     29  C   UNL     1       1.556  11.508  -0.793  0.00  0.00    +0.000 C 
ATOM     30  N   UNL     1       2.184  12.553  -0.173  0.00  0.00    +0.000 N 
ATOM     31  O   UNL     1       0.916  11.674  -1.823  0.00  0.00    +0.000 OA
ATOM     32  H   UNL     1       2.500  12.509   0.786  0.00  0.00    +0.000 HD
ATOM     33  H   UNL     1       2.021  13.471  -0.566  0.00  0.00    +0.000 HD
ENDBRANCH  25  29
ENDBRANCH  18  21
ENDBRANCH   5  18
TORSDOF 7
