REMARK  Name = 
REMARK  9 active torsions:
REMARK  status: ('A' for Active; 'I' for Inactive)
REMARK    1  A    between atoms: C_1  and  C_2
REMARK    2  A    between atoms: C_2  and  N_3
REMARK    3  A    between atoms: C_2  and  C_17
REMARK    4  A    between atoms: C_4  and  C_6
REMARK    5  A    between atoms: N_12  and  C_13
REMARK    6  A    between atoms: C_20  and  C_21
REMARK    7  A    between atoms: C_21  and  N_22
REMARK    8  A    between atoms: C_23  and  C_25
REMARK    9  A    between atoms: N_29  and  C_30
REMARK                            x       y       z     vdW  Elec       q    Type
REMARK                         _______ _______ _______ _____ _____    ______ ____
ROOT
ATOM      1  C   UNL     1       3.777   0.646   0.745  0.00  0.00    +0.000 C 
ATOM      2  C   UNL     1       2.593  -0.072   0.095  0.00  0.00    +0.000 C 
ENDROOT
BRANCH   2   3
ATOM      3  C   UNL     1       3.029  -0.912  -1.096  0.00  0.00    +0.000 A 
ATOM      4  C   UNL     1       2.795  -2.294  -1.094  0.00  0.00    +0.000 A 
ATOM      5  C   UNL     1       3.127  -3.075  -2.204  0.00  0.00    +0.000 A 
ATOM      6  C   UNL     1       3.707  -2.498  -3.341  0.00  0.00    +0.000 A 
ATOM      7  C   UNL     1       3.948  -1.118  -3.345  0.00  0.00    +0.000 A 
ATOM      8  C   UNL     1       3.621  -0.337  -2.232  0.00  0.00    +0.000 A 
BRANCH   6   9
ATOM      9  C   UNL     1       4.037  -3.337  -4.548  0.00  0.00    +0.000 C 
BRANCH   9  10
ATOM     10  N   UNL     1       2.920  -3.423  -5.460  0.00  0.00    +0.000 N 
ATOM     11  C   UNL     1       3.030  -4.094  -6.658  0.00  0.00    +0.000 C 
ATOM     12  O   UNL     1       4.083  -4.630  -6.996  0.00  0.00    +0.000 OA
ATOM     13  H   UNL     1       2.033  -3.049  -5.161  0.00  0.00    +0.000 HD
BRANCH  11  14
ATOM     14  C   UNL     1       1.835  -4.115  -7.473  0.00  0.00    +0.000 A 
ATOM     15  C   UNL     1       0.587  -3.551  -7.276  0.00  0.00    +0.000 A 
ATOM     16  N   UNL     1      -0.261  -3.801  -8.323  0.00  0.00    +0.000 NA
ATOM     17  C   UNL     1       0.444  -4.514  -9.168  0.00  0.00    +0.000 A 
ATOM     18  N   UNL     1       1.705  -4.742  -8.699  0.00  0.00    +0.000 N 
ATOM     19  C   UNL     1       2.710  -5.516  -9.390  0.00  0.00    +0.000 C 
ENDBRANCH  11  14
ENDBRANCH   9  10
ENDBRANCH   6   9
ENDBRANCH   2   3
BRANCH   2  20
ATOM     20  N   UNL     1       1.576   0.866  -0.339  0.00  0.00    +0.000 N 
ATOM     21  C   UNL     1       0.585   1.355   0.465  0.00  0.00    +0.000 C 
ATOM     22  O   UNL     1       0.390   0.951   1.607  0.00  0.00    +0.000 OA
ATOM     23  H   UNL     1       1.766   1.344  -1.210  0.00  0.00    +0.000 HD
BRANCH  21  24
ATOM     24  C   UNL     1      -0.283   2.366  -0.156  0.00  0.00    +0.000 A 
ATOM     25  C   UNL     1      -1.610   2.488   0.227  0.00  0.00    +0.000 A 
ATOM     26  S   UNL     1      -2.453   3.702  -0.627  0.00  0.00    +0.000 S 
ATOM     27  C   UNL     1      -1.063   4.129  -1.509  0.00  0.00    +0.000 A 
ATOM     28  N   UNL     1      -1.092   5.134  -2.422  0.00  0.00    +0.000 NA
ATOM     29  C   UNL     1       0.041   5.366  -3.002  0.00  0.00    +0.000 A 
ATOM     30  N   UNL     1       1.217   4.685  -2.764  0.00  0.00    +0.000 N 
ATOM     31  C   UNL     1       2.429   5.018  -3.480  0.00  0.00    +0.000 C 
ATOM     32  C   UNL     1       1.276   3.632  -1.857  0.00  0.00    +0.000 A 
ATOM     33  O   UNL     1       2.294   2.969  -1.677  0.00  0.00    +0.000 OA
ATOM     34  C   UNL     1       0.025   3.348  -1.172  0.00  0.00    +0.000 A 
ENDBRANCH  21  24
ENDBRANCH   2  20
TORSDOF 6
