REMARK  Name = 
REMARK  9 active torsions:
REMARK  status: ('A' for Active; 'I' for Inactive)
REMARK    1  A    between atoms: N_1  and  C_2
REMARK    2  A    between atoms: C_2  and  C_3
REMARK    3  A    between atoms: C_3  and  N_4
REMARK    4  A    between atoms: C_7  and  C_8
REMARK    5  A    between atoms: N_10  and  C_11
REMARK    6  A    between atoms: C_11  and  C_12
REMARK    7  A    between atoms: C_15  and  C_16
REMARK    8  A    between atoms: C_16  and  N_17
REMARK    9  A    between atoms: C_18  and  C_20
REMARK                            x       y       z     vdW  Elec       q    Type
REMARK                         _______ _______ _______ _____ _____    ______ ____
ROOT
ATOM      1  C   UNL     1       6.583   3.197   7.324  0.00  0.00    +0.000 A 
ATOM      2  C   UNL     1       7.569   2.591   8.114  0.00  0.00    +0.000 A 
ATOM      3  C   UNL     1       8.687   3.318   8.539  0.00  0.00    +0.000 A 
ATOM      4  C   UNL     1       8.831   4.669   8.198  0.00  0.00    +0.000 A 
ATOM      5  C   UNL     1       7.835   5.278   7.423  0.00  0.00    +0.000 A 
ATOM      6  C   UNL     1       6.718   4.553   7.001  0.00  0.00    +0.000 A 
ENDROOT
BRANCH   1   7
ATOM      7  C   UNL     1       5.396   2.416   6.829  0.00  0.00    +0.000 C 
BRANCH   7  10
ATOM      8  C   UNL     1       3.154   1.724   7.530  0.00  0.00    +0.000 C 
ATOM      9  O   UNL     1       2.980   1.087   6.498  0.00  0.00    +0.000 OA
ATOM     10  N   UNL     1       4.315   2.425   7.785  0.00  0.00    +0.000 N 
ATOM     11  H   UNL     1       4.353   3.087   8.549  0.00  0.00    +0.000 HD
BRANCH   8  15
ATOM     12  N   UNL     1       1.630   0.311  10.484  0.00  0.00    +0.000 NA
ATOM     13  C   UNL     1       0.390   0.666   9.768  0.00  0.00    +0.000 C 
ATOM     14  C   UNL     1       0.840   1.053   8.372  0.00  0.00    +0.000 C 
ATOM     15  C   UNL     1       2.124   1.823   8.640  0.00  0.00    +0.000 C 
ATOM     16  C   UNL     1       2.660   1.219   9.940  0.00  0.00    +0.000 C 
BRANCH  12  17
ATOM     17  C   UNL     1       1.967  -1.114  10.269  0.00  0.00    +0.000 C 
BRANCH  17  18
ATOM     18  C   UNL     1       3.194  -1.589  11.081  0.00  0.00    +0.000 C 
BRANCH  18  19
ATOM     19  N   UNL     1       3.492  -3.003  10.839  0.00  0.00    +0.000 NA
ATOM     20  H   UNL     1       4.340  -3.252  11.346  0.00  0.00    +0.000 HD
ATOM     21  H   UNL     1       3.703  -3.139   9.850  0.00  0.00    +0.000 HD
ENDBRANCH  18  19
ENDBRANCH  17  18
ENDBRANCH  12  17
ENDBRANCH   8  15
ENDBRANCH   7  10
ENDBRANCH   1   7
BRANCH   4  22
ATOM     22  C   UNL     1      10.052   5.452   8.605  0.00  0.00    +0.000 C 
BRANCH  22  23
ATOM     23  N   UNL     1      11.084   5.378   7.599  0.00  0.00    +0.000 N 
ATOM     24  C   UNL     1      12.308   5.966   7.799  0.00  0.00    +0.000 C 
ATOM     25  O   UNL     1      12.588   6.531   8.854  0.00  0.00    +0.000 OA
ATOM     26  H   UNL     1      10.798   5.128   6.656  0.00  0.00    +0.000 HD
BRANCH  24  27
ATOM     27  C   UNL     1      13.290   5.842   6.716  0.00  0.00    +0.000 A 
ATOM     28  C   UNL     1      14.645   5.949   7.003  0.00  0.00    +0.000 A 
ATOM     29  S   UNL     1      15.654   5.753   5.643  0.00  0.00    +0.000 S 
ATOM     30  C   UNL     1      14.315   5.566   4.611  0.00  0.00    +0.000 A 
ATOM     31  N   UNL     1      14.485   5.392   3.272  0.00  0.00    +0.000 NA
ATOM     32  C   UNL     1      13.384   5.292   2.604  0.00  0.00    +0.000 A 
ATOM     33  N   UNL     1      12.130   5.344   3.154  0.00  0.00    +0.000 N 
ATOM     34  C   UNL     1      11.910   5.488   4.504  0.00  0.00    +0.000 A 
ATOM     35  O   UNL     1      10.774   5.482   4.969  0.00  0.00    +0.000 OA
ATOM     36  C   UNL     1      13.115   5.626   5.298  0.00  0.00    +0.000 A 
ATOM     37  H   UNL     1      11.308   5.245   2.576  0.00  0.00    +0.000 HD
ENDBRANCH  24  27
ENDBRANCH  22  23
ENDBRANCH   4  22
TORSDOF 9
