REMARK  Name = 
REMARK  7 active torsions:
REMARK  status: ('A' for Active; 'I' for Inactive)
REMARK    1  A    between atoms: C_1  and  O_2
REMARK    2  A    between atoms: O_2  and  C_3
REMARK    3  A    between atoms: C_8  and  C_9
REMARK    4  A    between atoms: C_9  and  C_10
REMARK    5  A    between atoms: C_13  and  C_14
REMARK    6  A    between atoms: C_14  and  N_15
REMARK    7  A    between atoms: C_16  and  C_18
REMARK                            x       y       z     vdW  Elec       q    Type
REMARK                         _______ _______ _______ _____ _____    ______ ____
ROOT
ATOM      1  C   UNL     1       0.683   1.558   4.175  0.00  0.00    +0.000 C 
ENDROOT
BRANCH   1   5
ATOM      2  C   UNL     1       3.518  -0.863   2.085  0.00  0.00    +0.000 A 
ATOM      3  C   UNL     1       2.180  -1.262   2.129  0.00  0.00    +0.000 A 
ATOM      4  C   UNL     1       1.248  -0.495   2.827  0.00  0.00    +0.000 A 
ATOM      5  C   UNL     1       1.678   0.651   3.490  0.00  0.00    +0.000 A 
ATOM      6  N   UNL     1       2.980   1.035   3.501  0.00  0.00    +0.000 NA
ATOM      7  C   UNL     1       3.862   0.272   2.810  0.00  0.00    +0.000 A 
BRANCH   2   8
ATOM      8  C   UNL     1       4.527  -1.549   1.203  0.00  0.00    +0.000 C 
BRANCH   8  14
ATOM      9  C   UNL     1       6.512  -2.693   2.337  0.00  0.00    +0.000 A 
ATOM     10  C   UNL     1       7.165  -3.871   2.725  0.00  0.00    +0.000 A 
ATOM     11  C   UNL     1       6.559  -5.115   2.543  0.00  0.00    +0.000 A 
ATOM     12  C   UNL     1       5.284  -5.194   1.996  0.00  0.00    +0.000 A 
ATOM     13  C   UNL     1       4.619  -4.029   1.616  0.00  0.00    +0.000 A 
ATOM     14  C   UNL     1       5.227  -2.768   1.764  0.00  0.00    +0.000 A 
BRANCH   9  16
ATOM     15  C   UNL     1       8.455  -1.366   2.687  0.00  0.00    +0.000 C 
ATOM     16  O   UNL     1       7.048  -1.438   2.476  0.00  0.00    +0.000 OA
ENDBRANCH   9  16
ENDBRANCH   8  14
ENDBRANCH   2   8
ENDBRANCH   1   5
BRANCH   1  17
ATOM     17  N   UNL     1       0.186   2.592   3.288  0.00  0.00    +0.000 N 
ATOM     18  C   UNL     1      -1.030   2.510   2.663  0.00  0.00    +0.000 C 
ATOM     19  O   UNL     1      -1.777   1.545   2.821  0.00  0.00    +0.000 OA
ATOM     20  H   UNL     1       0.872   3.273   2.978  0.00  0.00    +0.000 HD
BRANCH  18  21
ATOM     21  C   UNL     1      -1.438   3.662   1.846  0.00  0.00    +0.000 A 
ATOM     22  C   UNL     1      -2.785   3.865   1.576  0.00  0.00    +0.000 A 
ATOM     23  S   UNL     1      -3.101   5.263   0.653  0.00  0.00    +0.000 S 
ATOM     24  C   UNL     1      -1.443   5.626   0.539  0.00  0.00    +0.000 A 
ATOM     25  N   UNL     1      -1.014   6.710  -0.161  0.00  0.00    +0.000 NA
ATOM     26  C   UNL     1       0.269   6.847  -0.198  0.00  0.00    +0.000 A 
ATOM     27  N   UNL     1       1.161   6.005   0.414  0.00  0.00    +0.000 N 
ATOM     28  C   UNL     1       0.769   4.929   1.178  0.00  0.00    +0.000 A 
ATOM     29  O   UNL     1       1.590   4.254   1.788  0.00  0.00    +0.000 OA
ATOM     30  C   UNL     1      -0.662   4.708   1.221  0.00  0.00    +0.000 A 
ATOM     31  H   UNL     1       2.155   6.176   0.364  0.00  0.00    +0.000 HD
ENDBRANCH  18  21
ENDBRANCH   1  17
TORSDOF 6
