REMARK  Name = 
REMARK  10 active torsions:
REMARK  status: ('A' for Active; 'I' for Inactive)
REMARK    1  A    between atoms: C_1  and  O_2
REMARK    2  A    between atoms: O_2  and  C_3
REMARK    3  A    between atoms: C_10  and  C_11
REMARK    4  A    between atoms: N_13  and  C_14
REMARK    5  A    between atoms: C_14  and  C_15
REMARK    6  A    between atoms: C_18  and  C_19
REMARK    7  A    between atoms: C_19  and  N_20
REMARK    8  A    between atoms: N_20  and  C_21
REMARK    9  A    between atoms: N_20  and  C_22
REMARK   10  A    between atoms: C_22  and  C_23
REMARK                            x       y       z     vdW  Elec       q    Type
REMARK                         _______ _______ _______ _____ _____    ______ ____
ROOT
ATOM      1  C   UNL     1       3.004   2.633   2.109  0.00  0.00    +0.000 C 
ENDROOT
BRANCH   1   2
ATOM      2  C   UNL     1       1.791   3.124   1.363  0.00  0.00    +0.000 A 
ATOM      3  C   UNL     1       0.786   2.224   0.985  0.00  0.00    +0.000 A 
ATOM      4  C   UNL     1      -0.312   2.656   0.237  0.00  0.00    +0.000 A 
ATOM      5  C   UNL     1      -0.437   4.001  -0.139  0.00  0.00    +0.000 A 
ATOM      6  C   UNL     1       0.562   4.904   0.250  0.00  0.00    +0.000 A 
ATOM      7  C   UNL     1       1.668   4.469   0.989  0.00  0.00    +0.000 A 
BRANCH   5   8
ATOM      8  C   UNL     1      -1.618   4.459  -0.979  0.00  0.00    +0.000 C 
BRANCH   8   9
ATOM      9  N   UNL     1      -2.934   4.158  -0.374  0.00  0.00    +0.000 NA
ATOM     10  C   UNL     1      -3.108   4.887   0.890  0.00  0.00    +0.000 C 
BRANCH   9  11
ATOM     11  C   UNL     1      -4.028   4.555  -1.295  0.00  0.00    +0.000 C 
BRANCH  11  12
ATOM     12  C   UNL     1      -4.090   3.790  -2.605  0.00  0.00    +0.000 A 
ATOM     13  C   UNL     1      -4.240   2.404  -2.609  0.00  0.00    +0.000 A 
ATOM     14  C   UNL     1      -4.351   1.742  -3.829  0.00  0.00    +0.000 A 
ATOM     15  C   UNL     1      -4.308   2.475  -5.008  0.00  0.00    +0.000 A 
ATOM     16  C   UNL     1      -4.144   3.847  -4.919  0.00  0.00    +0.000 A 
ATOM     17  N   UNL     1      -4.034   4.517  -3.751  0.00  0.00    +0.000 NA
ENDBRANCH  11  12
ENDBRANCH   9  11
ENDBRANCH   8   9
ENDBRANCH   5   8
ENDBRANCH   1   2
BRANCH   1  20
ATOM     18  C   UNL     1       5.192   1.618   1.661  0.00  0.00    +0.000 C 
ATOM     19  O   UNL     1       5.407   1.523   2.867  0.00  0.00    +0.000 OA
ATOM     20  N   UNL     1       4.026   2.167   1.198  0.00  0.00    +0.000 N 
ATOM     21  H   UNL     1       3.838   2.216   0.205  0.00  0.00    +0.000 HD
BRANCH  18  29
ATOM     22  C   UNL     1       5.290   1.542  -1.795  0.00  0.00    +0.000 A 
ATOM     23  N   UNL     1       5.577   1.358  -3.100  0.00  0.00    +0.000 NA
ATOM     24  C   UNL     1       6.746   0.792  -3.415  0.00  0.00    +0.000 A 
ATOM     25  N   UNL     1       7.682   0.375  -2.568  0.00  0.00    +0.000 NA
ATOM     26  C   UNL     1       7.350   0.560  -1.282  0.00  0.00    +0.000 A 
ATOM     27  S   UNL     1       8.434   0.087  -0.065  0.00  0.00    +0.000 S 
ATOM     28  C   UNL     1       7.365   0.600   1.151  0.00  0.00    +0.000 A 
ATOM     29  C   UNL     1       6.179   1.143   0.674  0.00  0.00    +0.000 A 
ATOM     30  C   UNL     1       6.176   1.124  -0.788  0.00  0.00    +0.000 A 
BRANCH  22  32
ATOM     31  C   UNL     1       3.608   2.986  -2.516  0.00  0.00    +0.000 C 
ATOM     32  O   UNL     1       4.086   2.136  -1.474  0.00  0.00    +0.000 OA
ENDBRANCH  22  32
ENDBRANCH  18  29
ENDBRANCH   1  20
TORSDOF 8
