REMARK  Name = 
REMARK  5 active torsions:
REMARK  status: ('A' for Active; 'I' for Inactive)
REMARK    1  A    between atoms: C_2  and  C_4
REMARK    2  A    between atoms: C_8  and  C_9
REMARK    3  A    between atoms: C_9  and  C_10
REMARK    4  A    between atoms: C_10  and  C_11
REMARK    5  A    between atoms: C_15  and  C_16
REMARK                            x       y       z     vdW  Elec       q    Type
REMARK                         _______ _______ _______ _____ _____    ______ ____
ROOT
ATOM      1  C   UNL     1       2.048  -3.824  -3.414  0.00  0.00    +0.000 C 
ENDROOT
BRANCH   1   2
ATOM      2  C   UNL     1       1.792  -4.809  -4.530  0.00  0.00    +0.000 A 
ATOM      3  C   UNL     1       1.188  -4.401  -5.712  0.00  0.00    +0.000 A 
ATOM      4  N   UNL     1       0.921  -5.225  -6.750  0.00  0.00    +0.000 NA
ATOM      5  C   UNL     1       1.263  -6.529  -6.603  0.00  0.00    +0.000 A 
ATOM      6  C   UNL     1       1.858  -7.075  -5.467  0.00  0.00    +0.000 A 
ATOM      7  C   UNL     1       2.101  -6.172  -4.421  0.00  0.00    +0.000 A 
BRANCH   6   8
ATOM      8  C   UNL     1       2.235  -8.500  -5.355  0.00  0.00    +0.000 A 
ATOM      9  C   UNL     1       2.732  -9.220  -6.458  0.00  0.00    +0.000 A 
ATOM     10  C   UNL     1       3.124 -10.560  -6.341  0.00  0.00    +0.000 A 
ATOM     11  C   UNL     1       3.035 -11.207  -5.112  0.00  0.00    +0.000 A 
ATOM     12  C   UNL     1       2.550 -10.512  -4.016  0.00  0.00    +0.000 A 
ATOM     13  F   UNL     1       2.472 -11.123  -2.827  0.00  0.00    +0.000 F 
ATOM     14  C   UNL     1       2.147  -9.184  -4.127  0.00  0.00    +0.000 A 
ENDBRANCH   6   8
ENDBRANCH   1   2
BRANCH   1  15
ATOM     15  C   UNL     1       3.269  -4.172  -2.550  0.00  0.00    +0.000 C 
BRANCH  15  20
ATOM     16  C   UNL     1       3.324  -2.355   0.789  0.00  0.00    +0.000 A 
ATOM     17  C   UNL     1       4.157  -1.301   0.443  0.00  0.00    +0.000 A 
ATOM     18  N   UNL     1       4.702  -1.143  -0.789  0.00  0.00    +0.000 NA
ATOM     19  C   UNL     1       4.391  -2.074  -1.717  0.00  0.00    +0.000 A 
ATOM     20  C   UNL     1       3.556  -3.161  -1.477  0.00  0.00    +0.000 A 
ATOM     21  C   UNL     1       3.007  -3.292  -0.197  0.00  0.00    +0.000 A 
BRANCH  16  23
ATOM     22  N   UNL     1       2.512  -3.679   2.657  0.00  0.00    +0.000 N 
ATOM     23  C   UNL     1       2.806  -2.436   2.168  0.00  0.00    +0.000 C 
ATOM     24  O   UNL     1       2.678  -1.436   2.862  0.00  0.00    +0.000 OA
ATOM     25  H   UNL     1       2.266  -3.723   3.638  0.00  0.00    +0.000 HD
ATOM     26  H   UNL     1       2.852  -4.527   2.226  0.00  0.00    +0.000 HD
ENDBRANCH  16  23
ENDBRANCH  15  20
ENDBRANCH   1  15
TORSDOF 5
