REMARK  Name = 
REMARK  5 active torsions:
REMARK  status: ('A' for Active; 'I' for Inactive)
REMARK    1  A    between atoms: C_1  and  C_2
REMARK    2  A    between atoms: C_2  and  C_3
REMARK    3  A    between atoms: C_2  and  C_14
REMARK    4  A    between atoms: C_3  and  N_4
REMARK    5  A    between atoms: C_8  and  C_9
REMARK                            x       y       z     vdW  Elec       q    Type
REMARK                         _______ _______ _______ _____ _____    ______ ____
ROOT
ATOM      1  N   UNL     1       2.967  -0.197   2.378  0.00  0.00    +0.000 N 
ATOM      2  C   UNL     1       3.491  -0.856   3.509  0.00  0.00    +0.000 A 
ATOM      3  C   UNL     1       3.377  -0.250   4.760  0.00  0.00    +0.000 A 
ATOM      4  C   UNL     1       3.875  -0.903   5.889  0.00  0.00    +0.000 A 
ATOM      5  C   UNL     1       4.484  -2.152   5.756  0.00  0.00    +0.000 A 
ATOM      6  C   UNL     1       4.581  -2.667   4.477  0.00  0.00    +0.000 A 
ATOM      7  N   UNL     1       4.105  -2.049   3.368  0.00  0.00    +0.000 NA
ATOM      8  H   UNL     1       2.002   0.041   2.576  0.00  0.00    +0.000 HD
ENDROOT
BRANCH   5   9
ATOM      9  C   UNL     1       4.984  -2.862   6.958  0.00  0.00    +0.000 C 
ATOM     10  N   UNL     1       5.538  -4.105   6.813  0.00  0.00    +0.000 N 
ATOM     11  O   UNL     1       4.895  -2.359   8.071  0.00  0.00    +0.000 OA
ATOM     12  H   UNL     1       5.628  -4.624   5.954  0.00  0.00    +0.000 HD
ATOM     13  H   UNL     1       5.844  -4.562   7.663  0.00  0.00    +0.000 HD
ENDBRANCH   5   9
BRANCH   1  14
ATOM     14  C   UNL     1       3.107  -0.989   1.163  0.00  0.00    +0.000 C 
BRANCH  14  16
ATOM     15  C   UNL     1       0.992   0.019   0.068  0.00  0.00    +0.000 C 
ATOM     16  C   UNL     1       2.461  -0.288  -0.006  0.00  0.00    +0.000 C 
BRANCH  16  17
ATOM     17  C   UNL     1       3.078  -0.575  -1.373  0.00  0.00    +0.000 C 
ATOM     18  C   UNL     1       2.863   0.570  -2.378  0.00  0.00    +0.000 C 
ATOM     19  C   UNL     1       3.450   0.249  -3.751  0.00  0.00    +0.000 C 
ATOM     20  C   UNL     1       2.892  -1.061  -4.297  0.00  0.00    +0.000 C 
ATOM     21  C   UNL     1       3.147  -2.211  -3.330  0.00  0.00    +0.000 C 
ATOM     22  C   UNL     1       2.579  -1.918  -1.942  0.00  0.00    +0.000 C 
ENDBRANCH  16  17
ENDBRANCH  14  16
ENDBRANCH   1  14
TORSDOF 4
