REMARK  Name = 
REMARK  8 active torsions:
REMARK  status: ('A' for Active; 'I' for Inactive)
REMARK    1  A    between atoms: C_1  and  C_2
REMARK    2  A    between atoms: C_2  and  N_3
REMARK    3  A    between atoms: C_2  and  C_16
REMARK    4  A    between atoms: C_4  and  C_6
REMARK    5  A    between atoms: C_19  and  C_20
REMARK    6  A    between atoms: C_20  and  O_21
REMARK    7  A    between atoms: O_21  and  C_22
REMARK    8  A    between atoms: C_22  and  C_24
REMARK                            x       y       z     vdW  Elec       q    Type
REMARK                         _______ _______ _______ _____ _____    ______ ____
ROOT
ATOM      1  C   UNL     1      -7.230   7.909  -1.694  0.00  0.00    +0.000 C 
ATOM      2  C   UNL     1      -6.403   8.025  -0.412  0.00  0.00    +0.000 C 
ENDROOT
BRANCH   2   3
ATOM      3  C   UNL     1      -4.970   7.560  -0.610  0.00  0.00    +0.000 A 
ATOM      4  C   UNL     1      -3.918   8.458  -0.383  0.00  0.00    +0.000 A 
ATOM      5  C   UNL     1      -2.588   8.065  -0.553  0.00  0.00    +0.000 A 
ATOM      6  C   UNL     1      -2.276   6.761  -0.950  0.00  0.00    +0.000 A 
ATOM      7  C   UNL     1      -3.320   5.852  -1.165  0.00  0.00    +0.000 A 
ATOM      8  C   UNL     1      -4.652   6.246  -0.995  0.00  0.00    +0.000 A 
BRANCH   6   9
ATOM      9  C   UNL     1      -0.838   6.344  -1.128  0.00  0.00    +0.000 C 
BRANCH   9  10
ATOM     10  O   UNL     1      -0.517   5.250  -0.258  0.00  0.00    +0.000 OA
BRANCH  10  11
ATOM     11  C   UNL     1      -0.162   5.601   1.008  0.00  0.00    +0.000 C 
ATOM     12  O   UNL     1      -0.084   6.750   1.427  0.00  0.00    +0.000 OA
BRANCH  11  13
ATOM     13  C   UNL     1       0.122   4.358   1.831  0.00  0.00    +0.000 C 
ATOM     14  C   UNL     1       1.329   3.604   1.262  0.00  0.00    +0.000 C 
ATOM     15  C   UNL     1       1.767   2.474   2.189  0.00  0.00    +0.000 C 
ATOM     16  C   UNL     1       1.955   2.968   3.621  0.00  0.00    +0.000 C 
ATOM     17  N   UNL     1       0.730   3.592   4.120  0.00  0.00    +0.000 NA
ATOM     18  C   UNL     1       0.360   4.750   3.295  0.00  0.00    +0.000 C 
ATOM     19  H   UNL     1       0.883   3.907   5.078  0.00  0.00    +0.000 HD
ENDBRANCH  11  13
ENDBRANCH  10  11
ENDBRANCH   9  10
ENDBRANCH   6   9
ENDBRANCH   2   3
BRANCH   2  20
ATOM     20  N   UNL     1      -7.034   7.300   0.671  0.00  0.00    +0.000 N 
ATOM     21  C   UNL     1      -8.023   7.846   1.448  0.00  0.00    +0.000 C 
ATOM     22  O   UNL     1      -8.427   8.995   1.288  0.00  0.00    +0.000 OA
ATOM     23  H   UNL     1      -6.661   6.384   0.899  0.00  0.00    +0.000 HD
BRANCH  21  24
ATOM     24  C   UNL     1      -8.621   6.963   2.450  0.00  0.00    +0.000 A 
ATOM     25  C   UNL     1      -9.907   7.210   2.917  0.00  0.00    +0.000 A 
ATOM     26  S   UNL     1     -10.453   6.067   4.060  0.00  0.00    +0.000 S 
ATOM     27  C   UNL     1      -8.972   5.230   4.015  0.00  0.00    +0.000 A 
ATOM     28  N   UNL     1      -8.757   4.140   4.800  0.00  0.00    +0.000 NA
ATOM     29  C   UNL     1      -7.570   3.636   4.702  0.00  0.00    +0.000 A 
ATOM     30  N   UNL     1      -6.585   4.121   3.882  0.00  0.00    +0.000 N 
ATOM     31  C   UNL     1      -6.781   5.167   3.017  0.00  0.00    +0.000 A 
ATOM     32  O   UNL     1      -5.923   5.483   2.203  0.00  0.00    +0.000 OA
ATOM     33  C   UNL     1      -8.082   5.801   3.122  0.00  0.00    +0.000 A 
ATOM     34  H   UNL     1      -5.684   3.665   3.831  0.00  0.00    +0.000 HD
ENDBRANCH  21  24
ENDBRANCH   2  20
TORSDOF 7
