REMARK  Name = 
REMARK  5 active torsions:
REMARK  status: ('A' for Active; 'I' for Inactive)
REMARK    1  A    between atoms: C_2  and  C_4
REMARK    2  A    between atoms: N_8  and  C_9
REMARK    3  A    between atoms: C_9  and  C_10
REMARK    4  A    between atoms: C_10  and  C_11
REMARK    5  A    between atoms: C_15  and  C_16
REMARK                            x       y       z     vdW  Elec       q    Type
REMARK                         _______ _______ _______ _____ _____    ______ ____
ROOT
ATOM      1  C   UNL     1       5.031   1.345  -5.908  0.00  0.00    +0.000 C 
ENDROOT
BRANCH   1   6
ATOM      2  C   UNL     1       2.968   0.029  -1.424  0.00  0.00    +0.000 A 
ATOM      3  C   UNL     1       2.631   1.020  -2.336  0.00  0.00    +0.000 A 
ATOM      4  C   UNL     1       3.398   1.162  -3.492  0.00  0.00    +0.000 A 
ATOM      5  C   UNL     1       4.497   0.333  -3.711  0.00  0.00    +0.000 A 
ATOM      6  N   UNL     1       5.280   0.412  -4.833  0.00  0.00    +0.000 N 
ATOM      7  N   UNL     1       4.844  -0.615  -2.818  0.00  0.00    +0.000 NA
ATOM      8  C   UNL     1       4.085  -0.747  -1.698  0.00  0.00    +0.000 A 
ATOM      9  H   UNL     1       6.088  -0.199  -4.825  0.00  0.00    +0.000 HD
BRANCH   2  11
ATOM     10  N   UNL     1       0.875   0.141  -0.205  0.00  0.00    +0.000 N 
ATOM     11  C   UNL     1       2.197  -0.207  -0.188  0.00  0.00    +0.000 C 
ATOM     12  O   UNL     1       2.709  -0.721   0.798  0.00  0.00    +0.000 OA
ATOM     13  H   UNL     1       0.335  -0.116   0.615  0.00  0.00    +0.000 HD
ATOM     14  H   UNL     1       0.370   0.329  -1.058  0.00  0.00    +0.000 HD
ENDBRANCH   2  11
ENDBRANCH   1   6
BRANCH   1  15
ATOM     15  C   UNL     1       6.020   1.180  -7.062  0.00  0.00    +0.000 C 
BRANCH  15  16
ATOM     16  C   UNL     1       5.709   2.193  -8.139  0.00  0.00    +0.000 A 
ATOM     17  C   UNL     1       4.847   1.871  -9.192  0.00  0.00    +0.000 A 
ATOM     18  C   UNL     1       4.501   2.839 -10.129  0.00  0.00    +0.000 A 
ATOM     19  C   UNL     1       4.997   4.140 -10.010  0.00  0.00    +0.000 A 
ATOM     20  C   UNL     1       5.837   4.514  -8.946  0.00  0.00    +0.000 A 
ATOM     21  C   UNL     1       6.195   3.508  -8.029  0.00  0.00    +0.000 A 
BRANCH  20  22
ATOM     22  C   UNL     1       6.279   5.917  -8.766  0.00  0.00    +0.000 A 
ATOM     23  C   UNL     1       5.451   6.990  -9.128  0.00  0.00    +0.000 A 
ATOM     24  C   UNL     1       5.881   8.291  -8.917  0.00  0.00    +0.000 A 
ATOM     25  N   UNL     1       7.068   8.608  -8.365  0.00  0.00    +0.000 NA
ATOM     26  C   UNL     1       7.859   7.574  -8.016  0.00  0.00    +0.000 A 
ATOM     27  C   UNL     1       7.518   6.241  -8.197  0.00  0.00    +0.000 A 
ENDBRANCH  20  22
ENDBRANCH  15  16
ENDBRANCH   1  15
TORSDOF 5
