REMARK  Name = 
REMARK  5 active torsions:
REMARK  status: ('A' for Active; 'I' for Inactive)
REMARK    1  A    between atoms: C_1  and  C_2
REMARK    2  A    between atoms: C_5  and  C_6
REMARK    3  A    between atoms: C_6  and  N_7
REMARK    4  A    between atoms: N_7  and  C_8
REMARK    5  A    between atoms: C_11  and  C_12
REMARK                            x       y       z     vdW  Elec       q    Type
REMARK                         _______ _______ _______ _____ _____    ______ ____
ROOT
ATOM      1  N   UNL     1       3.497   1.066   0.888  0.00  0.00    +0.000 N 
ATOM      2  H   UNL     1       3.046   0.964   1.797  0.00  0.00    +0.000 HD
ENDROOT
BRANCH   1   3
ATOM      3  C   UNL     1       3.573   2.427   0.523  0.00  0.00    +0.000 A 
ATOM      4  C   UNL     1       3.656   2.883  -0.795  0.00  0.00    +0.000 A 
ATOM      5  C   UNL     1       3.867   4.243  -1.070  0.00  0.00    +0.000 A 
ATOM      6  C   UNL     1       4.003   5.168  -0.028  0.00  0.00    +0.000 A 
ATOM      7  C   UNL     1       3.944   4.721   1.293  0.00  0.00    +0.000 A 
ATOM      8  C   UNL     1       3.741   3.364   1.557  0.00  0.00    +0.000 A 
BRANCH   6   9
ATOM      9  C   UNL     1       4.266   6.596  -0.357  0.00  0.00    +0.000 C 
ATOM     10  N   UNL     1       3.938   7.531   0.587  0.00  0.00    +0.000 N 
ATOM     11  O   UNL     1       4.736   6.934  -1.435  0.00  0.00    +0.000 OA
ATOM     12  H   UNL     1       3.346   7.328   1.379  0.00  0.00    +0.000 HD
ATOM     13  H   UNL     1       4.046   8.500   0.316  0.00  0.00    +0.000 HD
ENDBRANCH   6   9
ENDBRANCH   1   3
BRANCH   1  14
ATOM     14  C   UNL     1       3.090  -0.027  -0.039  0.00  0.00    +0.000 C 
ATOM     15  C   UNL     1       4.007  -0.548  -1.129  0.00  0.00    +0.000 C 
ATOM     16  C   UNL     1       3.898  -1.315   0.147  0.00  0.00    +0.000 C 
BRANCH  14  21
ATOM     17  C   UNL     1      -2.578  -0.988  -0.439  0.00  0.00    +0.000 C 
ATOM     18  C   UNL     1      -1.122  -0.691  -0.350  0.00  0.00    +0.000 A 
ATOM     19  C   UNL     1      -0.352  -0.355  -1.440  0.00  0.00    +0.000 A 
ATOM     20  N   UNL     1       0.973  -0.119  -1.380  0.00  0.00    +0.000 NA
ATOM     21  C   UNL     1       1.565  -0.221  -0.170  0.00  0.00    +0.000 A 
ATOM     22  N   UNL     1       0.880  -0.522   0.963  0.00  0.00    +0.000 NA
ATOM     23  C   UNL     1      -0.439  -0.752   0.843  0.00  0.00    +0.000 A 
ENDBRANCH  14  21
ENDBRANCH   1  14
TORSDOF 4
