REMARK  Name = 
REMARK  8 active torsions:
REMARK  status: ('A' for Active; 'I' for Inactive)
REMARK    1  A    between atoms: C_1  and  N_2
REMARK    2  A    between atoms: N_2  and  C_3
REMARK    3  A    between atoms: C_3  and  C_4
REMARK    4  A    between atoms: C_7  and  C_8
REMARK    5  A    between atoms: C_8  and  O_9
REMARK    6  A    between atoms: C_8  and  C_10
REMARK    7  A    between atoms: C_10  and  C_11
REMARK    8  A    between atoms: C_18  and  C_20
REMARK                            x       y       z     vdW  Elec       q    Type
REMARK                         _______ _______ _______ _____ _____    ______ ____
ROOT
ATOM      1  C   UNL     1       3.166  -0.286  -1.296  0.00  0.00    +0.000 C 
ENDROOT
BRANCH   1   2
ATOM      2  C   UNL     1       2.213  -0.423  -2.450  0.00  0.00    +0.000 A 
ATOM      3  C   UNL     1       1.852  -1.690  -2.927  0.00  0.00    +0.000 A 
ATOM      4  C   UNL     1       0.926  -1.819  -3.961  0.00  0.00    +0.000 A 
ATOM      5  C   UNL     1       0.341  -0.683  -4.539  0.00  0.00    +0.000 A 
ATOM      6  C   UNL     1       0.728   0.583  -4.076  0.00  0.00    +0.000 A 
ATOM      7  C   UNL     1       1.655   0.714  -3.043  0.00  0.00    +0.000 A 
BRANCH   5   8
ATOM      8  C   UNL     1      -0.666  -0.851  -5.661  0.00  0.00    +0.000 C 
BRANCH   8   9
ATOM      9  O   UNL     1      -1.933  -0.312  -5.262  0.00  0.00    +0.000 OA
ATOM     10  H   UNL     1      -1.769   0.429  -4.656  0.00  0.00    +0.000 HD
ENDBRANCH   8   9
BRANCH   8  11
ATOM     11  C   UNL     1      -0.250  -0.161  -6.958  0.00  0.00    +0.000 C 
BRANCH  11  12
ATOM     12  C   UNL     1       1.027  -0.731  -7.504  0.00  0.00    +0.000 C 
ATOM     13  N   UNL     1       1.118  -1.980  -7.885  0.00  0.00    +0.000 NA
ATOM     14  C   UNL     1       2.526  -2.100  -8.370  0.00  0.00    +0.000 C 
ATOM     15  C   UNL     1       3.033  -0.666  -8.561  0.00  0.00    +0.000 C 
ATOM     16  N   UNL     1       2.140   0.050  -7.684  0.00  0.00    +0.000 N 
ATOM     17  H   UNL     1       2.019   1.045  -7.825  0.00  0.00    +0.000 HD
ENDBRANCH  11  12
ENDBRANCH   8  11
ENDBRANCH   5   8
ENDBRANCH   1   2
BRANCH   1  19
ATOM     18  C   UNL     1       5.083  -0.300  -2.955  0.00  0.00    +0.000 C 
ATOM     19  N   UNL     1       4.595  -0.154  -1.589  0.00  0.00    +0.000 N 
ATOM     20  C   UNL     1       5.530   0.319  -0.649  0.00  0.00    +0.000 C 
ATOM     21  O   UNL     1       6.688   0.568  -0.978  0.00  0.00    +0.000 OA
BRANCH  20  22
ATOM     22  C   UNL     1       5.127   0.483   0.757  0.00  0.00    +0.000 A 
ATOM     23  C   UNL     1       4.400  -0.447   1.483  0.00  0.00    +0.000 A 
ATOM     24  S   UNL     1       4.144   0.002   3.110  0.00  0.00    +0.000 S 
ATOM     25  C   UNL     1       5.128   1.378   2.939  0.00  0.00    +0.000 A 
ATOM     26  N   UNL     1       5.427   2.164   4.007  0.00  0.00    +0.000 NA
ATOM     27  C   UNL     1       6.242   3.131   3.740  0.00  0.00    +0.000 A 
ATOM     28  N   UNL     1       6.748   3.406   2.494  0.00  0.00    +0.000 N 
ATOM     29  C   UNL     1       6.359   2.725   1.363  0.00  0.00    +0.000 A 
ATOM     30  O   UNL     1       6.626   3.155   0.245  0.00  0.00    +0.000 OA
ATOM     31  C   UNL     1       5.553   1.548   1.634  0.00  0.00    +0.000 A 
ATOM     32  H   UNL     1       7.320   4.224   2.337  0.00  0.00    +0.000 HD
ENDBRANCH  20  22
ENDBRANCH   1  19
TORSDOF 7
