REMARK  Name = 
REMARK  9 active torsions:
REMARK  status: ('A' for Active; 'I' for Inactive)
REMARK    1  A    between atoms: C_1  and  C_2
REMARK    2  A    between atoms: C_2  and  C_3
REMARK    3  A    between atoms: C_3  and  O_4
REMARK    4  A    between atoms: C_3  and  C_19
REMARK    5  A    between atoms: O_4  and  C_5
REMARK    6  A    between atoms: C_8  and  C_9
REMARK    7  A    between atoms: C_9  and  N_10
REMARK    8  A    between atoms: N_10  and  C_11
REMARK    9  A    between atoms: C_11  and  C_12
REMARK                            x       y       z     vdW  Elec       q    Type
REMARK                         _______ _______ _______ _____ _____    ______ ____
ROOT
ATOM      1  C   UNL     1       7.020 -10.308 -11.337  0.00  0.00    +0.000 A 
ATOM      2  C   UNL     1       7.503  -9.242 -10.581  0.00  0.00    +0.000 A 
ATOM      3  C   UNL     1       6.802  -8.810  -9.454  0.00  0.00    +0.000 A 
ATOM      4  C   UNL     1       5.614  -9.455  -9.117  0.00  0.00    +0.000 A 
ATOM      5  N   UNL     1       5.119 -10.491  -9.839  0.00  0.00    +0.000 NA
ATOM      6  C   UNL     1       5.826 -10.885 -10.928  0.00  0.00    +0.000 A 
ENDROOT
BRANCH   1   7
ATOM      7  O   UNL     1       7.756 -10.649 -12.430  0.00  0.00    +0.000 OA
BRANCH   7   8
ATOM      8  C   UNL     1       7.620 -11.990 -12.942  0.00  0.00    +0.000 C 
BRANCH   8   9
ATOM      9  C   UNL     1       9.010 -12.491 -13.299  0.00  0.00    +0.000 A 
ATOM     10  C   UNL     1       9.836 -11.891 -14.236  0.00  0.00    +0.000 A 
ATOM     11  S   UNL     1      11.392 -12.591 -14.310  0.00  0.00    +0.000 S 
ATOM     12  C   UNL     1      11.011 -13.709 -13.084  0.00  0.00    +0.000 A 
ATOM     13  N   UNL     1      11.943 -14.577 -12.606  0.00  0.00    +0.000 NA
ATOM     14  C   UNL     1      11.512 -15.352 -11.666  0.00  0.00    +0.000 A 
ATOM     15  N   UNL     1      10.228 -15.362 -11.183  0.00  0.00    +0.000 N 
ATOM     16  C   UNL     1       9.236 -14.547 -11.678  0.00  0.00    +0.000 A 
ATOM     17  O   UNL     1       8.071 -14.657 -11.311  0.00  0.00    +0.000 OA
ATOM     18  C   UNL     1       9.696 -13.596 -12.675  0.00  0.00    +0.000 A 
ATOM     19  H   UNL     1       9.945 -16.031 -10.484  0.00  0.00    +0.000 HD
ENDBRANCH   8   9
BRANCH   8  21
ATOM     20  C   UNL     1       6.274 -13.336 -14.645  0.00  0.00    +0.000 C 
ATOM     21  C   UNL     1       6.666 -11.952 -14.150  0.00  0.00    +0.000 C 
ENDBRANCH   8  21
ENDBRANCH   7   8
ENDBRANCH   1   7
BRANCH   4  22
ATOM     22  C   UNL     1       4.823  -9.030  -7.895  0.00  0.00    +0.000 C 
BRANCH  22  23
ATOM     23  N   UNL     1       4.567 -10.122  -6.942  0.00  0.00    +0.000 NA
ATOM     24  H   UNL     1       4.149 -10.878  -7.490  0.00  0.00    +0.000 HD
BRANCH  23  25
ATOM     25  C   UNL     1       5.801 -10.619  -6.318  0.00  0.00    +0.000 C 
BRANCH  25  26
ATOM     26  C   UNL     1       5.521 -11.692  -5.233  0.00  0.00    +0.000 C 
ATOM     27  C   UNL     1       4.863 -12.966  -5.750  0.00  0.00    +0.000 C 
ATOM     28  C   UNL     1       6.024 -13.832  -6.203  0.00  0.00    +0.000 C 
ATOM     29  C   UNL     1       7.209 -13.359  -5.377  0.00  0.00    +0.000 C 
ATOM     30  N   UNL     1       6.756 -12.200  -4.608  0.00  0.00    +0.000 NA
ATOM     31  H   UNL     1       7.477 -11.483  -4.571  0.00  0.00    +0.000 HD
ENDBRANCH  25  26
ENDBRANCH  23  25
ENDBRANCH  22  23
ENDBRANCH   4  22
TORSDOF 8
