REMARK  Name = 
REMARK  9 active torsions:
REMARK  status: ('A' for Active; 'I' for Inactive)
REMARK    1  A    between atoms: C_1  and  O_2
REMARK    2  A    between atoms: O_2  and  C_3
REMARK    3  A    between atoms: C_10  and  C_11
REMARK    4  A    between atoms: N_13  and  C_14
REMARK    5  A    between atoms: C_14  and  C_15
REMARK    6  A    between atoms: C_18  and  C_19
REMARK    7  A    between atoms: C_19  and  S_20
REMARK    8  A    between atoms: S_20  and  C_21
REMARK    9  A    between atoms: C_21  and  C_22
REMARK                            x       y       z     vdW  Elec       q    Type
REMARK                         _______ _______ _______ _____ _____    ______ ____
ROOT
ATOM      1  C   UNL     1       2.909  -0.361  -3.501  0.00  0.00    +0.000 C 
ENDROOT
BRANCH   1   2
ATOM      2  C   UNL     1       1.720  -1.226  -3.168  0.00  0.00    +0.000 A 
ATOM      3  C   UNL     1       1.840  -2.621  -3.147  0.00  0.00    +0.000 A 
ATOM      4  C   UNL     1       0.747  -3.426  -2.814  0.00  0.00    +0.000 A 
ATOM      5  C   UNL     1      -0.493  -2.855  -2.493  0.00  0.00    +0.000 A 
ATOM      6  C   UNL     1      -0.625  -1.460  -2.563  0.00  0.00    +0.000 A 
ATOM      7  C   UNL     1       0.469  -0.655  -2.900  0.00  0.00    +0.000 A 
BRANCH   5   8
ATOM      8  C   UNL     1      -1.672  -3.720  -2.119  0.00  0.00    +0.000 C 
BRANCH   8   9
ATOM      9  S   UNL     1      -1.406  -4.785  -0.664  0.00  0.00    +0.000 S 
BRANCH   9  10
ATOM     10  C   UNL     1      -1.123  -3.533   0.633  0.00  0.00    +0.000 C 
BRANCH  10  11
ATOM     11  C   UNL     1      -0.810  -4.196   1.956  0.00  0.00    +0.000 A 
ATOM     12  C   UNL     1      -1.831  -4.505   2.872  0.00  0.00    +0.000 A 
ATOM     13  C   UNL     1      -1.539  -5.147   4.081  0.00  0.00    +0.000 A 
ATOM     14  C   UNL     1      -0.224  -5.495   4.387  0.00  0.00    +0.000 A 
ATOM     15  C   UNL     1       0.786  -5.196   3.482  0.00  0.00    +0.000 A 
ATOM     16  F   UNL     1       2.050  -5.537   3.771  0.00  0.00    +0.000 F 
ATOM     17  C   UNL     1       0.508  -4.555   2.277  0.00  0.00    +0.000 A 
ENDBRANCH  10  11
ENDBRANCH   9  10
ENDBRANCH   8   9
ENDBRANCH   5   8
ENDBRANCH   1   2
BRANCH   1  20
ATOM     18  C   UNL     1       4.097   0.511  -5.466  0.00  0.00    +0.000 C 
ATOM     19  O   UNL     1       4.966   1.007  -4.756  0.00  0.00    +0.000 OA
ATOM     20  N   UNL     1       3.038  -0.168  -4.925  0.00  0.00    +0.000 N 
ATOM     21  H   UNL     1       2.295  -0.511  -5.515  0.00  0.00    +0.000 HD
BRANCH  18  29
ATOM     22  C   UNL     1       2.094  -0.677  -8.016  0.00  0.00    +0.000 A 
ATOM     23  N   UNL     1       1.560  -1.081  -9.186  0.00  0.00    +0.000 NA
ATOM     24  C   UNL     1       2.181  -0.738 -10.317  0.00  0.00    +0.000 A 
ATOM     25  N   UNL     1       3.291  -0.014 -10.431  0.00  0.00    +0.000 NA
ATOM     26  C   UNL     1       3.799   0.357  -9.244  0.00  0.00    +0.000 A 
ATOM     27  S   UNL     1       5.210   1.300  -9.203  0.00  0.00    +0.000 S 
ATOM     28  C   UNL     1       5.208   1.317  -7.505  0.00  0.00    +0.000 A 
ATOM     29  C   UNL     1       4.155   0.609  -6.934  0.00  0.00    +0.000 A 
ATOM     30  C   UNL     1       3.291   0.063  -7.981  0.00  0.00    +0.000 A 
BRANCH  22  32
ATOM     31  C   UNL     1       0.179  -1.654  -7.071  0.00  0.00    +0.000 C 
ATOM     32  O   UNL     1       1.418  -0.982  -6.851  0.00  0.00    +0.000 OA
ENDBRANCH  22  32
ENDBRANCH  18  29
ENDBRANCH   1  20
TORSDOF 8
