REMARK  Name = 
REMARK  8 active torsions:
REMARK  status: ('A' for Active; 'I' for Inactive)
REMARK    1  A    between atoms: C_2  and  C_20
REMARK    2  A    between atoms: N_3  and  C_4
REMARK    3  A    between atoms: C_4  and  C_5
REMARK    4  A    between atoms: C_8  and  C_9
REMARK    5  A    between atoms: C_9  and  C_10
REMARK    6  A    between atoms: C_10  and  O_11
REMARK    7  A    between atoms: C_10  and  C_12
REMARK    8  A    between atoms: C_12  and  N_13
REMARK                            x       y       z     vdW  Elec       q    Type
REMARK                         _______ _______ _______ _____ _____    ______ ____
ROOT
ATOM      1  C   UNL     1       3.138  -1.771  -3.251  0.00  0.00    +0.000 A 
ATOM      2  C   UNL     1       3.980  -0.914  -3.964  0.00  0.00    +0.000 A 
ATOM      3  C   UNL     1       4.865  -1.435  -4.906  0.00  0.00    +0.000 A 
ATOM      4  C   UNL     1       4.887  -2.809  -5.117  0.00  0.00    +0.000 A 
ATOM      5  N   UNL     1       4.070  -3.658  -4.447  0.00  0.00    +0.000 NA
ATOM      6  C   UNL     1       3.243  -3.130  -3.515  0.00  0.00    +0.000 A 
ENDROOT
BRANCH   1   7
ATOM      7  C   UNL     1       2.184  -1.259  -2.214  0.00  0.00    +0.000 C 
BRANCH   7  10
ATOM      8  O   UNL     1       2.071  -3.198  -0.183  0.00  0.00    +0.000 OA
ATOM      9  C   UNL     1       2.753  -2.193  -0.005  0.00  0.00    +0.000 C 
ATOM     10  N   UNL     1       2.811  -1.174  -0.921  0.00  0.00    +0.000 N 
ATOM     11  H   UNL     1       3.528  -0.464  -0.819  0.00  0.00    +0.000 HD
BRANCH   9  12
ATOM     12  C   UNL     1       3.515  -1.989   1.232  0.00  0.00    +0.000 A 
ATOM     13  C   UNL     1       3.132  -2.635   2.399  0.00  0.00    +0.000 A 
ATOM     14  S   UNL     1       4.128  -2.273   3.737  0.00  0.00    +0.000 S 
ATOM     15  C   UNL     1       5.130  -1.273   2.790  0.00  0.00    +0.000 A 
ATOM     16  N   UNL     1       6.214  -0.650   3.330  0.00  0.00    +0.000 NA
ATOM     17  C   UNL     1       6.907   0.042   2.486  0.00  0.00    +0.000 A 
ATOM     18  N   UNL     1       6.605   0.182   1.159  0.00  0.00    +0.000 N 
ATOM     19  C   UNL     1       5.477  -0.357   0.587  0.00  0.00    +0.000 A 
ATOM     20  O   UNL     1       5.166  -0.092  -0.568  0.00  0.00    +0.000 OA
ATOM     21  C   UNL     1       4.694  -1.192   1.481  0.00  0.00    +0.000 A 
ATOM     22  H   UNL     1       7.171   0.769   0.562  0.00  0.00    +0.000 HD
ENDBRANCH   9  12
ENDBRANCH   7  10
ENDBRANCH   1   7
BRANCH   4  23
ATOM     23  C   UNL     1       5.809  -3.431  -6.135  0.00  0.00    +0.000 C 
BRANCH  23  24
ATOM     24  C   UNL     1       5.188  -3.591  -7.533  0.00  0.00    +0.000 C 
BRANCH  24  25
ATOM     25  O   UNL     1       4.010  -4.409  -7.497  0.00  0.00    +0.000 OA
ATOM     26  H   UNL     1       3.501  -4.157  -6.701  0.00  0.00    +0.000 HD
ENDBRANCH  24  25
BRANCH  24  27
ATOM     27  C   UNL     1       4.849  -2.267  -8.255  0.00  0.00    +0.000 C 
BRANCH  27  28
ATOM     28  N   UNL     1       5.978  -1.338  -8.429  0.00  0.00    +0.000 NA
ATOM     29  C   UNL     1       7.030  -1.877  -9.309  0.00  0.00    +0.000 C 
ATOM     30  C   UNL     1       7.315  -0.768 -10.309  0.00  0.00    +0.000 C 
ATOM     31  N   UNL     1       6.034  -0.068 -10.404  0.00  0.00    +0.000 NA
ATOM     32  C   UNL     1       5.547  -0.078  -9.032  0.00  0.00    +0.000 C 
ATOM     33  H   UNL     1       5.395  -0.640 -10.952  0.00  0.00    +0.000 HD
ENDBRANCH  27  28
ENDBRANCH  24  27
ENDBRANCH  23  24
ENDBRANCH   4  23
TORSDOF 8
