REMARK  Name = 
REMARK  5 active torsions:
REMARK  status: ('A' for Active; 'I' for Inactive)
REMARK    1  A    between atoms: C_2  and  C_3
REMARK    2  A    between atoms: C_5  and  N_6
REMARK    3  A    between atoms: N_6  and  C_7
REMARK    4  A    between atoms: C_7  and  C_8
REMARK    5  A    between atoms: C_8  and  C_11
REMARK                            x       y       z     vdW  Elec       q    Type
REMARK                         _______ _______ _______ _____ _____    ______ ____
ROOT
ATOM      1  N   UNL     1      -2.403   2.366  -0.079  0.00  0.00    +0.000 N 
ATOM      2  H   UNL     1      -3.414   2.310   0.019  0.00  0.00    +0.000 HD
ENDROOT
BRANCH   1   5
ATOM      3  C   UNL     1       0.433   0.003   0.014  0.00  0.00    +0.000 A 
ATOM      4  C   UNL     1      -0.252   1.213   0.009  0.00  0.00    +0.000 A 
ATOM      5  C   UNL     1      -1.648   1.210  -0.009  0.00  0.00    +0.000 A 
ATOM      6  C   UNL     1      -2.286  -0.030  -0.029  0.00  0.00    +0.000 A 
ATOM      7  C   UNL     1      -1.525  -1.189  -0.016  0.00  0.00    +0.000 A 
ATOM      8  N   UNL     1      -0.177  -1.204   0.004  0.00  0.00    +0.000 NA
BRANCH   3  10
ATOM      9  N   UNL     1       3.031   0.036   0.011  0.00  0.00    +0.000 NA
ATOM     10  C   UNL     1       1.872  -0.010   0.014  0.00  0.00    +0.000 C 
ENDBRANCH   3  10
ENDBRANCH   1   5
BRANCH   1  11
ATOM     11  C   UNL     1      -1.800   3.709   0.001  0.00  0.00    +0.000 C 
BRANCH  11  12
ATOM     12  C   UNL     1      -2.826   4.864  -0.008  0.00  0.00    +0.000 C 
ATOM     13  F   UNL     1      -3.589   4.758  -1.142  0.00  0.00    +0.000 F 
ATOM     14  F   UNL     1      -3.707   4.665   1.024  0.00  0.00    +0.000 F 
BRANCH  12  15
ATOM     15  C   UNL     1      -2.138   6.220   0.087  0.00  0.00    +0.000 A 
ATOM     16  C   UNL     1      -2.919   7.374   0.086  0.00  0.00    +0.000 A 
ATOM     17  C   UNL     1      -2.290   8.614   0.163  0.00  0.00    +0.000 A 
ATOM     18  C   UNL     1      -0.905   8.675   0.246  0.00  0.00    +0.000 A 
ATOM     19  C   UNL     1      -0.195   7.488   0.248  0.00  0.00    +0.000 A 
ATOM     20  N   UNL     1      -0.777   6.272   0.170  0.00  0.00    +0.000 NA
ENDBRANCH  12  15
ENDBRANCH  11  12
ENDBRANCH   1  11
TORSDOF 5
