REMARK  Name = 
REMARK  6 active torsions:
REMARK  status: ('A' for Active; 'I' for Inactive)
REMARK    1  A    between atoms: C_2  and  C_3
REMARK    2  A    between atoms: C_6  and  C_7
REMARK    3  A    between atoms: C_7  and  N_8
REMARK    4  A    between atoms: C_11  and  C_12
REMARK    5  A    between atoms: C_12  and  N_13
REMARK    6  A    between atoms: C_14  and  C_16
REMARK                            x       y       z     vdW  Elec       q    Type
REMARK                         _______ _______ _______ _____ _____    ______ ____
ROOT
ATOM      1  C   UNL     1      -5.988   5.115  -0.239  0.00  0.00    +0.000 C 
ENDROOT
BRANCH   1   5
ATOM      2  N   UNL     1      -4.459   1.155  -0.185  0.00  0.00    +0.000 N 
ATOM      3  C   UNL     1      -4.298   1.890  -1.342  0.00  0.00    +0.000 C 
ATOM      4  C   UNL     1      -4.803   3.234  -1.349  0.00  0.00    +0.000 C 
ATOM      5  C   UNL     1      -5.439   3.708  -0.258  0.00  0.00    +0.000 C 
ATOM      6  N   UNL     1      -5.655   2.948   0.885  0.00  0.00    +0.000 NA
ATOM      7  C   UNL     1      -5.160   1.748   0.854  0.00  0.00    +0.000 C 
BRANCH   2   8
ATOM      8  C   UNL     1      -3.794  -0.132   0.009  0.00  0.00    +0.000 C 
BRANCH   8  12
ATOM      9  C   UNL     1       0.167  -0.007   1.600  0.00  0.00    +0.000 A 
ATOM     10  C   UNL     1      -0.492   1.205   1.456  0.00  0.00    +0.000 A 
ATOM     11  C   UNL     1      -1.792   1.197   0.948  0.00  0.00    +0.000 A 
ATOM     12  C   UNL     1      -2.399  -0.013   0.589  0.00  0.00    +0.000 A 
ATOM     13  C   UNL     1      -1.650  -1.171   0.780  0.00  0.00    +0.000 A 
ATOM     14  N   UNL     1      -0.390  -1.198   1.275  0.00  0.00    +0.000 NA
BRANCH   9  16
ATOM     15  N   UNL     1       2.593  -0.047   2.534  0.00  0.00    +0.000 NA
ATOM     16  C   UNL     1       1.508  -0.054   2.113  0.00  0.00    +0.000 C 
ENDBRANCH   9  16
ENDBRANCH   8  12
ENDBRANCH   2   8
ENDBRANCH   1   5
BRANCH   1  17
ATOM     17  N   UNL     1      -5.031   5.992   0.395  0.00  0.00    +0.000 N 
ATOM     18  C   UNL     1      -4.180   6.794  -0.316  0.00  0.00    +0.000 C 
ATOM     19  O   UNL     1      -4.169   6.815  -1.544  0.00  0.00    +0.000 OA
ATOM     20  H   UNL     1      -4.850   5.802   1.376  0.00  0.00    +0.000 HD
BRANCH  18  21
ATOM     21  C   UNL     1      -3.333   7.703   0.470  0.00  0.00    +0.000 A 
ATOM     22  C   UNL     1      -2.831   8.856  -0.116  0.00  0.00    +0.000 A 
ATOM     23  S   UNL     1      -1.943   9.840   0.958  0.00  0.00    +0.000 S 
ATOM     24  C   UNL     1      -2.154   8.733   2.233  0.00  0.00    +0.000 A 
ATOM     25  N   UNL     1      -1.621   8.969   3.461  0.00  0.00    +0.000 NA
ATOM     26  C   UNL     1      -1.830   8.032   4.324  0.00  0.00    +0.000 A 
ATOM     27  N   UNL     1      -2.524   6.878   4.069  0.00  0.00    +0.000 N 
ATOM     28  C   UNL     1      -3.107   6.611   2.853  0.00  0.00    +0.000 A 
ATOM     29  O   UNL     1      -3.756   5.587   2.675  0.00  0.00    +0.000 OA
ATOM     30  C   UNL     1      -2.897   7.631   1.845  0.00  0.00    +0.000 A 
ATOM     31  H   UNL     1      -2.660   6.183   4.788  0.00  0.00    +0.000 HD
ENDBRANCH  18  21
ENDBRANCH   1  17
TORSDOF 6
