REMARK  Name = 
REMARK  7 active torsions:
REMARK  status: ('A' for Active; 'I' for Inactive)
REMARK    1  A    between atoms: C_1  and  C_2
REMARK    2  A    between atoms: C_2  and  C_3
REMARK    3  A    between atoms: C_2  and  C_4
REMARK    4  A    between atoms: C_2  and  C_18
REMARK    5  A    between atoms: C_5  and  C_6
REMARK    6  A    between atoms: C_8  and  C_9
REMARK    7  A    between atoms: C_21  and  C_22
REMARK                            x       y       z     vdW  Elec       q    Type
REMARK                         _______ _______ _______ _____ _____    ______ ____
ROOT
ATOM      1  C   UNL     1       0.944  -0.132  -0.061  0.00  0.00    +0.000 C 
ATOM      2  C   UNL     1       2.485  -0.040  -0.109  0.00  0.00    +0.000 C 
ATOM      3  C   UNL     1       2.996  -0.089   1.353  0.00  0.00    +0.000 C 
ENDROOT
BRANCH   2   4
ATOM      4  C   UNL     1       2.996   1.256  -0.759  0.00  0.00    +0.000 A 
ATOM      5  C   UNL     1       4.374   1.507  -0.874  0.00  0.00    +0.000 A 
ATOM      6  C   UNL     1       4.835   2.700  -1.426  0.00  0.00    +0.000 A 
ATOM      7  C   UNL     1       3.898   3.625  -1.861  0.00  0.00    +0.000 A 
ATOM      8  N   UNL     1       2.554   3.425  -1.794  0.00  0.00    +0.000 NA
ATOM      9  C   UNL     1       2.146   2.252  -1.249  0.00  0.00    +0.000 A 
BRANCH   7  10
ATOM     10  C   UNL     1       4.355   4.929  -2.435  0.00  0.00    +0.000 C 
ATOM     11  N   UNL     1       3.356   5.782  -2.824  0.00  0.00    +0.000 N 
ATOM     12  O   UNL     1       5.535   5.225  -2.549  0.00  0.00    +0.000 OA
ATOM     13  H   UNL     1       2.387   5.509  -2.699  0.00  0.00    +0.000 HD
ATOM     14  H   UNL     1       3.594   6.686  -3.203  0.00  0.00    +0.000 HD
ENDBRANCH   7  10
ENDBRANCH   2   4
BRANCH   2  15
ATOM     15  C   UNL     1       2.969  -1.303  -0.810  0.00  0.00    +0.000 C 
ATOM     16  C   UNL     1       3.246  -1.458  -2.117  0.00  0.00    +0.000 C 
BRANCH  16  17
ATOM     17  C   UNL     1       3.676  -2.742  -2.681  0.00  0.00    +0.000 A 
ATOM     18  C   UNL     1       4.453  -2.770  -3.835  0.00  0.00    +0.000 A 
ATOM     19  C   UNL     1       4.831  -4.000  -4.394  0.00  0.00    +0.000 A 
ATOM     20  C   UNL     1       4.388  -5.157  -3.739  0.00  0.00    +0.000 A 
ATOM     21  C   UNL     1       3.630  -5.040  -2.586  0.00  0.00    +0.000 A 
ATOM     22  N   UNL     1       3.269  -3.862  -2.045  0.00  0.00    +0.000 NA
BRANCH  19  23
ATOM     23  C   UNL     1       5.657  -4.069  -5.620  0.00  0.00    +0.000 A 
ATOM     24  C   UNL     1       5.607  -3.079  -6.613  0.00  0.00    +0.000 A 
ATOM     25  C   UNL     1       6.403  -3.169  -7.755  0.00  0.00    +0.000 A 
ATOM     26  C   UNL     1       7.236  -4.265  -7.888  0.00  0.00    +0.000 A 
ATOM     27  N   UNL     1       7.322  -5.248  -6.972  0.00  0.00    +0.000 NA
ATOM     28  C   UNL     1       6.542  -5.122  -5.870  0.00  0.00    +0.000 A 
ENDBRANCH  19  23
ENDBRANCH  16  17
ENDBRANCH   2  15
TORSDOF 5
