REMARK  Name = 
REMARK  6 active torsions:
REMARK  status: ('A' for Active; 'I' for Inactive)
REMARK    1  A    between atoms: C_1  and  O_2
REMARK    2  A    between atoms: O_2  and  C_3
REMARK    3  A    between atoms: C_5  and  C_6
REMARK    4  A    between atoms: C_6  and  N_7
REMARK    5  A    between atoms: C_11  and  C_12
REMARK    6  A    between atoms: C_21  and  O_22
REMARK                            x       y       z     vdW  Elec       q    Type
REMARK                         _______ _______ _______ _____ _____    ______ ____
ROOT
ATOM      1  C   UNL     1       2.695   4.980  -0.159  0.00  0.00    +0.000 C 
ATOM      2  C   UNL     1       2.149   5.742   1.031  0.00  0.00    +0.000 C 
ATOM      3  C   UNL     1       1.223   5.368  -0.068  0.00  0.00    +0.000 C 
ENDROOT
BRANCH   1   4
ATOM      4  N   UNL     1       3.242   5.499  -1.416  0.00  0.00    +0.000 N 
ATOM      5  C   UNL     1       4.509   6.050  -1.591  0.00  0.00    +0.000 A 
ATOM      6  N   UNL     1       5.068   5.688  -2.761  0.00  0.00    +0.000 NA
ATOM      7  C   UNL     1       6.164   6.363  -3.168  0.00  0.00    +0.000 A 
ATOM      8  C   UNL     1       6.702   7.406  -2.453  0.00  0.00    +0.000 A 
ATOM      9  C   UNL     1       6.106   7.652  -1.239  0.00  0.00    +0.000 A 
ATOM     10  N   UNL     1       5.011   6.989  -0.780  0.00  0.00    +0.000 NA
ATOM     11  H   UNL     1       3.186   4.832  -2.185  0.00  0.00    +0.000 HD
BRANCH   8  12
ATOM     12  C   UNL     1       7.815   8.176  -3.038  0.00  0.00    +0.000 C 
ATOM     13  N   UNL     1       7.937   9.487  -2.656  0.00  0.00    +0.000 N 
ATOM     14  O   UNL     1       8.554   7.687  -3.871  0.00  0.00    +0.000 OA
ATOM     15  H   UNL     1       7.199   9.999  -2.186  0.00  0.00    +0.000 HD
ATOM     16  H   UNL     1       8.593  10.037  -3.199  0.00  0.00    +0.000 HD
ENDBRANCH   8  12
ENDBRANCH   1   4
BRANCH   1  19
ATOM     17  C   UNL     1       3.244   1.161  -0.148  0.00  0.00    +0.000 A 
ATOM     18  C   UNL     1       2.604   2.406  -0.246  0.00  0.00    +0.000 A 
ATOM     19  C   UNL     1       3.243   3.592   0.160  0.00  0.00    +0.000 A 
ATOM     20  C   UNL     1       4.516   3.478   0.754  0.00  0.00    +0.000 A 
ATOM     21  C   UNL     1       5.174   2.253   0.844  0.00  0.00    +0.000 A 
ATOM     22  C   UNL     1       4.546   1.109   0.367  0.00  0.00    +0.000 A 
BRANCH  17  24
ATOM     23  C   UNL     1       1.403  -0.020  -1.101  0.00  0.00    +0.000 C 
ATOM     24  O   UNL     1       2.713  -0.033  -0.557  0.00  0.00    +0.000 OA
ENDBRANCH  17  24
BRANCH  22  25
ATOM     25  O   UNL     1       5.221  -0.084   0.376  0.00  0.00    +0.000 OA
ATOM     26  H   UNL     1       6.154   0.088   0.576  0.00  0.00    +0.000 HD
ENDBRANCH  22  25
ENDBRANCH   1  19
TORSDOF 5
