REMARK  Name = 
REMARK  6 active torsions:
REMARK  status: ('A' for Active; 'I' for Inactive)
REMARK    1  A    between atoms: N_1  and  C_2
REMARK    2  A    between atoms: N_5  and  C_6
REMARK    3  A    between atoms: C_6  and  C_7
REMARK    4  A    between atoms: C_10  and  C_11
REMARK    5  A    between atoms: C_11  and  N_12
REMARK    6  A    between atoms: C_13  and  C_15
REMARK                            x       y       z     vdW  Elec       q    Type
REMARK                         _______ _______ _______ _____ _____    ______ ____
ROOT
ATOM      1  C   UNL     1      10.814  -1.119   1.472  0.00  0.00    +0.000 C 
ENDROOT
BRANCH   1   5
ATOM      2  C   UNL     1       6.816   0.301   0.505  0.00  0.00    +0.000 A 
ATOM      3  C   UNL     1       7.093  -1.071   0.610  0.00  0.00    +0.000 A 
ATOM      4  C   UNL     1       8.376  -1.531   0.928  0.00  0.00    +0.000 A 
ATOM      5  C   UNL     1       9.432  -0.629   1.107  0.00  0.00    +0.000 A 
ATOM      6  C   UNL     1       9.180   0.736   0.918  0.00  0.00    +0.000 A 
ATOM      7  C   UNL     1       7.883   1.199   0.643  0.00  0.00    +0.000 A 
BRANCH   2   8
ATOM      8  C   UNL     1       5.399   0.768   0.218  0.00  0.00    +0.000 C 
BRANCH   8  12
ATOM      9  C   UNL     1       2.469   0.009   0.723  0.00  0.00    +0.000 C 
ATOM     10  C   UNL     1       3.097  -0.911   1.765  0.00  0.00    +0.000 C 
ATOM     11  C   UNL     1       4.322  -0.151   2.274  0.00  0.00    +0.000 C 
ATOM     12  N   UNL     1       4.542   1.012   1.398  0.00  0.00    +0.000 NA
ATOM     13  C   UNL     1       3.161   1.358   0.980  0.00  0.00    +0.000 C 
BRANCH   9  14
ATOM     14  N   UNL     1       1.011   0.024   0.803  0.00  0.00    +0.000 NA
ATOM     15  H   UNL     1       0.647  -0.913   0.628  0.00  0.00    +0.000 HD
ATOM     16  H   UNL     1       0.628   0.624   0.073  0.00  0.00    +0.000 HD
ENDBRANCH   9  14
ENDBRANCH   8  12
ENDBRANCH   2   8
ENDBRANCH   1   5
BRANCH   1  17
ATOM     17  N   UNL     1      11.604  -1.404   0.299  0.00  0.00    +0.000 N 
ATOM     18  C   UNL     1      12.871  -1.932   0.393  0.00  0.00    +0.000 C 
ATOM     19  O   UNL     1      13.388  -2.212   1.470  0.00  0.00    +0.000 OA
ATOM     20  H   UNL     1      11.320  -0.955  -0.563  0.00  0.00    +0.000 HD
BRANCH  18  21
ATOM     21  C   UNL     1      13.552  -2.205  -0.881  0.00  0.00    +0.000 A 
ATOM     22  C   UNL     1      14.533  -3.188  -0.945  0.00  0.00    +0.000 A 
ATOM     23  S   UNL     1      15.195  -3.393  -2.505  0.00  0.00    +0.000 S 
ATOM     24  C   UNL     1      14.236  -2.140  -3.138  0.00  0.00    +0.000 A 
ATOM     25  N   UNL     1      14.342  -1.765  -4.442  0.00  0.00    +0.000 NA
ATOM     26  C   UNL     1      13.574  -0.782  -4.779  0.00  0.00    +0.000 A 
ATOM     27  N   UNL     1      12.703  -0.148  -3.933  0.00  0.00    +0.000 N 
ATOM     28  C   UNL     1      12.536  -0.517  -2.621  0.00  0.00    +0.000 A 
ATOM     29  O   UNL     1      11.699   0.031  -1.908  0.00  0.00    +0.000 OA
ATOM     30  C   UNL     1      13.395  -1.599  -2.181  0.00  0.00    +0.000 A 
ATOM     31  H   UNL     1      12.115   0.604  -4.264  0.00  0.00    +0.000 HD
ENDBRANCH  18  21
ENDBRANCH   1  17
TORSDOF 6
