REMARK  Name = 
REMARK  9 active torsions:
REMARK  status: ('A' for Active; 'I' for Inactive)
REMARK    1  A    between atoms: C_2  and  C_3
REMARK    2  A    between atoms: C_3  and  N_4
REMARK    3  A    between atoms: C_3  and  C_21
REMARK    4  A    between atoms: N_4  and  C_5
REMARK    5  A    between atoms: C_5  and  C_6
REMARK    6  A    between atoms: C_9  and  C_10
REMARK    7  A    between atoms: C_10  and  O_11
REMARK    8  A    between atoms: O_11  and  C_12
REMARK    9  A    between atoms: C_12  and  C_13
REMARK                            x       y       z     vdW  Elec       q    Type
REMARK                         _______ _______ _______ _____ _____    ______ ____
ROOT
ATOM      1  N   UNL     1       0.650  -1.977   2.090  0.00  0.00    +0.000 NA
ATOM      2  H   UNL     1       1.650  -1.784   2.164  0.00  0.00    +0.000 HD
ENDROOT
BRANCH   1   3
ATOM      3  C   UNL     1       0.316  -3.001   3.106  0.00  0.00    +0.000 C 
BRANCH   3   4
ATOM      4  C   UNL     1       1.118  -4.243   2.765  0.00  0.00    +0.000 A 
ATOM      5  C   UNL     1       0.705  -5.276   1.934  0.00  0.00    +0.000 A 
ATOM      6  S   UNL     1       1.831  -6.560   1.843  0.00  0.00    +0.000 S 
ATOM      7  C   UNL     1       2.925  -5.756   2.869  0.00  0.00    +0.000 A 
ATOM      8  N   UNL     1       4.119  -6.308   3.211  0.00  0.00    +0.000 NA
ATOM      9  C   UNL     1       4.846  -5.568   3.981  0.00  0.00    +0.000 A 
ATOM     10  N   UNL     1       4.491  -4.322   4.439  0.00  0.00    +0.000 N 
ATOM     11  C   UNL     1       3.301  -3.721   4.110  0.00  0.00    +0.000 A 
ATOM     12  O   UNL     1       3.015  -2.585   4.488  0.00  0.00    +0.000 OA
ATOM     13  C   UNL     1       2.441  -4.526   3.268  0.00  0.00    +0.000 A 
ATOM     14  H   UNL     1       5.120  -3.790   5.021  0.00  0.00    +0.000 HD
ENDBRANCH   3   4
BRANCH   3  16
ATOM     15  N   UNL     1      -2.271  -3.569   3.240  0.00  0.00    +0.000 NA
ATOM     16  C   UNL     1      -1.136  -3.333   3.181  0.00  0.00    +0.000 C 
ENDBRANCH   3  16
ENDBRANCH   1   3
BRANCH   1  17
ATOM     17  C   UNL     1      -0.084  -0.729   2.352  0.00  0.00    +0.000 C 
BRANCH  17  18
ATOM     18  C   UNL     1       0.243   0.407   1.365  0.00  0.00    +0.000 C 
ATOM     19  C   UNL     1      -0.115   0.046  -0.085  0.00  0.00    +0.000 C 
ATOM     20  C   UNL     1       0.021   1.269  -0.991  0.00  0.00    +0.000 C 
ATOM     21  C   UNL     1      -0.738   2.471  -0.420  0.00  0.00    +0.000 C 
ATOM     22  C   UNL     1      -0.270   2.718   1.015  0.00  0.00    +0.000 C 
ATOM     23  O   UNL     1      -0.486   1.557   1.818  0.00  0.00    +0.000 OA
BRANCH  21  24
ATOM     24  C   UNL     1      -2.255   2.242  -0.440  0.00  0.00    +0.000 C 
BRANCH  24  25
ATOM     25  O   UNL     1      -2.902   3.404   0.073  0.00  0.00    +0.000 OA
BRANCH  25  26
ATOM     26  C   UNL     1      -4.315   3.232   0.104  0.00  0.00    +0.000 C 
BRANCH  26  27
ATOM     27  C   UNL     1      -4.945   4.463   0.692  0.00  0.00    +0.000 A 
ATOM     28  C   UNL     1      -5.839   5.235  -0.062  0.00  0.00    +0.000 A 
ATOM     29  C   UNL     1      -6.451   6.357   0.498  0.00  0.00    +0.000 A 
ATOM     30  C   UNL     1      -6.176   6.715   1.816  0.00  0.00    +0.000 A 
ATOM     31  C   UNL     1      -5.280   5.961   2.572  0.00  0.00    +0.000 A 
ATOM     32  C   UNL     1      -4.661   4.845   2.011  0.00  0.00    +0.000 A 
ENDBRANCH  26  27
ENDBRANCH  25  26
ENDBRANCH  24  25
ENDBRANCH  21  24
ENDBRANCH  17  18
ENDBRANCH   1  17
TORSDOF 9
