REMARK  Name = 
REMARK  8 active torsions:
REMARK  status: ('A' for Active; 'I' for Inactive)
REMARK    1  A    between atoms: C_1  and  O_2
REMARK    2  A    between atoms: O_2  and  C_3
REMARK    3  A    between atoms: C_10  and  C_11
REMARK    4  A    between atoms: N_13  and  C_14
REMARK    5  A    between atoms: C_14  and  C_15
REMARK    6  A    between atoms: C_18  and  N_19
REMARK    7  A    between atoms: N_19  and  C_20
REMARK    8  A    between atoms: C_20  and  C_21
REMARK                            x       y       z     vdW  Elec       q    Type
REMARK                         _______ _______ _______ _____ _____    ______ ____
ROOT
ATOM      1  C   UNL     1      -8.720  -6.318   4.013  0.00  0.00    +0.000 C 
ENDROOT
BRANCH   1   2
ATOM      2  C   UNL     1      -7.430  -5.695   4.498  0.00  0.00    +0.000 A 
ATOM      3  C   UNL     1      -7.421  -4.378   4.971  0.00  0.00    +0.000 A 
ATOM      4  C   UNL     1      -6.243  -3.789   5.457  0.00  0.00    +0.000 A 
ATOM      5  C   UNL     1      -5.036  -4.498   5.476  0.00  0.00    +0.000 A 
ATOM      6  C   UNL     1      -5.033  -5.790   4.943  0.00  0.00    +0.000 A 
ATOM      7  C   UNL     1      -6.217  -6.399   4.492  0.00  0.00    +0.000 A 
BRANCH   5   8
ATOM      8  N   UNL     1      -3.832  -3.976   5.967  0.00  0.00    +0.000 N 
ATOM      9  H   UNL     1      -3.228  -3.643   5.214  0.00  0.00    +0.000 HD
BRANCH   8  10
ATOM     10  C   UNL     1      -3.913  -3.052   7.094  0.00  0.00    +0.000 C 
BRANCH  10  11
ATOM     11  C   UNL     1      -2.665  -3.157   7.987  0.00  0.00    +0.000 C 
ATOM     12  C   UNL     1      -2.813  -2.190   9.176  0.00  0.00    +0.000 C 
ATOM     13  C   UNL     1      -1.701  -2.382  10.202  0.00  0.00    +0.000 C 
ATOM     14  C   UNL     1      -1.575  -3.846  10.611  0.00  0.00    +0.000 C 
ATOM     15  N   UNL     1      -1.344  -4.690   9.442  0.00  0.00    +0.000 NA
ATOM     16  C   UNL     1      -2.456  -4.597   8.489  0.00  0.00    +0.000 C 
ATOM     17  H   UNL     1      -1.246  -5.661   9.740  0.00  0.00    +0.000 HD
ENDBRANCH  10  11
ENDBRANCH   8  10
ENDBRANCH   5   8
ENDBRANCH   1   2
BRANCH   1  20
ATOM     18  C   UNL     1     -10.073  -6.530   1.942  0.00  0.00    +0.000 C 
ATOM     19  O   UNL     1     -10.948  -7.165   2.524  0.00  0.00    +0.000 OA
ATOM     20  N   UNL     1      -8.957  -6.079   2.612  0.00  0.00    +0.000 N 
ATOM     21  H   UNL     1      -8.273  -5.519   2.122  0.00  0.00    +0.000 HD
BRANCH  18  29
ATOM     22  C   UNL     1      -8.055  -4.773  -0.216  0.00  0.00    +0.000 A 
ATOM     23  N   UNL     1      -7.414  -4.220  -1.262  0.00  0.00    +0.000 NA
ATOM     24  C   UNL     1      -7.964  -4.352  -2.470  0.00  0.00    +0.000 A 
ATOM     25  N   UNL     1      -9.107  -4.960  -2.770  0.00  0.00    +0.000 NA
ATOM     26  C   UNL     1      -9.710  -5.503  -1.697  0.00  0.00    +0.000 A 
ATOM     27  S   UNL     1     -11.190  -6.313  -1.881  0.00  0.00    +0.000 S 
ATOM     28  C   UNL     1     -11.253  -6.689  -0.224  0.00  0.00    +0.000 A 
ATOM     29  C   UNL     1     -10.160  -6.227   0.502  0.00  0.00    +0.000 A 
ATOM     30  C   UNL     1      -9.256  -5.485  -0.383  0.00  0.00    +0.000 A 
BRANCH  22  32
ATOM     31  C   UNL     1      -6.644  -3.508   1.151  0.00  0.00    +0.000 C 
ATOM     32  O   UNL     1      -7.470  -4.660   1.026  0.00  0.00    +0.000 OA
ENDBRANCH  22  32
ENDBRANCH  18  29
ENDBRANCH   1  20
TORSDOF 7
