REMARK  Name = 
REMARK  6 active torsions:
REMARK  status: ('A' for Active; 'I' for Inactive)
REMARK    1  A    between atoms: C_1  and  S_2
REMARK    2  A    between atoms: S_2  and  C_5
REMARK    3  A    between atoms: C_8  and  N_9
REMARK    4  A    between atoms: N_9  and  C_10
REMARK    5  A    between atoms: C_10  and  C_11
REMARK    6  A    between atoms: C_11  and  C_13
REMARK                            x       y       z     vdW  Elec       q    Type
REMARK                         _______ _______ _______ _____ _____    ______ ____
ROOT
ATOM      1  N   UNL     1       4.820  -1.034   5.372  0.00  0.00    +0.000 N 
ATOM      2  H   UNL     1       4.445  -0.312   5.990  0.00  0.00    +0.000 HD
ENDROOT
BRANCH   1   6
ATOM      3  C   UNL     1       3.297  -0.488   1.622  0.00  0.00    +0.000 A 
ATOM      4  C   UNL     1       2.747  -1.443   2.449  0.00  0.00    +0.000 A 
ATOM      5  N   UNL     1       3.223  -1.653   3.704  0.00  0.00    +0.000 NA
ATOM      6  C   UNL     1       4.251  -0.871   4.101  0.00  0.00    +0.000 A 
ATOM      7  C   UNL     1       4.748   0.128   3.253  0.00  0.00    +0.000 A 
ATOM      8  N   UNL     1       4.305   0.341   1.989  0.00  0.00    +0.000 NA
BRANCH   3  10
ATOM      9  C   UNL     1       3.746   0.909  -0.774  0.00  0.00    +0.000 C 
ATOM     10  S   UNL     1       2.756  -0.369  -0.049  0.00  0.00    +0.000 S 
ATOM     11  O   UNL     1       1.378   0.096  -0.017  0.00  0.00    +0.000 OA
ATOM     12  O   UNL     1       3.100  -1.623  -0.698  0.00  0.00    +0.000 OA
ENDBRANCH   3  10
ENDBRANCH   1   6
BRANCH   1  13
ATOM     13  C   UNL     1       4.630  -2.377   5.945  0.00  0.00    +0.000 C 
BRANCH  13  14
ATOM     14  C   UNL     1       5.329  -2.466   7.317  0.00  0.00    +0.000 C 
ATOM     15  F   UNL     1       4.693  -1.577   8.149  0.00  0.00    +0.000 F 
BRANCH  14  16
ATOM     16  C   UNL     1       5.352  -3.861   7.883  0.00  0.00    +0.000 A 
ATOM     17  C   UNL     1       4.711  -4.171   9.087  0.00  0.00    +0.000 A 
ATOM     18  C   UNL     1       4.773  -5.466   9.593  0.00  0.00    +0.000 A 
ATOM     19  C   UNL     1       5.478  -6.417   8.877  0.00  0.00    +0.000 A 
ATOM     20  N   UNL     1       6.117  -6.157   7.716  0.00  0.00    +0.000 NA
ATOM     21  C   UNL     1       6.045  -4.890   7.251  0.00  0.00    +0.000 A 
ENDBRANCH  14  16
ENDBRANCH  13  14
ENDBRANCH   1  13
TORSDOF 5
