REMARK  Name = 
REMARK  5 active torsions:
REMARK  status: ('A' for Active; 'I' for Inactive)
REMARK    1  A    between atoms: N_1  and  C_2
REMARK    2  A    between atoms: C_2  and  C_3
REMARK    3  A    between atoms: C_3  and  C_4
REMARK    4  A    between atoms: C_7  and  C_8
REMARK    5  A    between atoms: C_8  and  N_9
REMARK                            x       y       z     vdW  Elec       q    Type
REMARK                         _______ _______ _______ _____ _____    ______ ____
ROOT
ATOM      1  C   UNL     1       4.597   0.866  -1.213  0.00  0.00    +0.000 A 
ATOM      2  C   UNL     1       5.336   1.524  -2.202  0.00  0.00    +0.000 A 
ATOM      3  C   UNL     1       6.736   1.538  -2.149  0.00  0.00    +0.000 A 
ATOM      4  C   UNL     1       7.419   0.901  -1.104  0.00  0.00    +0.000 A 
ATOM      5  C   UNL     1       6.682   0.229  -0.126  0.00  0.00    +0.000 A 
ATOM      6  C   UNL     1       5.283   0.206  -0.185  0.00  0.00    +0.000 A 
ENDROOT
BRANCH   1   7
ATOM      7  C   UNL     1       3.086   0.888  -1.235  0.00  0.00    +0.000 C 
BRANCH   7   8
ATOM      8  C   UNL     1       2.466  -0.272  -2.021  0.00  0.00    +0.000 C 
BRANCH   8   9
ATOM      9  N   UNL     1       1.005  -0.191  -1.990  0.00  0.00    +0.000 NA
ATOM     10  H   UNL     1       0.609  -0.960  -2.530  0.00  0.00    +0.000 HD
ATOM     11  H   UNL     1       0.697   0.667  -2.450  0.00  0.00    +0.000 HD
ENDBRANCH   8   9
ENDBRANCH   7   8
ENDBRANCH   1   7
BRANCH   4  12
ATOM     12  C   UNL     1       8.928   0.882  -1.076  0.00  0.00    +0.000 C 
BRANCH  12  13
ATOM     13  N   UNL     1       9.556   1.973  -0.342  0.00  0.00    +0.000 N 
ATOM     14  C   UNL     1       9.264   3.303  -0.479  0.00  0.00    +0.000 A 
ATOM     15  N   UNL     1      10.277   4.067  -0.130  0.00  0.00    +0.000 NA
ATOM     16  C   UNL     1      11.252   3.199   0.289  0.00  0.00    +0.000 A 
ATOM     17  C   UNL     1      12.575   3.460   0.679  0.00  0.00    +0.000 A 
ATOM     18  C   UNL     1      13.389   2.389   1.067  0.00  0.00    +0.000 A 
ATOM     19  C   UNL     1      12.884   1.089   1.110  0.00  0.00    +0.000 A 
ATOM     20  C   UNL     1      11.572   0.806   0.713  0.00  0.00    +0.000 A 
ATOM     21  C   UNL     1      10.793   1.883   0.268  0.00  0.00    +0.000 A 
ENDBRANCH  12  13
ENDBRANCH   4  12
TORSDOF 5
