REMARK  Name = 
REMARK  10 active torsions:
REMARK  status: ('A' for Active; 'I' for Inactive)
REMARK    1  A    between atoms: C_1  and  O_2
REMARK    2  A    between atoms: O_2  and  C_3
REMARK    3  A    between atoms: C_3  and  C_4
REMARK    4  A    between atoms: C_4  and  N_5
REMARK    5  A    between atoms: C_4  and  C_27
REMARK    6  A    between atoms: N_5  and  C_6
REMARK    7  A    between atoms: C_6  and  C_7
REMARK    8  A    between atoms: C_10  and  C_11
REMARK    9  A    between atoms: C_11  and  N_12
REMARK   10  A    between atoms: C_13  and  C_15
REMARK                            x       y       z     vdW  Elec       q    Type
REMARK                         _______ _______ _______ _____ _____    ______ ____
ROOT
ATOM      1  C   UNL     1       5.012  -0.617   2.883  0.00  0.00    +0.000 A 
ATOM      2  C   UNL     1       5.389   0.432   3.724  0.00  0.00    +0.000 A 
ATOM      3  C   UNL     1       5.747   0.160   5.041  0.00  0.00    +0.000 A 
ATOM      4  C   UNL     1       5.704  -1.153   5.499  0.00  0.00    +0.000 A 
ATOM      5  N   UNL     1       5.399  -2.196   4.689  0.00  0.00    +0.000 NA
ATOM      6  C   UNL     1       5.056  -1.904   3.413  0.00  0.00    +0.000 A 
ENDROOT
BRANCH   1   7
ATOM      7  C   UNL     1       4.454  -0.385   1.505  0.00  0.00    +0.000 C 
BRANCH   7   8
ATOM      8  N   UNL     1       5.356   0.345   0.614  0.00  0.00    +0.000 NA
ATOM      9  H   UNL     1       5.509   1.278   1.001  0.00  0.00    +0.000 HD
BRANCH   8  10
ATOM     10  C   UNL     1       4.791   0.544  -0.745  0.00  0.00    +0.000 C 
BRANCH  10  11
ATOM     11  C   UNL     1       4.533  -0.774  -1.449  0.00  0.00    +0.000 A 
ATOM     12  C   UNL     1       3.275  -1.400  -1.461  0.00  0.00    +0.000 A 
ATOM     13  C   UNL     1       3.120  -2.659  -2.030  0.00  0.00    +0.000 A 
ATOM     14  C   UNL     1       4.230  -3.258  -2.593  0.00  0.00    +0.000 A 
ATOM     15  N   UNL     1       5.453  -2.689  -2.624  0.00  0.00    +0.000 NA
ATOM     16  C   UNL     1       5.581  -1.473  -2.045  0.00  0.00    +0.000 A 
ENDBRANCH  10  11
BRANCH  10  17
ATOM     17  C   UNL     1       3.560   1.494  -0.777  0.00  0.00    +0.000 C 
BRANCH  17  19
ATOM     18  C   UNL     1       2.672   3.576  -0.166  0.00  0.00    +0.000 C 
ATOM     19  O   UNL     1       3.828   2.739  -0.120  0.00  0.00    +0.000 OA
ENDBRANCH  17  19
ENDBRANCH  10  17
ENDBRANCH   8  10
ENDBRANCH   7   8
ENDBRANCH   1   7
BRANCH   4  20
ATOM     20  C   UNL     1       6.025  -1.472   6.939  0.00  0.00    +0.000 C 
BRANCH  20  21
ATOM     21  N   UNL     1       7.424  -1.796   7.104  0.00  0.00    +0.000 N 
ATOM     22  C   UNL     1       8.097  -1.496   8.266  0.00  0.00    +0.000 C 
ATOM     23  O   UNL     1       7.587  -0.867   9.183  0.00  0.00    +0.000 OA
ATOM     24  H   UNL     1       7.815  -2.448   6.438  0.00  0.00    +0.000 HD
BRANCH  22  25
ATOM     25  C   UNL     1       9.487  -1.950   8.297  0.00  0.00    +0.000 A 
ATOM     26  C   UNL     1      10.283  -1.917   7.161  0.00  0.00    +0.000 A 
ATOM     27  S   UNL     1      11.887  -2.402   7.448  0.00  0.00    +0.000 S 
ATOM     28  C   UNL     1      11.565  -2.663   9.094  0.00  0.00    +0.000 A 
ATOM     29  N   UNL     1      12.557  -3.087   9.897  0.00  0.00    +0.000 NA
ATOM     30  C   UNL     1      12.168  -3.274  11.157  0.00  0.00    +0.000 A 
ATOM     31  N   UNL     1      10.942  -3.099  11.652  0.00  0.00    +0.000 NA
ATOM     32  C   UNL     1       9.995  -2.668  10.803  0.00  0.00    +0.000 A 
ATOM     33 CL   UNL     1       8.430  -2.574  11.451  0.00  0.00    +0.000 Cl
ATOM     34  C   UNL     1      10.246  -2.409   9.453  0.00  0.00    +0.000 A 
ENDBRANCH  22  25
ENDBRANCH  20  21
ENDBRANCH   4  20
TORSDOF 9
