REMARK  Name = 
REMARK  5 active torsions:
REMARK  status: ('A' for Active; 'I' for Inactive)
REMARK    1  A    between atoms: N_1  and  C_2
REMARK    2  A    between atoms: C_2  and  C_3
REMARK    3  A    between atoms: C_6  and  C_7
REMARK    4  A    between atoms: C_7  and  N_8
REMARK    5  A    between atoms: C_13  and  C_14
REMARK                            x       y       z     vdW  Elec       q    Type
REMARK                         _______ _______ _______ _____ _____    ______ ____
ROOT
ATOM      1  N   UNL     1       2.199   0.561  -3.937  0.00  0.00    +0.000 N 
ATOM      2  N   UNL     1       1.732   1.774  -3.571  0.00  0.00    +0.000 NA
ATOM      3  N   UNL     1       0.475   1.868  -3.995  0.00  0.00    +0.000 NA
ATOM      4  C   UNL     1       0.158   0.703  -4.641  0.00  0.00    +0.000 A 
ATOM      5  C   UNL     1      -1.006   0.283  -5.300  0.00  0.00    +0.000 A 
ATOM      6  C   UNL     1      -0.979  -0.995  -5.881  0.00  0.00    +0.000 A 
ATOM      7  C   UNL     1       0.178  -1.772  -5.744  0.00  0.00    +0.000 A 
ATOM      8  N   UNL     1       1.329  -1.402  -5.112  0.00  0.00    +0.000 NA
ATOM      9  C   UNL     1       1.244  -0.155  -4.605  0.00  0.00    +0.000 A 
ENDROOT
BRANCH   6  10
ATOM     10  C   UNL     1      -2.098  -1.563  -6.666  0.00  0.00    +0.000 C 
ATOM     11  N   UNL     1      -3.222  -0.808  -6.858  0.00  0.00    +0.000 N 
ATOM     12  O   UNL     1      -2.023  -2.687  -7.154  0.00  0.00    +0.000 OA
ATOM     13  H   UNL     1      -3.368   0.130  -6.524  0.00  0.00    +0.000 HD
ATOM     14  H   UNL     1      -3.951  -1.218  -7.433  0.00  0.00    +0.000 HD
ENDBRANCH   6  10
BRANCH   1  15
ATOM     15  C   UNL     1       3.572   0.188  -3.678  0.00  0.00    +0.000 C 
BRANCH  15  19
ATOM     16  C   UNL     1       2.790  -1.410   0.133  0.00  0.00    +0.000 C 
ATOM     17  N   UNL     1       3.195  -2.391  -0.876  0.00  0.00    +0.000 NA
ATOM     18  C   UNL     1       3.053  -1.807  -2.203  0.00  0.00    +0.000 C 
ATOM     19  C   UNL     1       3.826  -0.491  -2.324  0.00  0.00    +0.000 C 
ATOM     20  C   UNL     1       3.538   0.424  -1.130  0.00  0.00    +0.000 C 
ATOM     21  O   UNL     1       3.673  -0.292   0.100  0.00  0.00    +0.000 OA
ATOM     22  H   UNL     1       2.565  -3.188  -0.809  0.00  0.00    +0.000 HD
BRANCH  16  23
ATOM     23  C   UNL     1       2.818  -2.055   1.545  0.00  0.00    +0.000 C 
BRANCH  23  24
ATOM     24  N   UNL     1       1.908  -3.209   1.679  0.00  0.00    +0.000 NA
ATOM     25  H   UNL     1       2.092  -3.657   2.577  0.00  0.00    +0.000 HD
ATOM     26  H   UNL     1       2.156  -3.906   0.980  0.00  0.00    +0.000 HD
ENDBRANCH  23  24
ENDBRANCH  16  23
ENDBRANCH  15  19
ENDBRANCH   1  15
TORSDOF 5
