REMARK  Name = 
REMARK  8 active torsions:
REMARK  status: ('A' for Active; 'I' for Inactive)
REMARK    1  A    between atoms: C_1  and  C_2
REMARK    2  A    between atoms: C_4  and  C_5
REMARK    3  A    between atoms: C_10  and  N_11
REMARK    4  A    between atoms: N_11  and  C_12
REMARK    5  A    between atoms: C_12  and  C_13
REMARK    6  A    between atoms: C_17  and  C_18
REMARK    7  A    between atoms: C_21  and  C_22
REMARK    8  A    between atoms: C_22  and  O_23
REMARK                            x       y       z     vdW  Elec       q    Type
REMARK                         _______ _______ _______ _____ _____    ______ ____
ROOT
ATOM      1  C   UNL     1       2.381  -2.558   0.027  0.00  0.00    +0.000 C 
ATOM      2  C   UNL     1       3.322  -2.371   1.234  0.00  0.00    +0.000 C 
ATOM      3  C   UNL     1       3.715  -1.840  -0.092  0.00  0.00    +0.000 C 
ENDROOT
BRANCH   1   4
ATOM      4  C   UNL     1       2.341  -3.975  -0.568  0.00  0.00    +0.000 A 
ATOM      5  C   UNL     1       2.314  -4.193  -1.951  0.00  0.00    +0.000 A 
ATOM      6  C   UNL     1       2.388  -5.483  -2.476  0.00  0.00    +0.000 A 
ATOM      7  C   UNL     1       2.516  -6.585  -1.619  0.00  0.00    +0.000 A 
ATOM      8  C   UNL     1       2.570  -6.425  -0.227  0.00  0.00    +0.000 A 
ATOM      9  C   UNL     1       2.427  -5.115   0.265  0.00  0.00    +0.000 A 
BRANCH   8  10
ATOM     10  C   UNL     1       2.868  -7.558   0.681  0.00  0.00    +0.000 A 
ATOM     11  C   UNL     1       3.770  -8.565   0.288  0.00  0.00    +0.000 A 
ATOM     12  C   UNL     1       4.117  -9.615   1.143  0.00  0.00    +0.000 A 
ATOM     13  C   UNL     1       3.586  -9.683   2.432  0.00  0.00    +0.000 A 
ATOM     14  C   UNL     1       2.705  -8.679   2.848  0.00  0.00    +0.000 A 
ATOM     15  C   UNL     1       2.346  -7.638   1.983  0.00  0.00    +0.000 A 
BRANCH  13  16
ATOM     16  C   UNL     1       3.936 -10.825   3.347  0.00  0.00    +0.000 C 
BRANCH  16  17
ATOM     17  O   UNL     1       4.595 -10.354   4.514  0.00  0.00    +0.000 OA
ATOM     18  H   UNL     1       5.248  -9.695   4.222  0.00  0.00    +0.000 HD
ENDBRANCH  16  17
ENDBRANCH  13  16
ENDBRANCH   8  10
ENDBRANCH   1   4
BRANCH   1  19
ATOM     19  N   UNL     1       1.050  -1.991   0.252  0.00  0.00    +0.000 N 
ATOM     20  H   UNL     1       0.408  -2.558   0.801  0.00  0.00    +0.000 HD
BRANCH  19  27
ATOM     21  C   UNL     1       2.031   0.121  -1.848  0.00  0.00    +0.000 C 
ATOM     22  C   UNL     1       0.688   0.016  -1.206  0.00  0.00    +0.000 A 
ATOM     23  C   UNL     1      -0.228   1.044  -1.521  0.00  0.00    +0.000 A 
ATOM     24  C   UNL     1      -1.521   1.054  -1.012  0.00  0.00    +0.000 A 
ATOM     25  C   UNL     1      -1.853   0.001  -0.189  0.00  0.00    +0.000 A 
ATOM     26  N   UNL     1      -0.982  -0.983   0.171  0.00  0.00    +0.000 NA
ATOM     27  C   UNL     1       0.292  -0.974  -0.311  0.00  0.00    +0.000 A 
BRANCH  24  28
ATOM     28  C   UNL     1      -2.420   2.173  -1.383  0.00  0.00    +0.000 C 
ATOM     29  N   UNL     1      -3.694   2.208  -0.893  0.00  0.00    +0.000 N 
ATOM     30  O   UNL     1      -2.034   3.074  -2.120  0.00  0.00    +0.000 OA
ATOM     31  H   UNL     1      -4.109   1.539  -0.265  0.00  0.00    +0.000 HD
ATOM     32  H   UNL     1      -4.255   3.005  -1.172  0.00  0.00    +0.000 HD
ENDBRANCH  24  28
ENDBRANCH  19  27
ENDBRANCH   1  19
TORSDOF 7
