REMARK  Name = 
REMARK  8 active torsions:
REMARK  status: ('A' for Active; 'I' for Inactive)
REMARK    1  A    between atoms: N_1  and  C_2
REMARK    2  A    between atoms: C_2  and  C_3
REMARK    3  A    between atoms: C_2  and  C_17
REMARK    4  A    between atoms: C_3  and  N_4
REMARK    5  A    between atoms: C_5  and  C_7
REMARK    6  A    between atoms: C_20  and  C_21
REMARK    7  A    between atoms: C_21  and  N_22
REMARK    8  A    between atoms: C_23  and  C_25
REMARK                            x       y       z     vdW  Elec       q    Type
REMARK                         _______ _______ _______ _____ _____    ______ ____
ROOT
ATOM      1  C   UNL     1       2.434   0.063  -0.085  0.00  0.00    +0.000 C 
ENDROOT
BRANCH   1   2
ATOM      2  C   UNL     1       2.762   1.101   0.984  0.00  0.00    +0.000 A 
ATOM      3  C   UNL     1       2.638   2.473   0.703  0.00  0.00    +0.000 A 
ATOM      4  C   UNL     1       2.926   3.440   1.667  0.00  0.00    +0.000 A 
ATOM      5  C   UNL     1       3.332   3.063   2.950  0.00  0.00    +0.000 A 
ATOM      6  C   UNL     1       3.411   1.702   3.259  0.00  0.00    +0.000 A 
ATOM      7  C   UNL     1       3.127   0.735   2.291  0.00  0.00    +0.000 A 
BRANCH   5   8
ATOM      8  C   UNL     1       3.627   4.096   3.997  0.00  0.00    +0.000 C 
BRANCH   8   9
ATOM      9  N   UNL     1       2.437   4.433   4.742  0.00  0.00    +0.000 N 
ATOM     10  C   UNL     1       2.495   5.357   5.758  0.00  0.00    +0.000 C 
ATOM     11  O   UNL     1       3.529   5.961   6.031  0.00  0.00    +0.000 OA
ATOM     12  H   UNL     1       1.595   3.900   4.568  0.00  0.00    +0.000 HD
BRANCH  10  13
ATOM     13  C   UNL     1       1.170   5.598   6.471  0.00  0.00    +0.000 C 
ATOM     14  C   UNL     1       1.295   6.623   7.590  0.00  0.00    +0.000 C 
ATOM     15  C   UNL     1       1.599   5.763   8.800  0.00  0.00    +0.000 C 
ATOM     16  N   UNL     1       0.713   4.605   8.632  0.00  0.00    +0.000 NA
ATOM     17  C   UNL     1       0.673   4.340   7.183  0.00  0.00    +0.000 C 
ATOM     18  H   UNL     1      -0.222   4.867   8.946  0.00  0.00    +0.000 HD
ENDBRANCH  10  13
ENDBRANCH   8   9
ENDBRANCH   5   8
ENDBRANCH   1   2
BRANCH   1  19
ATOM     19  N   UNL     1       2.678   0.594  -1.444  0.00  0.00    +0.000 NA
ATOM     20  H   UNL     1       2.563  -0.170  -2.110  0.00  0.00    +0.000 HD
ATOM     21  H   UNL     1       3.670   0.830  -1.516  0.00  0.00    +0.000 HD
ENDBRANCH   1  19
BRANCH   1  22
ATOM     22  C   UNL     1       3.176  -1.291   0.103  0.00  0.00    +0.000 C 
BRANCH  22  23
ATOM     23  N   UNL     1       2.759  -2.301  -0.852  0.00  0.00    +0.000 N 
ATOM     24  C   UNL     1       3.418  -2.556  -2.023  0.00  0.00    +0.000 C 
ATOM     25  O   UNL     1       4.432  -1.949  -2.352  0.00  0.00    +0.000 OA
ATOM     26  H   UNL     1       1.834  -2.693  -0.707  0.00  0.00    +0.000 HD
BRANCH  24  27
ATOM     27  C   UNL     1       2.852  -3.623  -2.852  0.00  0.00    +0.000 A 
ATOM     28  C   UNL     1       3.661  -4.296  -3.755  0.00  0.00    +0.000 A 
ATOM     29  S   UNL     1       2.852  -5.541  -4.594  0.00  0.00    +0.000 S 
ATOM     30  C   UNL     1       1.380  -5.185  -3.818  0.00  0.00    +0.000 A 
ATOM     31  N   UNL     1       0.251  -5.888  -4.100  0.00  0.00    +0.000 NA
ATOM     32  C   UNL     1      -0.803  -5.480  -3.475  0.00  0.00    +0.000 A 
ATOM     33  N   UNL     1      -0.830  -4.436  -2.587  0.00  0.00    +0.000 N 
ATOM     34  C   UNL     1       0.297  -3.740  -2.223  0.00  0.00    +0.000 A 
ATOM     35  O   UNL     1       0.260  -2.880  -1.348  0.00  0.00    +0.000 OA
ATOM     36  C   UNL     1       1.505  -4.140  -2.921  0.00  0.00    +0.000 A 
ATOM     37  H   UNL     1      -1.685  -4.179  -2.117  0.00  0.00    +0.000 HD
ENDBRANCH  24  27
ENDBRANCH  22  23
ENDBRANCH   1  22
TORSDOF 8
