REMARK  Name = 
REMARK  7 active torsions:
REMARK  status: ('A' for Active; 'I' for Inactive)
REMARK    1  A    between atoms: N_1  and  C_2
REMARK    2  A    between atoms: C_2  and  C_3
REMARK    3  A    between atoms: C_3  and  N_4
REMARK    4  A    between atoms: C_3  and  C_17
REMARK    5  A    between atoms: C_5  and  C_7
REMARK    6  A    between atoms: C_20  and  C_21
REMARK    7  A    between atoms: C_21  and  C_22
REMARK                            x       y       z     vdW  Elec       q    Type
REMARK                         _______ _______ _______ _____ _____    ______ ____
ROOT
ATOM      1  C   UNL     1       2.913   0.911  -0.900  0.00  0.00    +0.000 C 
ENDROOT
BRANCH   1   2
ATOM      2  C   UNL     1       4.438   0.969  -0.964  0.00  0.00    +0.000 A 
ATOM      3  C   UNL     1       5.106   0.655  -2.156  0.00  0.00    +0.000 A 
ATOM      4  C   UNL     1       6.501   0.720  -2.232  0.00  0.00    +0.000 A 
ATOM      5  C   UNL     1       7.263   1.120  -1.125  0.00  0.00    +0.000 A 
ATOM      6  C   UNL     1       6.599   1.433   0.067  0.00  0.00    +0.000 A 
ATOM      7  C   UNL     1       5.205   1.354   0.148  0.00  0.00    +0.000 A 
BRANCH   5   8
ATOM      8  C   UNL     1       8.771   1.207  -1.213  0.00  0.00    +0.000 C 
BRANCH   8   9
ATOM      9  C   UNL     1       9.340   2.536  -1.668  0.00  0.00    +0.000 A 
ATOM     10  C   UNL     1       9.008   3.075  -2.911  0.00  0.00    +0.000 A 
ATOM     11  C   UNL     1       9.665   4.220  -3.354  0.00  0.00    +0.000 A 
ATOM     12  C   UNL     1      10.635   4.803  -2.550  0.00  0.00    +0.000 A 
ATOM     13  C   UNL     1      10.895   4.223  -1.321  0.00  0.00    +0.000 A 
ATOM     14  N   UNL     1      10.276   3.109  -0.867  0.00  0.00    +0.000 NA
ENDBRANCH   8   9
ENDBRANCH   5   8
ENDBRANCH   1   2
BRANCH   1  15
ATOM     15  N   UNL     1       2.405   2.260  -0.675  0.00  0.00    +0.000 N 
ATOM     16  C   UNL     1       1.069   2.568  -0.740  0.00  0.00    +0.000 C 
ATOM     17  O   UNL     1       0.196   1.715  -0.869  0.00  0.00    +0.000 OA
ATOM     18  H   UNL     1       3.073   3.011  -0.822  0.00  0.00    +0.000 HD
BRANCH  16  19
ATOM     19  C   UNL     1       0.723   3.983  -0.591  0.00  0.00    +0.000 A 
ATOM     20  C   UNL     1      -0.492   4.343  -0.025  0.00  0.00    +0.000 A 
ATOM     21  S   UNL     1      -0.735   6.030   0.044  0.00  0.00    +0.000 S 
ATOM     22  C   UNL     1       0.752   6.331  -0.729  0.00  0.00    +0.000 A 
ATOM     23  N   UNL     1       1.139   7.597  -1.035  0.00  0.00    +0.000 NA
ATOM     24  C   UNL     1       2.269   7.672  -1.657  0.00  0.00    +0.000 A 
ATOM     25  N   UNL     1       3.055   6.597  -1.983  0.00  0.00    +0.000 N 
ATOM     26  C   UNL     1       2.729   5.305  -1.645  0.00  0.00    +0.000 A 
ATOM     27  O   UNL     1       3.497   4.372  -1.863  0.00  0.00    +0.000 OA
ATOM     28  C   UNL     1       1.445   5.164  -0.990  0.00  0.00    +0.000 A 
ATOM     29  H   UNL     1       3.945   6.727  -2.442  0.00  0.00    +0.000 HD
ENDBRANCH  16  19
ENDBRANCH   1  15
BRANCH   1  30
ATOM     30  C   UNL     1       2.409  -0.103   0.172  0.00  0.00    +0.000 C 
BRANCH  30  31
ATOM     31  N   UNL     1       2.900  -1.476  -0.002  0.00  0.00    +0.000 NA
ATOM     32  H   UNL     1       2.685  -2.009   0.840  0.00  0.00    +0.000 HD
ATOM     33  H   UNL     1       3.919  -1.463  -0.079  0.00  0.00    +0.000 HD
ENDBRANCH  30  31
ENDBRANCH   1  30
TORSDOF 7
