REMARK  Name = 
REMARK  9 active torsions:
REMARK  status: ('A' for Active; 'I' for Inactive)
REMARK    1  A    between atoms: C_1  and  O_2
REMARK    2  A    between atoms: O_2  and  C_3
REMARK    3  A    between atoms: C_10  and  C_11
REMARK    4  A    between atoms: N_13  and  C_14
REMARK    5  A    between atoms: C_14  and  C_15
REMARK    6  A    between atoms: C_18  and  O_19
REMARK    7  A    between atoms: O_19  and  C_20
REMARK    8  A    between atoms: C_20  and  C_21
REMARK    9  A    between atoms: C_21  and  N_22
REMARK                            x       y       z     vdW  Elec       q    Type
REMARK                         _______ _______ _______ _____ _____    ______ ____
ROOT
ATOM      1  C   UNL     1       3.306  -2.915   1.668  0.00  0.00    +0.000 C 
ENDROOT
BRANCH   1   2
ATOM      2  C   UNL     1       2.320  -2.284   2.631  0.00  0.00    +0.000 A 
ATOM      3  C   UNL     1       1.367  -3.080   3.279  0.00  0.00    +0.000 A 
ATOM      4  C   UNL     1       0.441  -2.515   4.166  0.00  0.00    +0.000 A 
ATOM      5  C   UNL     1       0.429  -1.137   4.407  0.00  0.00    +0.000 A 
ATOM      6  C   UNL     1       1.364  -0.334   3.749  0.00  0.00    +0.000 A 
ATOM      7  C   UNL     1       2.311  -0.903   2.884  0.00  0.00    +0.000 A 
BRANCH   5   8
ATOM      8  O   UNL     1      -0.455  -0.479   5.232  0.00  0.00    +0.000 OA
BRANCH   8   9
ATOM      9  C   UNL     1      -0.922  -1.278   6.326  0.00  0.00    +0.000 C 
BRANCH   9  10
ATOM     10  C   UNL     1      -1.912  -0.516   7.230  0.00  0.00    +0.000 C 
BRANCH  10  11
ATOM     11  N   UNL     1      -2.391  -1.306   8.395  0.00  0.00    +0.000 NA
ATOM     12  C   UNL     1      -3.337  -0.510   9.199  0.00  0.00    +0.000 C 
ATOM     13  C   UNL     1      -3.796  -1.263  10.452  0.00  0.00    +0.000 C 
ATOM     14  C   UNL     1      -4.388  -2.624  10.106  0.00  0.00    +0.000 C 
ATOM     15  C   UNL     1      -3.412  -3.410   9.248  0.00  0.00    +0.000 C 
ATOM     16  C   UNL     1      -2.987  -2.600   8.021  0.00  0.00    +0.000 C 
ENDBRANCH  10  11
ENDBRANCH   9  10
ENDBRANCH   8   9
ENDBRANCH   5   8
ENDBRANCH   1   2
BRANCH   1  19
ATOM     17  C   UNL     1       3.487  -3.496  -0.737  0.00  0.00    +0.000 C 
ATOM     18  O   UNL     1       4.610  -3.970  -0.588  0.00  0.00    +0.000 OA
ATOM     19  N   UNL     1       2.787  -2.969   0.322  0.00  0.00    +0.000 N 
ATOM     20  H   UNL     1       1.857  -2.612   0.178  0.00  0.00    +0.000 HD
BRANCH  17  28
ATOM     21  C   UNL     1       0.408  -2.372  -1.789  0.00  0.00    +0.000 A 
ATOM     22  N   UNL     1      -0.682  -1.963  -2.464  0.00  0.00    +0.000 NA
ATOM     23  C   UNL     1      -0.700  -2.129  -3.787  0.00  0.00    +0.000 A 
ATOM     24  N   UNL     1       0.250  -2.683  -4.536  0.00  0.00    +0.000 NA
ATOM     25  C   UNL     1       1.322  -3.074  -3.825  0.00  0.00    +0.000 A 
ATOM     26  S   UNL     1       2.632  -3.809  -4.615  0.00  0.00    +0.000 S 
ATOM     27  C   UNL     1       3.493  -3.962  -3.156  0.00  0.00    +0.000 A 
ATOM     28  C   UNL     1       2.820  -3.456  -2.048  0.00  0.00    +0.000 A 
ATOM     29  C   UNL     1       1.507  -2.947  -2.452  0.00  0.00    +0.000 A 
BRANCH  21  31
ATOM     30  C   UNL     1      -0.874  -2.135   0.148  0.00  0.00    +0.000 C 
ATOM     31  O   UNL     1       0.430  -2.168  -0.427  0.00  0.00    +0.000 OA
ENDBRANCH  21  31
ENDBRANCH  17  28
ENDBRANCH   1  19
TORSDOF 8
