REMARK  Name = 
REMARK  6 active torsions:
REMARK  status: ('A' for Active; 'I' for Inactive)
REMARK    1  A    between atoms: C_2  and  C_20
REMARK    2  A    between atoms: N_3  and  C_4
REMARK    3  A    between atoms: C_4  and  C_5
REMARK    4  A    between atoms: C_8  and  C_9
REMARK    5  A    between atoms: C_10  and  C_11
REMARK    6  A    between atoms: C_11  and  N_12
REMARK                            x       y       z     vdW  Elec       q    Type
REMARK                         _______ _______ _______ _____ _____    ______ ____
ROOT
ATOM      1  C   UNL     1       2.373  -2.006  -1.529  0.00  0.00    +0.000 C 
ENDROOT
BRANCH   1   2
ATOM      2  C   UNL     1       3.278  -2.998  -2.218  0.00  0.00    +0.000 A 
ATOM      3  C   UNL     1       4.388  -2.555  -2.949  0.00  0.00    +0.000 A 
ATOM      4  C   UNL     1       5.253  -3.471  -3.555  0.00  0.00    +0.000 A 
ATOM      5  C   UNL     1       5.013  -4.843  -3.458  0.00  0.00    +0.000 A 
ATOM      6  C   UNL     1       3.887  -5.295  -2.767  0.00  0.00    +0.000 A 
ATOM      7  C   UNL     1       3.019  -4.377  -2.156  0.00  0.00    +0.000 A 
BRANCH   5   8
ATOM      8  C   UNL     1       5.923  -5.752  -4.092  0.00  0.00    +0.000 C 
ATOM      9  C   UNL     1       6.724  -6.414  -4.698  0.00  0.00    +0.000 C 
BRANCH   9  10
ATOM     10  C   UNL     1       7.715  -7.136  -5.522  0.00  0.00    +0.000 C 
BRANCH  10  11
ATOM     11  N   UNL     1       8.143  -6.318  -6.671  0.00  0.00    +0.000 NA
ATOM     12  C   UNL     1       7.050  -6.033  -7.625  0.00  0.00    +0.000 C 
ATOM     13  C   UNL     1       6.640  -7.236  -8.487  0.00  0.00    +0.000 C 
ATOM     14  O   UNL     1       7.757  -7.775  -9.202  0.00  0.00    +0.000 OA
ATOM     15  C   UNL     1       8.828  -8.127  -8.320  0.00  0.00    +0.000 C 
ATOM     16  C   UNL     1       9.250  -6.948  -7.424  0.00  0.00    +0.000 C 
ENDBRANCH  10  11
ENDBRANCH   9  10
ENDBRANCH   5   8
ENDBRANCH   1   2
BRANCH   1  19
ATOM     17  O   UNL     1       0.291  -0.327  -0.763  0.00  0.00    +0.000 OA
ATOM     18  C   UNL     1       0.314  -0.741  -1.919  0.00  0.00    +0.000 C 
ATOM     19  N   UNL     1       1.263  -1.632  -2.362  0.00  0.00    +0.000 N 
ATOM     20  H   UNL     1       1.389  -1.755  -3.361  0.00  0.00    +0.000 HD
BRANCH  18  21
ATOM     21  C   UNL     1      -0.704  -0.342  -2.897  0.00  0.00    +0.000 A 
ATOM     22  C   UNL     1      -1.964   0.062  -2.474  0.00  0.00    +0.000 A 
ATOM     23  S   UNL     1      -3.011   0.475  -3.757  0.00  0.00    +0.000 S 
ATOM     24  C   UNL     1      -1.807   0.166  -4.918  0.00  0.00    +0.000 A 
ATOM     25  N   UNL     1      -2.040   0.350  -6.245  0.00  0.00    +0.000 NA
ATOM     26  C   UNL     1      -1.024   0.108  -7.005  0.00  0.00    +0.000 A 
ATOM     27  N   UNL     1       0.203  -0.309  -6.559  0.00  0.00    +0.000 N 
ATOM     28  C   UNL     1       0.475  -0.549  -5.236  0.00  0.00    +0.000 A 
ATOM     29  O   UNL     1       1.559  -0.988  -4.881  0.00  0.00    +0.000 OA
ATOM     30  C   UNL     1      -0.629  -0.268  -4.336  0.00  0.00    +0.000 A 
ATOM     31  H   UNL     1       0.953  -0.503  -7.207  0.00  0.00    +0.000 HD
ENDBRANCH  18  21
ENDBRANCH   1  19
TORSDOF 6
