REMARK  Name = 
REMARK  8 active torsions:
REMARK  status: ('A' for Active; 'I' for Inactive)
REMARK    1  A    between atoms: C_1  and  C_2
REMARK    2  A    between atoms: C_5  and  O_6
REMARK    3  A    between atoms: O_6  and  C_7
REMARK    4  A    between atoms: C_11  and  C_12
REMARK    5  A    between atoms: C_12  and  C_13
REMARK    6  A    between atoms: C_13  and  N_14
REMARK    7  A    between atoms: N_14  and  C_15
REMARK    8  A    between atoms: C_18  and  C_19
REMARK                            x       y       z     vdW  Elec       q    Type
REMARK                         _______ _______ _______ _____ _____    ______ ____
ROOT
ATOM      1  C   UNL     1       5.007   4.989  -3.347  0.00  0.00    +0.000 C 
ENDROOT
BRANCH   1   6
ATOM      2  C   UNL     1       4.313   2.280  -0.745  0.00  0.00    +0.000 A 
ATOM      3  C   UNL     1       4.873   1.159  -1.354  0.00  0.00    +0.000 A 
ATOM      4  C   UNL     1       5.500   1.285  -2.596  0.00  0.00    +0.000 A 
ATOM      5  C   UNL     1       5.566   2.527  -3.231  0.00  0.00    +0.000 A 
ATOM      6  C   UNL     1       5.015   3.662  -2.623  0.00  0.00    +0.000 A 
ATOM      7  C   UNL     1       4.398   3.527  -1.370  0.00  0.00    +0.000 A 
BRANCH   2   8
ATOM      8  O   UNL     1       3.678   2.267   0.473  0.00  0.00    +0.000 OA
BRANCH   8  13
ATOM      9  C   UNL     1       2.492   0.687   3.452  0.00  0.00    +0.000 C 
ATOM     10  C   UNL     1       2.051   1.191   2.091  0.00  0.00    +0.000 C 
ATOM     11  N   UNL     1       1.157   0.224   1.412  0.00  0.00    +0.000 NA
ATOM     12  C   UNL     1       1.816   0.539   0.129  0.00  0.00    +0.000 C 
ATOM     13  C   UNL     1       3.057   1.034   0.913  0.00  0.00    +0.000 C 
ATOM     14  H   UNL     1       0.166   0.462   1.451  0.00  0.00    +0.000 HD
ENDBRANCH   8  13
ENDBRANCH   2   8
ENDBRANCH   1   6
BRANCH   1  15
ATOM     15  C   UNL     1       3.724   5.137  -4.171  0.00  0.00    +0.000 C 
BRANCH  15  16
ATOM     16  N   UNL     1       3.727   6.365  -4.964  0.00  0.00    +0.000 N 
ATOM     17  H   UNL     1       4.180   7.163  -4.527  0.00  0.00    +0.000 HD
BRANCH  16  18
ATOM     18  C   UNL     1       2.586   6.714  -5.695  0.00  0.00    +0.000 A 
ATOM     19  C   UNL     1       1.492   5.857  -5.877  0.00  0.00    +0.000 A 
ATOM     20  C   UNL     1       0.424   6.203  -6.712  0.00  0.00    +0.000 A 
ATOM     21  C   UNL     1       0.434   7.414  -7.406  0.00  0.00    +0.000 A 
ATOM     22  C   UNL     1       1.524   8.275  -7.256  0.00  0.00    +0.000 A 
ATOM     23  C   UNL     1       2.587   7.921  -6.411  0.00  0.00    +0.000 A 
BRANCH  21  24
ATOM     24  C   UNL     1      -0.703   7.705  -8.320  0.00  0.00    +0.000 C 
ATOM     25  N   UNL     1      -0.953   9.015  -8.621  0.00  0.00    +0.000 N 
ATOM     26  O   UNL     1      -1.415   6.816  -8.765  0.00  0.00    +0.000 OA
ATOM     27  H   UNL     1      -0.554   9.782  -8.102  0.00  0.00    +0.000 HD
ATOM     28  H   UNL     1      -1.794   9.193  -9.157  0.00  0.00    +0.000 HD
ENDBRANCH  21  24
ENDBRANCH  16  18
ENDBRANCH  15  16
ENDBRANCH   1  15
TORSDOF 7
