REMARK  Name = 
REMARK  7 active torsions:
REMARK  status: ('A' for Active; 'I' for Inactive)
REMARK    1  A    between atoms: C_1  and  O_2
REMARK    2  A    between atoms: O_2  and  C_3
REMARK    3  A    between atoms: C_7  and  C_8
REMARK    4  A    between atoms: C_8  and  N_9
REMARK    5  A    between atoms: C_15  and  C_16
REMARK    6  A    between atoms: C_16  and  O_18
REMARK    7  A    between atoms: C_21  and  C_22
REMARK                            x       y       z     vdW  Elec       q    Type
REMARK                         _______ _______ _______ _____ _____    ______ ____
ROOT
ATOM      1  N   UNL     1       2.129  -2.171   4.696  0.00  0.00    +0.000 N 
ATOM      2  C   UNL     1       2.394  -3.480   5.034  0.00  0.00    +0.000 A 
ATOM      3  C   UNL     1       1.205  -4.096   5.340  0.00  0.00    +0.000 A 
ATOM      4  C   UNL     1       0.174  -3.132   5.200  0.00  0.00    +0.000 A 
ATOM      5  C   UNL     1      -1.213  -3.159   5.450  0.00  0.00    +0.000 A 
ATOM      6  C   UNL     1      -1.973  -1.998   5.264  0.00  0.00    +0.000 A 
ATOM      7  C   UNL     1      -1.377  -0.826   4.787  0.00  0.00    +0.000 A 
ATOM      8  C   UNL     1       0.005  -0.784   4.530  0.00  0.00    +0.000 A 
ATOM      9  C   UNL     1       0.766  -1.942   4.763  0.00  0.00    +0.000 A 
ENDROOT
BRANCH   7  10
ATOM     10  C   UNL     1      -2.146   0.437   4.607  0.00  0.00    +0.000 C 
ATOM     11  O   UNL     1      -1.631   1.540   4.673  0.00  0.00    +0.000 OA
BRANCH  10  12
ATOM     12  O   UNL     1      -3.458   0.262   4.341  0.00  0.00    +0.000 OA
ATOM     13  H   UNL     1      -3.721  -0.650   4.129  0.00  0.00    +0.000 HD
ENDBRANCH  10  12
ENDBRANCH   7  10
BRANCH   1  14
ATOM     14  C   UNL     1       3.174  -1.151   4.619  0.00  0.00    +0.000 C 
BRANCH  14  19
ATOM     15  C   UNL     1       3.984   0.111   1.162  0.00  0.00    +0.000 A 
ATOM     16  N   UNL     1       3.762   1.427   1.311  0.00  0.00    +0.000 NA
ATOM     17  C   UNL     1       3.265   1.794   2.492  0.00  0.00    +0.000 A 
ATOM     18  N   UNL     1       3.028   0.977   3.523  0.00  0.00    +0.000 NA
ATOM     19  C   UNL     1       3.254  -0.350   3.346  0.00  0.00    +0.000 A 
ATOM     20  C   UNL     1       3.695  -0.852   2.127  0.00  0.00    +0.000 A 
ATOM     21  C   UNL     1       3.941  -2.299   1.837  0.00  0.00    +0.000 C 
BRANCH  15  23
ATOM     22  C   UNL     1       5.025   0.738  -0.851  0.00  0.00    +0.000 C 
ATOM     23  O   UNL     1       4.596  -0.324  -0.001  0.00  0.00    +0.000 OA
ENDBRANCH  15  23
ENDBRANCH  14  19
ENDBRANCH   1  14
TORSDOF 5
