REMARK  Name = 
REMARK  6 active torsions:
REMARK  status: ('A' for Active; 'I' for Inactive)
REMARK    1  A    between atoms: N_1  and  C_2
REMARK    2  A    between atoms: C_2  and  C_3
REMARK    3  A    between atoms: C_3  and  O_4
REMARK    4  A    between atoms: O_4  and  C_5
REMARK    5  A    between atoms: N_13  and  C_14
REMARK    6  A    between atoms: C_14  and  C_15
REMARK                            x       y       z     vdW  Elec       q    Type
REMARK                         _______ _______ _______ _____ _____    ______ ____
ROOT
ATOM      1  C   UNL     1       5.150  -2.529  -0.680  0.00  0.00    +0.000 A 
ATOM      2  C   UNL     1       4.761  -3.405  -1.696  0.00  0.00    +0.000 A 
ATOM      3  N   UNL     1       5.366  -4.584  -1.979  0.00  0.00    +0.000 NA
ATOM      4  C   UNL     1       6.411  -4.900  -1.208  0.00  0.00    +0.000 A 
ATOM      5  C   UNL     1       6.889  -4.079  -0.195  0.00  0.00    +0.000 A 
ATOM      6  C   UNL     1       6.260  -2.879   0.090  0.00  0.00    +0.000 A 
ATOM      7  C   UNL     1       8.073  -4.714   0.454  0.00  0.00    +0.000 C 
ATOM      8  C   UNL     1       8.252  -6.006  -0.382  0.00  0.00    +0.000 C 
ATOM      9  N   UNL     1       7.112  -6.092  -1.275  0.00  0.00    +0.000 N 
ENDROOT
BRANCH   1  10
ATOM     10  O   UNL     1       4.540  -1.347  -0.354  0.00  0.00    +0.000 OA
BRANCH  10  11
ATOM     11  C   UNL     1       3.411  -0.990  -1.159  0.00  0.00    +0.000 C 
BRANCH  11  12
ATOM     12  C   UNL     1       2.845   0.344  -0.668  0.00  0.00    +0.000 C 
BRANCH  12  13
ATOM     13  N   UNL     1       1.694   0.767  -1.467  0.00  0.00    +0.000 NA
ATOM     14  H   UNL     1       1.349   1.659  -1.111  0.00  0.00    +0.000 HD
ATOM     15  H   UNL     1       0.930   0.102  -1.350  0.00  0.00    +0.000 HD
ENDBRANCH  12  13
ENDBRANCH  11  12
ENDBRANCH  10  11
ENDBRANCH   1  10
BRANCH   9  16
ATOM     16  C   UNL     1       6.989  -7.006  -2.382  0.00  0.00    +0.000 C 
BRANCH  16  17
ATOM     17  C   UNL     1       6.248  -8.253  -1.957  0.00  0.00    +0.000 A 
ATOM     18  C   UNL     1       4.945  -8.165  -1.437  0.00  0.00    +0.000 A 
ATOM     19  C   UNL     1       4.252  -9.311  -1.051  0.00  0.00    +0.000 A 
ATOM     20  C   UNL     1       4.844 -10.564  -1.190  0.00  0.00    +0.000 A 
ATOM     21  C   UNL     1       6.130 -10.668  -1.718  0.00  0.00    +0.000 A 
ATOM     22  C   UNL     1       6.829  -9.521  -2.101  0.00  0.00    +0.000 A 
ENDBRANCH  16  17
ENDBRANCH   9  16
TORSDOF 6
