REMARK  Name = 
REMARK  6 active torsions:
REMARK  status: ('A' for Active; 'I' for Inactive)
REMARK    1  A    between atoms: C_2  and  C_3
REMARK    2  A    between atoms: C_3  and  C_4
REMARK    3  A    between atoms: C_7  and  C_8
REMARK    4  A    between atoms: C_8  and  O_9
REMARK    5  A    between atoms: O_9  and  C_10
REMARK    6  A    between atoms: C_14  and  C_15
REMARK                            x       y       z     vdW  Elec       q    Type
REMARK                         _______ _______ _______ _____ _____    ______ ____
ROOT
ATOM      1  O   UNL     1       6.686   5.122   2.584  0.00  0.00    +0.000 OA
ENDROOT
BRANCH   1   2
ATOM      2  C   UNL     1       7.120   6.307   3.121  0.00  0.00    +0.000 A 
ATOM      3  C   UNL     1       6.343   7.446   3.311  0.00  0.00    +0.000 A 
ATOM      4  C   UNL     1       6.933   8.563   3.889  0.00  0.00    +0.000 A 
ATOM      5  N   UNL     1       8.224   8.622   4.277  0.00  0.00    +0.000 NA
ATOM      6  C   UNL     1       8.956   7.488   4.094  0.00  0.00    +0.000 A 
ATOM      7  C   UNL     1       8.448   6.320   3.538  0.00  0.00    +0.000 A 
BRANCH   6   8
ATOM      8  C   UNL     1      10.394   7.536   4.511  0.00  0.00    +0.000 C 
ATOM      9  N   UNL     1      10.830   8.719   5.045  0.00  0.00    +0.000 N 
ATOM     10  O   UNL     1      11.147   6.578   4.385  0.00  0.00    +0.000 OA
ATOM     11  H   UNL     1      10.192   9.501   5.138  0.00  0.00    +0.000 HD
ATOM     12  H   UNL     1      11.791   8.803   5.334  0.00  0.00    +0.000 HD
ENDBRANCH   6   8
ENDBRANCH   1   2
BRANCH   1  13
ATOM     13  C   UNL     1       5.561   5.195   1.704  0.00  0.00    +0.000 C 
BRANCH  13  17
ATOM     14  C   UNL     1       4.464   1.369   0.272  0.00  0.00    +0.000 A 
ATOM     15  C   UNL     1       3.902   1.905   1.429  0.00  0.00    +0.000 A 
ATOM     16  N   UNL     1       4.242   3.122   1.924  0.00  0.00    +0.000 NA
ATOM     17  C   UNL     1       5.183   3.813   1.228  0.00  0.00    +0.000 A 
ATOM     18  C   UNL     1       5.761   3.268   0.088  0.00  0.00    +0.000 A 
ATOM     19  N   UNL     1       5.417   2.052  -0.413  0.00  0.00    +0.000 NA
BRANCH  14  20
ATOM     20  C   UNL     1       4.016   0.035  -0.278  0.00  0.00    +0.000 C 
BRANCH  20  22
ATOM     21  N   UNL     1       1.303   0.130  -0.880  0.00  0.00    +0.000 NA
ATOM     22  C   UNL     1       2.533   0.087  -0.607  0.00  0.00    +0.000 C 
ENDBRANCH  20  22
ENDBRANCH  14  20
ENDBRANCH  13  17
ENDBRANCH   1  13
TORSDOF 6
