REMARK  Name = 
REMARK  7 active torsions:
REMARK  status: ('A' for Active; 'I' for Inactive)
REMARK    1  A    between atoms: C_1  and  C_2
REMARK    2  A    between atoms: C_2  and  N_3
REMARK    3  A    between atoms: C_2  and  C_16
REMARK    4  A    between atoms: C_4  and  C_6
REMARK    5  A    between atoms: C_19  and  C_20
REMARK    6  A    between atoms: C_20  and  N_21
REMARK    7  A    between atoms: C_22  and  C_24
REMARK                            x       y       z     vdW  Elec       q    Type
REMARK                         _______ _______ _______ _____ _____    ______ ____
ROOT
ATOM      1  C   UNL     1       2.975   1.167  -0.604  0.00  0.00    +0.000 A 
ATOM      2  C   UNL     1       2.514   2.400  -0.114  0.00  0.00    +0.000 A 
ATOM      3  C   UNL     1       2.916   3.605  -0.702  0.00  0.00    +0.000 A 
ATOM      4  C   UNL     1       3.822   3.619  -1.770  0.00  0.00    +0.000 A 
ATOM      5  C   UNL     1       4.321   2.396  -2.234  0.00  0.00    +0.000 A 
ATOM      6  C   UNL     1       3.901   1.195  -1.653  0.00  0.00    +0.000 A 
ATOM      7  F   UNL     1       4.411   0.046  -2.121  0.00  0.00    +0.000 F 
ENDROOT
BRANCH   1   9
ATOM      8  C   UNL     1       3.444  -0.562   1.140  0.00  0.00    +0.000 C 
ATOM      9  C   UNL     1       2.518  -0.162  -0.013  0.00  0.00    +0.000 C 
BRANCH   9  10
ATOM     10  N   UNL     1       1.125  -0.086   0.418  0.00  0.00    +0.000 N 
ATOM     11  C   UNL     1       0.416  -1.156   0.906  0.00  0.00    +0.000 C 
ATOM     12  O   UNL     1       0.901  -2.274   1.045  0.00  0.00    +0.000 OA
ATOM     13  H   UNL     1       0.581   0.668   0.010  0.00  0.00    +0.000 HD
BRANCH  11  14
ATOM     14  C   UNL     1      -0.955  -0.862   1.342  0.00  0.00    +0.000 A 
ATOM     15  C   UNL     1      -1.530  -1.599   2.369  0.00  0.00    +0.000 A 
ATOM     16  S   UNL     1      -3.107  -1.090   2.774  0.00  0.00    +0.000 S 
ATOM     17  C   UNL     1      -3.094   0.102   1.559  0.00  0.00    +0.000 A 
ATOM     18  N   UNL     1      -4.175   0.901   1.346  0.00  0.00    +0.000 NA
ATOM     19  C   UNL     1      -4.031   1.741   0.373  0.00  0.00    +0.000 A 
ATOM     20  N   UNL     1      -2.906   1.858  -0.400  0.00  0.00    +0.000 N 
ATOM     21  C   UNL     1      -1.780   1.099  -0.194  0.00  0.00    +0.000 A 
ATOM     22  O   UNL     1      -0.764   1.268  -0.862  0.00  0.00    +0.000 OA
ATOM     23  C   UNL     1      -1.894   0.126   0.872  0.00  0.00    +0.000 A 
ATOM     24  H   UNL     1      -2.849   2.547  -1.135  0.00  0.00    +0.000 HD
ENDBRANCH  11  14
ENDBRANCH   9  10
ENDBRANCH   1   9
BRANCH   4  25
ATOM     25  C   UNL     1       4.234   4.929  -2.394  0.00  0.00    +0.000 C 
BRANCH  25  26
ATOM     26  N   UNL     1       3.353   5.336  -3.461  0.00  0.00    +0.000 N 
ATOM     27  C   UNL     1       2.261   6.147  -3.255  0.00  0.00    +0.000 C 
ATOM     28  O   UNL     1       1.901   6.542  -2.150  0.00  0.00    +0.000 OA
ATOM     29  H   UNL     1       3.539   5.065  -4.421  0.00  0.00    +0.000 HD
BRANCH  27  30
ATOM     30  C   UNL     1       1.573   6.520  -4.494  0.00  0.00    +0.000 A 
ATOM     31  C   UNL     1       0.432   7.292  -4.598  0.00  0.00    +0.000 A 
ATOM     32  N   UNL     1       0.171   7.388  -5.935  0.00  0.00    +0.000 N 
ATOM     33  C   UNL     1       1.143   6.690  -6.596  0.00  0.00    +0.000 A 
ATOM     34  N   UNL     1       2.003   6.148  -5.762  0.00  0.00    +0.000 NA
ATOM     35  H   UNL     1      -0.596   7.887  -6.364  0.00  0.00    +0.000 HD
ENDBRANCH  27  30
ENDBRANCH  25  26
ENDBRANCH   4  25
TORSDOF 6
