REMARK  Name = 
REMARK  6 active torsions:
REMARK  status: ('A' for Active; 'I' for Inactive)
REMARK    1  A    between atoms: C_2  and  C_25
REMARK    2  A    between atoms: N_3  and  C_4
REMARK    3  A    between atoms: C_4  and  C_5
REMARK    4  A    between atoms: C_8  and  C_9
REMARK    5  A    between atoms: C_9  and  N_10
REMARK    6  A    between atoms: C_11  and  C_13
REMARK                            x       y       z     vdW  Elec       q    Type
REMARK                         _______ _______ _______ _____ _____    ______ ____
ROOT
ATOM      1  C   UNL     1       3.160   2.899   2.303  0.00  0.00    +0.000 A 
ATOM      2  C   UNL     1       2.999   4.284   2.156  0.00  0.00    +0.000 A 
ATOM      3  C   UNL     1       3.796   5.177   2.882  0.00  0.00    +0.000 A 
ATOM      4  C   UNL     1       4.787   4.706   3.753  0.00  0.00    +0.000 A 
ATOM      5  C   UNL     1       4.954   3.321   3.892  0.00  0.00    +0.000 A 
ATOM      6  C   UNL     1       4.158   2.428   3.166  0.00  0.00    +0.000 A 
ENDROOT
BRANCH   1   7
ATOM      7  C   UNL     1       2.256   1.940   1.573  0.00  0.00    +0.000 C 
BRANCH   7  10
ATOM      8  O   UNL     1       0.928   0.279  -0.213  0.00  0.00    +0.000 OA
ATOM      9  C   UNL     1       2.011   0.751  -0.541  0.00  0.00    +0.000 C 
ATOM     10  N   UNL     1       2.754   1.581   0.266  0.00  0.00    +0.000 N 
ATOM     11  H   UNL     1       3.563   2.065  -0.098  0.00  0.00    +0.000 HD
BRANCH   9  12
ATOM     12  C   UNL     1       2.602   0.481  -1.864  0.00  0.00    +0.000 C 
ATOM     13  C   UNL     1       3.986   0.481  -2.239  0.00  0.00    +0.000 C 
ATOM     14  C   UNL     1       3.934   0.015  -3.636  0.00  0.00    +0.000 C 
ATOM     15  N   UNL     1       2.723  -0.224  -4.045  0.00  0.00    +0.000 NA
ATOM     16  C   UNL     1       1.927   0.049  -2.941  0.00  0.00    +0.000 C 
ENDBRANCH   9  12
ENDBRANCH   7  10
ENDBRANCH   1   7
BRANCH   4  17
ATOM     17  C   UNL     1       5.634   5.662   4.555  0.00  0.00    +0.000 C 
BRANCH  17  18
ATOM     18  N   UNL     1       5.038   5.960   5.834  0.00  0.00    +0.000 N 
ATOM     19  C   UNL     1       5.606   6.880   6.681  0.00  0.00    +0.000 C 
ATOM     20  O   UNL     1       6.615   7.509   6.370  0.00  0.00    +0.000 OA
ATOM     21  H   UNL     1       4.353   5.303   6.195  0.00  0.00    +0.000 HD
BRANCH  19  22
ATOM     22  C   UNL     1       4.913   7.128   7.952  0.00  0.00    +0.000 A 
ATOM     23  C   UNL     1       5.119   8.326   8.624  0.00  0.00    +0.000 A 
ATOM     24  S   UNL     1       4.196   8.481  10.049  0.00  0.00    +0.000 S 
ATOM     25  C   UNL     1       3.529   6.929   9.850  0.00  0.00    +0.000 A 
ATOM     26  N   UNL     1       2.653   6.423  10.760  0.00  0.00    +0.000 NA
ATOM     27  C   UNL     1       2.255   5.222  10.505  0.00  0.00    +0.000 A 
ATOM     28  N   UNL     1       2.649   4.482   9.420  0.00  0.00    +0.000 N 
ATOM     29  C   UNL     1       3.505   4.964   8.458  0.00  0.00    +0.000 A 
ATOM     30  O   UNL     1       3.804   4.293   7.476  0.00  0.00    +0.000 OA
ATOM     31  C   UNL     1       3.993   6.307   8.704  0.00  0.00    +0.000 A 
ATOM     32  H   UNL     1       2.293   3.549   9.275  0.00  0.00    +0.000 HD
ENDBRANCH  19  22
ENDBRANCH  17  18
ENDBRANCH   4  17
TORSDOF 6
