REMARK  Name = 
REMARK  6 active torsions:
REMARK  status: ('A' for Active; 'I' for Inactive)
REMARK    1  A    between atoms: C_7  and  C_8
REMARK    2  A    between atoms: C_8  and  O_10
REMARK    3  A    between atoms: O_10  and  C_11
REMARK    4  A    between atoms: C_11  and  C_12
REMARK    5  A    between atoms: C_15  and  C_16
REMARK    6  A    between atoms: C_16  and  N_17
REMARK                            x       y       z     vdW  Elec       q    Type
REMARK                         _______ _______ _______ _____ _____    ______ ____
ROOT
ATOM      1  C   UNL     1       8.765   2.531   2.308  0.00  0.00    +0.000 C 
ATOM      2  O   UNL     1       9.784   3.216   2.335  0.00  0.00    +0.000 OA
ENDROOT
BRANCH   1   9
ATOM      3  N   UNL     1       4.387  -1.815   4.977  0.00  0.00    +0.000 N 
ATOM      4  C   UNL     1       5.313  -0.896   4.608  0.00  0.00    +0.000 A 
ATOM      5  N   UNL     1       6.151  -0.419   5.474  0.00  0.00    +0.000 NA
ATOM      6  C   UNL     1       7.050   0.472   4.980  0.00  0.00    +0.000 A 
ATOM      7  S   UNL     1       8.216   1.170   6.005  0.00  0.00    +0.000 S 
ATOM      8  C   UNL     1       8.901   2.045   4.718  0.00  0.00    +0.000 A 
ATOM      9  C   UNL     1       8.266   1.840   3.500  0.00  0.00    +0.000 A 
ATOM     10  C   UNL     1       7.169   0.909   3.671  0.00  0.00    +0.000 A 
ATOM     11  C   UNL     1       6.211   0.353   2.731  0.00  0.00    +0.000 A 
ATOM     12  O   UNL     1       6.164   0.585   1.526  0.00  0.00    +0.000 OA
ATOM     13  N   UNL     1       5.304  -0.519   3.295  0.00  0.00    +0.000 N 
ATOM     14  H   UNL     1       4.284  -1.895   5.986  0.00  0.00    +0.000 HD
ATOM     15  H   UNL     1       3.513  -1.854   4.474  0.00  0.00    +0.000 HD
ATOM     16  H   UNL     1       4.658  -0.945   2.650  0.00  0.00    +0.000 HD
ENDBRANCH   1   9
BRANCH   1  17
ATOM     17  O   UNL     1       8.014   2.339   1.201  0.00  0.00    +0.000 OA
BRANCH  17  18
ATOM     18  C   UNL     1       8.470   3.005   0.016  0.00  0.00    +0.000 C 
BRANCH  18  19
ATOM     19  C   UNL     1       7.957   4.421  -0.019  0.00  0.00    +0.000 A 
ATOM     20  C   UNL     1       8.843   5.506  -0.052  0.00  0.00    +0.000 A 
ATOM     21  C   UNL     1       8.359   6.817  -0.064  0.00  0.00    +0.000 A 
ATOM     22  C   UNL     1       6.981   7.065  -0.041  0.00  0.00    +0.000 A 
ATOM     23  C   UNL     1       6.096   5.977  -0.009  0.00  0.00    +0.000 A 
ATOM     24  C   UNL     1       6.579   4.668   0.001  0.00  0.00    +0.000 A 
BRANCH  22  25
ATOM     25  C   UNL     1       6.447   8.479  -0.007  0.00  0.00    +0.000 C 
BRANCH  25  26
ATOM     26  N   UNL     1       6.810   9.315  -1.174  0.00  0.00    +0.000 NA
ATOM     27  C   UNL     1       6.252   8.747  -2.414  0.00  0.00    +0.000 C 
ATOM     28  C   UNL     1       6.413   9.664  -3.628  0.00  0.00    +0.000 C 
ATOM     29  C   UNL     1       5.830  11.041  -3.353  0.00  0.00    +0.000 C 
ATOM     30  C   UNL     1       6.491  11.627  -2.116  0.00  0.00    +0.000 C 
ATOM     31  C   UNL     1       6.340  10.689  -0.919  0.00  0.00    +0.000 C 
ENDBRANCH  25  26
ENDBRANCH  22  25
ENDBRANCH  18  19
ENDBRANCH  17  18
ENDBRANCH   1  17
TORSDOF 6
