REMARK  Name = 
REMARK  9 active torsions:
REMARK  status: ('A' for Active; 'I' for Inactive)
REMARK    1  A    between atoms: C_1  and  O_2
REMARK    2  A    between atoms: O_2  and  C_3
REMARK    3  A    between atoms: C_10  and  C_11
REMARK    4  A    between atoms: N_13  and  C_14
REMARK    5  A    between atoms: C_14  and  C_15
REMARK    6  A    between atoms: C_18  and  C_19
REMARK    7  A    between atoms: C_19  and  O_20
REMARK    8  A    between atoms: O_20  and  C_21
REMARK    9  A    between atoms: C_21  and  C_22
REMARK                            x       y       z     vdW  Elec       q    Type
REMARK                         _______ _______ _______ _____ _____    ______ ____
ROOT
ATOM      1  C   UNL     1       3.271  -3.240   0.285  0.00  0.00    +0.000 C 
ENDROOT
BRANCH   1   2
ATOM      2  C   UNL     1       2.256  -3.106   1.395  0.00  0.00    +0.000 A 
ATOM      3  C   UNL     1       1.547  -4.224   1.854  0.00  0.00    +0.000 A 
ATOM      4  C   UNL     1       0.570  -4.092   2.848  0.00  0.00    +0.000 A 
ATOM      5  C   UNL     1       0.267  -2.837   3.395  0.00  0.00    +0.000 A 
ATOM      6  C   UNL     1       0.980  -1.721   2.940  0.00  0.00    +0.000 A 
ATOM      7  C   UNL     1       1.961  -1.853   1.949  0.00  0.00    +0.000 A 
BRANCH   5   8
ATOM      8  C   UNL     1      -0.817  -2.693   4.436  0.00  0.00    +0.000 C 
BRANCH   8   9
ATOM      9  O   UNL     1      -0.459  -3.464   5.575  0.00  0.00    +0.000 OA
BRANCH   9  10
ATOM     10  C   UNL     1      -1.401  -3.322   6.642  0.00  0.00    +0.000 C 
BRANCH  10  11
ATOM     11  C   UNL     1      -0.965  -4.140   7.838  0.00  0.00    +0.000 A 
ATOM     12  C   UNL     1       0.391  -4.340   8.103  0.00  0.00    +0.000 A 
ATOM     13  C   UNL     1       0.762  -5.099   9.206  0.00  0.00    +0.000 A 
ATOM     14  C   UNL     1      -0.223  -5.626  10.030  0.00  0.00    +0.000 A 
ATOM     15  C   UNL     1      -1.546  -5.363   9.716  0.00  0.00    +0.000 A 
ATOM     16  N   UNL     1      -1.939  -4.631   8.648  0.00  0.00    +0.000 NA
ENDBRANCH  10  11
ENDBRANCH   9  10
ENDBRANCH   8   9
ENDBRANCH   5   8
ENDBRANCH   1   2
BRANCH   1  19
ATOM     17  C   UNL     1       3.332  -3.177  -2.186  0.00  0.00    +0.000 C 
ATOM     18  O   UNL     1       4.544  -3.382  -2.201  0.00  0.00    +0.000 OA
ATOM     19  N   UNL     1       2.642  -3.095  -1.007  0.00  0.00    +0.000 N 
ATOM     20  H   UNL     1       1.642  -2.961  -1.017  0.00  0.00    +0.000 HD
BRANCH  17  28
ATOM     21  C   UNL     1       0.013  -2.560  -2.866  0.00  0.00    +0.000 A 
ATOM     22  N   UNL     1      -1.188  -2.260  -3.401  0.00  0.00    +0.000 NA
ATOM     23  C   UNL     1      -1.271  -2.133  -4.728  0.00  0.00    +0.000 A 
ATOM     24  N   UNL     1      -0.286  -2.282  -5.610  0.00  0.00    +0.000 NA
ATOM     25  C   UNL     1       0.894  -2.572  -5.035  0.00  0.00    +0.000 A 
ATOM     26  S   UNL     1       2.264  -2.807  -6.008  0.00  0.00    +0.000 S 
ATOM     27  C   UNL     1       3.246  -3.078  -4.647  0.00  0.00    +0.000 A 
ATOM     28  C   UNL     1       2.567  -2.997  -3.435  0.00  0.00    +0.000 A 
ATOM     29  C   UNL     1       1.152  -2.718  -3.675  0.00  0.00    +0.000 A 
BRANCH  21  31
ATOM     30  C   UNL     1      -1.111  -2.476  -0.797  0.00  0.00    +0.000 C 
ATOM     31  O   UNL     1       0.101  -2.735  -1.502  0.00  0.00    +0.000 OA
ENDBRANCH  21  31
ENDBRANCH  17  28
ENDBRANCH   1  19
TORSDOF 8
