REMARK  Name = 
REMARK  8 active torsions:
REMARK  status: ('A' for Active; 'I' for Inactive)
REMARK    1  A    between atoms: C_2  and  O_3
REMARK    2  A    between atoms: C_2  and  C_20
REMARK    3  A    between atoms: O_3  and  C_4
REMARK    4  A    between atoms: C_4  and  C_5
REMARK    5  A    between atoms: C_8  and  C_9
REMARK    6  A    between atoms: C_9  and  N_10
REMARK    7  A    between atoms: N_10  and  C_11
REMARK    8  A    between atoms: C_11  and  C_12
REMARK                            x       y       z     vdW  Elec       q    Type
REMARK                         _______ _______ _______ _____ _____    ______ ____
ROOT
ATOM      1  C   UNL     1       4.793   1.704  -1.851  0.00  0.00    +0.000 A 
ATOM      2  C   UNL     1       4.251   2.987  -1.752  0.00  0.00    +0.000 A 
ATOM      3  C   UNL     1       4.619   3.980  -2.659  0.00  0.00    +0.000 A 
ATOM      4  C   UNL     1       5.567   3.726  -3.663  0.00  0.00    +0.000 A 
ATOM      5  C   UNL     1       6.101   2.434  -3.763  0.00  0.00    +0.000 A 
ATOM      6  C   UNL     1       5.722   1.436  -2.864  0.00  0.00    +0.000 A 
ENDROOT
BRANCH   1   7
ATOM      7  C   UNL     1       4.359   0.620  -0.900  0.00  0.00    +0.000 C 
BRANCH   7   8
ATOM      8  O   UNL     1       3.751  -0.464  -1.610  0.00  0.00    +0.000 OA
BRANCH   8  10
ATOM      9  O   UNL     1       1.745   0.638  -1.530  0.00  0.00    +0.000 OA
ATOM     10  C   UNL     1       2.433  -0.308  -1.899  0.00  0.00    +0.000 C 
BRANCH  10  11
ATOM     11  C   UNL     1       1.872  -1.457  -2.603  0.00  0.00    +0.000 A 
ATOM     12  C   UNL     1       0.548  -1.822  -2.415  0.00  0.00    +0.000 A 
ATOM     13  S   UNL     1       0.116  -3.240  -3.260  0.00  0.00    +0.000 S 
ATOM     14  C   UNL     1       1.661  -3.359  -3.965  0.00  0.00    +0.000 A 
ATOM     15  N   UNL     1       1.951  -4.354  -4.845  0.00  0.00    +0.000 NA
ATOM     16  C   UNL     1       3.140  -4.291  -5.345  0.00  0.00    +0.000 A 
ATOM     17  N   UNL     1       4.068  -3.331  -5.035  0.00  0.00    +0.000 N 
ATOM     18  C   UNL     1       3.826  -2.306  -4.148  0.00  0.00    +0.000 A 
ATOM     19  O   UNL     1       4.674  -1.446  -3.947  0.00  0.00    +0.000 OA
ATOM     20  C   UNL     1       2.502  -2.341  -3.550  0.00  0.00    +0.000 A 
ATOM     21  H   UNL     1       4.972  -3.318  -5.485  0.00  0.00    +0.000 HD
ENDBRANCH  10  11
ENDBRANCH   8  10
ENDBRANCH   7   8
ENDBRANCH   1   7
BRANCH   4  22
ATOM     22  C   UNL     1       5.990   4.775  -4.667  0.00  0.00    +0.000 C 
BRANCH  22  23
ATOM     23  N   UNL     1       5.968   6.155  -4.185  0.00  0.00    +0.000 NA
ATOM     24  H   UNL     1       5.018   6.408  -3.922  0.00  0.00    +0.000 HD
BRANCH  23  25
ATOM     25  C   UNL     1       6.891   6.392  -3.076  0.00  0.00    +0.000 C 
BRANCH  25  26
ATOM     26  C   UNL     1       6.749   7.840  -2.585  0.00  0.00    +0.000 C 
ATOM     27  C   UNL     1       7.125   8.848  -3.679  0.00  0.00    +0.000 C 
ATOM     28  C   UNL     1       7.120  10.267  -3.133  0.00  0.00    +0.000 C 
ATOM     29  O   UNL     1       7.979  10.380  -2.000  0.00  0.00    +0.000 OA
ATOM     30  C   UNL     1       7.561   9.541  -0.924  0.00  0.00    +0.000 C 
ATOM     31  C   UNL     1       7.610   8.076  -1.337  0.00  0.00    +0.000 C 
ENDBRANCH  25  26
ENDBRANCH  23  25
ENDBRANCH  22  23
ENDBRANCH   4  22
TORSDOF 8
