REMARK  Name = 
REMARK  12 active torsions:
REMARK  status: ('A' for Active; 'I' for Inactive)
REMARK    1  A    between atoms: C_1  and  O_2
REMARK    2  A    between atoms: O_2  and  C_3
REMARK    3  A    between atoms: C_3  and  C_4
REMARK    4  A    between atoms: C_4  and  N_5
REMARK    5  A    between atoms: C_4  and  C_6
REMARK    6  A    between atoms: C_6  and  O_7
REMARK    7  A    between atoms: O_7  and  C_8
REMARK    8  A    between atoms: C_11  and  N_12
REMARK    9  A    between atoms: N_12  and  C_13
REMARK   10  A    between atoms: C_13  and  C_14
REMARK   11  A    between atoms: C_17  and  O_18
REMARK   12  A    between atoms: O_18  and  C_19
REMARK                            x       y       z     vdW  Elec       q    Type
REMARK                         _______ _______ _______ _____ _____    ______ ____
ROOT
ATOM      1  C   UNL     1       7.166  -2.011  -3.457  0.00  0.00    +0.000 A 
ATOM      2  C   UNL     1       6.722  -1.871  -4.759  0.00  0.00    +0.000 A 
ATOM      3  N   UNL     1       7.365  -2.426  -5.820  0.00  0.00    +0.000 NA
ATOM      4  C   UNL     1       8.494  -3.115  -5.544  0.00  0.00    +0.000 A 
ATOM      5  C   UNL     1       8.876  -3.306  -4.214  0.00  0.00    +0.000 A 
ATOM      6  N   UNL     1       8.241  -2.762  -3.151  0.00  0.00    +0.000 NA
ENDROOT
BRANCH   4   7
ATOM      7  N   UNL     1       9.183  -3.646  -6.633  0.00  0.00    +0.000 N 
ATOM      8  H   UNL     1       8.714  -4.500  -6.920  0.00  0.00    +0.000 HD
BRANCH   7   9
ATOM      9  C   UNL     1      10.611  -3.852  -6.433  0.00  0.00    +0.000 C 
BRANCH   9  10
ATOM     10  C   UNL     1      11.318  -3.911  -7.752  0.00  0.00    +0.000 A 
ATOM     11  C   UNL     1      11.285  -2.845  -8.656  0.00  0.00    +0.000 A 
ATOM     12  C   UNL     1      12.001  -2.930  -9.846  0.00  0.00    +0.000 A 
ATOM     13  C   UNL     1      12.729  -4.083 -10.089  0.00  0.00    +0.000 A 
ATOM     14  N   UNL     1      12.791  -5.126  -9.232  0.00  0.00    +0.000 NA
ATOM     15  C   UNL     1      12.089  -5.016  -8.088  0.00  0.00    +0.000 A 
BRANCH  13  16
ATOM     16  O   UNL     1      13.425  -4.144 -11.279  0.00  0.00    +0.000 OA
ATOM     17  C   UNL     1      14.118  -5.380 -11.430  0.00  0.00    +0.000 C 
ENDBRANCH  13  16
ENDBRANCH   9  10
ENDBRANCH   7   9
ENDBRANCH   4   7
BRANCH   1  18
ATOM     18  O   UNL     1       6.478  -1.393  -2.436  0.00  0.00    +0.000 OA
BRANCH  18  19
ATOM     19  C   UNL     1       7.326  -1.170  -1.293  0.00  0.00    +0.000 C 
BRANCH  19  20
ATOM     20  C   UNL     1       6.503  -0.504  -0.172  0.00  0.00    +0.000 C 
BRANCH  20  21
ATOM     21  N   UNL     1       5.426  -1.401   0.304  0.00  0.00    +0.000 NA
ATOM     22  H   UNL     1       5.828  -2.155   0.859  0.00  0.00    +0.000 HD
ATOM     23  H   UNL     1       5.017  -1.858  -0.515  0.00  0.00    +0.000 HD
ENDBRANCH  20  21
BRANCH  20  24
ATOM     24  C   UNL     1       7.410  -0.090   1.001  0.00  0.00    +0.000 C 
BRANCH  24  26
ATOM     25  C   UNL     1       9.209   1.293   1.638  0.00  0.00    +0.000 C 
ATOM     26  O   UNL     1       8.402   0.839   0.559  0.00  0.00    +0.000 OA
ENDBRANCH  24  26
ENDBRANCH  20  24
ENDBRANCH  19  20
ENDBRANCH  18  19
ENDBRANCH   1  18
TORSDOF 10
