REMARK  Name = 
REMARK  9 active torsions:
REMARK  status: ('A' for Active; 'I' for Inactive)
REMARK    1  A    between atoms: C_1  and  C_2
REMARK    2  A    between atoms: C_2  and  C_3
REMARK    3  A    between atoms: C_2  and  C_14
REMARK    4  A    between atoms: C_3  and  N_4
REMARK    5  A    between atoms: N_4  and  C_5
REMARK    6  A    between atoms: C_8  and  C_9
REMARK    7  A    between atoms: C_18  and  O_19
REMARK    8  A    between atoms: O_19  and  C_20
REMARK    9  A    between atoms: C_20  and  C_21
REMARK                            x       y       z     vdW  Elec       q    Type
REMARK                         _______ _______ _______ _____ _____    ______ ____
ROOT
ATOM      1  C   UNL     1       0.868  -0.046  -0.068  0.00  0.00    +0.000 C 
ATOM      2  C   UNL     1       2.336  -0.056  -0.376  0.00  0.00    +0.000 C 
ENDROOT
BRANCH   2   3
ATOM      3  C   UNL     1       2.916   1.138  -1.035  0.00  0.00    +0.000 A 
ATOM      4  C   UNL     1       4.243   1.518  -0.799  0.00  0.00    +0.000 A 
ATOM      5  C   UNL     1       4.776   2.662  -1.402  0.00  0.00    +0.000 A 
ATOM      6  C   UNL     1       3.998   3.433  -2.269  0.00  0.00    +0.000 A 
ATOM      7  C   UNL     1       2.693   3.042  -2.552  0.00  0.00    +0.000 A 
ATOM      8  C   UNL     1       2.154   1.919  -1.917  0.00  0.00    +0.000 A 
BRANCH   7   9
ATOM      9  O   UNL     1       1.842   3.682  -3.409  0.00  0.00    +0.000 OA
BRANCH   9  10
ATOM     10  C   UNL     1       2.447   4.433  -4.470  0.00  0.00    +0.000 C 
BRANCH  10  11
ATOM     11  C   UNL     1       1.529   4.503  -5.689  0.00  0.00    +0.000 C 
ATOM     12  F   UNL     1       0.345   3.881  -5.498  0.00  0.00    +0.000 F 
ATOM     13  F   UNL     1       1.263   5.789  -6.020  0.00  0.00    +0.000 F 
ATOM     14  F   UNL     1       2.118   3.928  -6.765  0.00  0.00    +0.000 F 
ENDBRANCH  10  11
ENDBRANCH   9  10
ENDBRANCH   7   9
ENDBRANCH   2   3
BRANCH   2  15
ATOM     15  C   UNL     1       3.048  -1.369  -0.557  0.00  0.00    +0.000 C 
BRANCH  15  16
ATOM     16  N   UNL     1       2.964  -2.191   0.654  0.00  0.00    +0.000 N 
ATOM     17  H   UNL     1       2.016  -2.251   1.013  0.00  0.00    +0.000 HD
BRANCH  16  18
ATOM     18  C   UNL     1       3.540  -3.473   0.563  0.00  0.00    +0.000 A 
ATOM     19  C   UNL     1       3.027  -4.528   1.327  0.00  0.00    +0.000 A 
ATOM     20  C   UNL     1       3.605  -5.800   1.260  0.00  0.00    +0.000 A 
ATOM     21  C   UNL     1       4.716  -5.975   0.449  0.00  0.00    +0.000 A 
ATOM     22  N   UNL     1       5.293  -4.974  -0.265  0.00  0.00    +0.000 NA
ATOM     23  C   UNL     1       4.700  -3.759  -0.167  0.00  0.00    +0.000 A 
BRANCH  21  24
ATOM     24  C   UNL     1       5.353  -7.326   0.309  0.00  0.00    +0.000 C 
ATOM     25  N   UNL     1       6.434  -7.370  -0.531  0.00  0.00    +0.000 N 
ATOM     26  O   UNL     1       4.938  -8.320   0.888  0.00  0.00    +0.000 OA
ATOM     27  H   UNL     1       6.739  -6.520  -0.993  0.00  0.00    +0.000 HD
ATOM     28  H   UNL     1       6.913  -8.243  -0.691  0.00  0.00    +0.000 HD
ENDBRANCH  21  24
ENDBRANCH  16  18
ENDBRANCH  15  16
ENDBRANCH   2  15
TORSDOF 8
