REMARK  Name = 
REMARK  8 active torsions:
REMARK  status: ('A' for Active; 'I' for Inactive)
REMARK    1  A    between atoms: C_1  and  N_2
REMARK    2  A    between atoms: C_4  and  O_5
REMARK    3  A    between atoms: O_5  and  C_6
REMARK    4  A    between atoms: C_10  and  C_11
REMARK    5  A    between atoms: C_11  and  C_12
REMARK    6  A    between atoms: C_12  and  N_13
REMARK    7  A    between atoms: N_13  and  C_14
REMARK    8  A    between atoms: C_17  and  C_18
REMARK                            x       y       z     vdW  Elec       q    Type
REMARK                         _______ _______ _______ _____ _____    ______ ____
ROOT
ATOM      1  C   UNL     1      10.260   0.573   0.778  0.00  0.00    +0.000 C 
ENDROOT
BRANCH   1   2
ATOM      2  N   UNL     1      11.659   0.997   0.732  0.00  0.00    +0.000 N 
ATOM      3  H   UNL     1      12.184   0.518  -0.001  0.00  0.00    +0.000 HD
BRANCH   2   4
ATOM      4  C   UNL     1      11.838   2.392   0.676  0.00  0.00    +0.000 A 
ATOM      5  C   UNL     1      10.961   3.289   1.299  0.00  0.00    +0.000 A 
ATOM      6  C   UNL     1      11.205   4.653   1.288  0.00  0.00    +0.000 A 
ATOM      7  C   UNL     1      12.363   5.110   0.674  0.00  0.00    +0.000 A 
ATOM      8  N   UNL     1      13.268   4.288   0.070  0.00  0.00    +0.000 NA
ATOM      9  C   UNL     1      12.984   2.963   0.106  0.00  0.00    +0.000 A 
BRANCH   7  10
ATOM     10  C   UNL     1      12.679   6.569   0.697  0.00  0.00    +0.000 C 
ATOM     11  N   UNL     1      13.834   6.938   0.080  0.00  0.00    +0.000 N 
ATOM     12  O   UNL     1      11.953   7.399   1.246  0.00  0.00    +0.000 OA
ATOM     13  H   UNL     1      14.431   6.226  -0.334  0.00  0.00    +0.000 HD
ATOM     14  H   UNL     1      14.130   7.904   0.104  0.00  0.00    +0.000 HD
ENDBRANCH   7  10
ENDBRANCH   2   4
ENDBRANCH   1   2
BRANCH   1  15
ATOM     15  C   UNL     1      10.096  -0.953   0.833  0.00  0.00    +0.000 C 
BRANCH  15  20
ATOM     16  C   UNL     1       6.269  -0.889   0.687  0.00  0.00    +0.000 A 
ATOM     17  C   UNL     1       5.972  -2.249   0.669  0.00  0.00    +0.000 A 
ATOM     18  C   UNL     1       6.987  -3.187   0.800  0.00  0.00    +0.000 A 
ATOM     19  C   UNL     1       8.323  -2.774   0.907  0.00  0.00    +0.000 A 
ATOM     20  C   UNL     1       8.644  -1.403   0.868  0.00  0.00    +0.000 A 
ATOM     21  C   UNL     1       7.591  -0.478   0.796  0.00  0.00    +0.000 A 
BRANCH  16  22
ATOM     22  O   UNL     1       5.323   0.094   0.504  0.00  0.00    +0.000 OA
BRANCH  22  26
ATOM     23  C   UNL     1       1.161   0.570  -0.806  0.00  0.00    +0.000 C 
ATOM     24  N   UNL     1       2.595   0.505  -0.568  0.00  0.00    +0.000 NA
ATOM     25  C   UNL     1       2.990  -0.857  -0.135  0.00  0.00    +0.000 C 
ATOM     26  C   UNL     1       3.957  -0.192   0.891  0.00  0.00    +0.000 C 
ATOM     27  C   UNL     1       2.970   1.008   0.773  0.00  0.00    +0.000 C 
ENDBRANCH  22  26
ENDBRANCH  16  22
ENDBRANCH  15  20
ENDBRANCH   1  15
TORSDOF 7
