REMARK  Name = 
REMARK  5 active torsions:
REMARK  status: ('A' for Active; 'I' for Inactive)
REMARK    1  A    between atoms: C_2  and  O_4
REMARK    2  A    between atoms: O_4  and  C_5
REMARK    3  A    between atoms: C_9  and  C_10
REMARK    4  A    between atoms: C_10  and  N_11
REMARK    5  A    between atoms: C_16  and  C_17
REMARK                            x       y       z     vdW  Elec       q    Type
REMARK                         _______ _______ _______ _____ _____    ______ ____
ROOT
ATOM      1  C   UNL     1       7.223   0.889   3.958  0.00  0.00    +0.000 C 
ENDROOT
BRANCH   1   2
ATOM      2  N   UNL     1       8.483   0.237   4.315  0.00  0.00    +0.000 N 
ATOM      3  C   UNL     1       8.568  -1.102   4.612  0.00  0.00    +0.000 A 
ATOM      4  N   UNL     1       9.465  -1.342   5.540  0.00  0.00    +0.000 NA
ATOM      5  C   UNL     1       9.996  -0.117   5.855  0.00  0.00    +0.000 A 
ATOM      6  C   UNL     1      10.864   0.235   6.900  0.00  0.00    +0.000 A 
ATOM      7  C   UNL     1      11.215   1.585   7.072  0.00  0.00    +0.000 A 
ATOM      8  C   UNL     1      10.803   2.537   6.123  0.00  0.00    +0.000 A 
ATOM      9  C   UNL     1       9.937   2.201   5.072  0.00  0.00    +0.000 A 
ATOM     10  C   UNL     1       9.500   0.873   5.011  0.00  0.00    +0.000 A 
BRANCH   7  11
ATOM     11  C   UNL     1      11.959   2.026   8.311  0.00  0.00    +0.000 C 
ATOM     12  F   UNL     1      12.213   1.016   9.189  0.00  0.00    +0.000 F 
ATOM     13  F   UNL     1      13.162   2.599   8.037  0.00  0.00    +0.000 F 
ATOM     14  F   UNL     1      11.258   2.958   9.020  0.00  0.00    +0.000 F 
ENDBRANCH   7  11
ENDBRANCH   1   2
BRANCH   1  19
ATOM     15  C   UNL     1       4.781   1.024   1.070  0.00  0.00    +0.000 A 
ATOM     16  C   UNL     1       5.601   0.959  -0.049  0.00  0.00    +0.000 A 
ATOM     17  C   UNL     1       6.976   0.776   0.126  0.00  0.00    +0.000 A 
ATOM     18  C   UNL     1       7.538   0.692   1.408  0.00  0.00    +0.000 A 
ATOM     19  C   UNL     1       6.722   0.777   2.541  0.00  0.00    +0.000 A 
ATOM     20  C   UNL     1       5.334   0.940   2.349  0.00  0.00    +0.000 A 
BRANCH  15  21
ATOM     21  O   UNL     1       3.392   1.290   1.027  0.00  0.00    +0.000 OA
BRANCH  21  23
ATOM     22  N   UNL     1       1.318   1.417   0.160  0.00  0.00    +0.000 N 
ATOM     23  C   UNL     1       2.586   0.969  -0.052  0.00  0.00    +0.000 C 
ATOM     24  O   UNL     1       2.906   0.375  -1.067  0.00  0.00    +0.000 OA
ATOM     25  H   UNL     1       0.626   1.264  -0.559  0.00  0.00    +0.000 HD
ATOM     26  H   UNL     1       1.080   1.913   1.002  0.00  0.00    +0.000 HD
ENDBRANCH  21  23
ENDBRANCH  15  21
ENDBRANCH   1  19
TORSDOF 5
