REMARK  Name = 
REMARK  7 active torsions:
REMARK  status: ('A' for Active; 'I' for Inactive)
REMARK    1  A    between atoms: C_1  and  C_2
REMARK    2  A    between atoms: C_2  and  C_3
REMARK    3  A    between atoms: C_2  and  C_4
REMARK    4  A    between atoms: C_2  and  C_19
REMARK    5  A    between atoms: C_5  and  C_6
REMARK    6  A    between atoms: C_10  and  C_11
REMARK    7  A    between atoms: C_22  and  C_23
REMARK                            x       y       z     vdW  Elec       q    Type
REMARK                         _______ _______ _______ _____ _____    ______ ____
ROOT
ATOM      1  C   UNL     1       3.000  -1.453   0.145  0.00  0.00    +0.000 C 
ATOM      2  C   UNL     1       2.714  -2.246   1.192  0.00  0.00    +0.000 C 
ENDROOT
BRANCH   2   3
ATOM      3  C   UNL     1       3.275  -3.584   1.406  0.00  0.00    +0.000 A 
ATOM      4  C   UNL     1       4.539  -3.942   0.936  0.00  0.00    +0.000 A 
ATOM      5  C   UNL     1       5.062  -5.198   1.222  0.00  0.00    +0.000 A 
ATOM      6  C   UNL     1       4.333  -6.094   2.000  0.00  0.00    +0.000 A 
ATOM      7  C   UNL     1       3.073  -5.758   2.521  0.00  0.00    +0.000 A 
ATOM      8  C   UNL     1       2.556  -4.490   2.197  0.00  0.00    +0.000 A 
BRANCH   7   9
ATOM      9  C   UNL     1       2.335  -6.678   3.413  0.00  0.00    +0.000 A 
ATOM     10  C   UNL     1       3.011  -7.528   4.302  0.00  0.00    +0.000 A 
ATOM     11  C   UNL     1       2.285  -8.357   5.145  0.00  0.00    +0.000 A 
ATOM     12  N   UNL     1       0.940  -8.400   5.177  0.00  0.00    +0.000 NA
ATOM     13  C   UNL     1       0.301  -7.578   4.321  0.00  0.00    +0.000 A 
ATOM     14  F   UNL     1      -1.041  -7.589   4.343  0.00  0.00    +0.000 F 
ATOM     15  C   UNL     1       0.937  -6.725   3.439  0.00  0.00    +0.000 A 
ENDBRANCH   7   9
ENDBRANCH   2   3
BRANCH   1  17
ATOM     16  C   UNL     1       1.571   0.448   1.070  0.00  0.00    +0.000 C 
ATOM     17  C   UNL     1       2.482  -0.030  -0.080  0.00  0.00    +0.000 C 
ATOM     18  C   UNL     1       3.737   0.874  -0.122  0.00  0.00    +0.000 C 
BRANCH  17  19
ATOM     19  C   UNL     1       1.699   0.092  -1.401  0.00  0.00    +0.000 A 
ATOM     20  C   UNL     1       0.914  -0.958  -1.881  0.00  0.00    +0.000 A 
ATOM     21  C   UNL     1       0.233  -0.810  -3.090  0.00  0.00    +0.000 A 
ATOM     22  C   UNL     1       0.324   0.386  -3.801  0.00  0.00    +0.000 A 
ATOM     23  C   UNL     1       1.094   1.392  -3.242  0.00  0.00    +0.000 A 
ATOM     24  N   UNL     1       1.770   1.274  -2.069  0.00  0.00    +0.000 NA
BRANCH  22  25
ATOM     25  C   UNL     1      -0.392   0.511  -5.094  0.00  0.00    +0.000 C 
ATOM     26  N   UNL     1      -0.308   1.682  -5.795  0.00  0.00    +0.000 N 
ATOM     27  O   UNL     1      -1.051  -0.420  -5.544  0.00  0.00    +0.000 OA
ATOM     28  H   UNL     1       0.218   2.499  -5.529  0.00  0.00    +0.000 HD
ATOM     29  H   UNL     1      -0.800   1.711  -6.679  0.00  0.00    +0.000 HD
ENDBRANCH  22  25
ENDBRANCH  17  19
ENDBRANCH   1  17
TORSDOF 5
