REMARK  Name = 
REMARK  7 active torsions:
REMARK  status: ('A' for Active; 'I' for Inactive)
REMARK    1  A    between atoms: C_1  and  C_2
REMARK    2  A    between atoms: C_5  and  C_6
REMARK    3  A    between atoms: N_8  and  C_9
REMARK    4  A    between atoms: C_9  and  C_10
REMARK    5  A    between atoms: C_13  and  C_14
REMARK    6  A    between atoms: C_14  and  N_15
REMARK    7  A    between atoms: C_16  and  C_18
REMARK                            x       y       z     vdW  Elec       q    Type
REMARK                         _______ _______ _______ _____ _____    ______ ____
ROOT
ATOM      1  C   UNL     1      -6.092   1.256  -1.102  0.00  0.00    +0.000 A 
ATOM      2  C   UNL     1      -6.272  -0.103  -1.390  0.00  0.00    +0.000 A 
ATOM      3  C   UNL     1      -7.314  -0.526  -2.230  0.00  0.00    +0.000 A 
ATOM      4  C   UNL     1      -8.190   0.403  -2.809  0.00  0.00    +0.000 A 
ATOM      5  C   UNL     1      -8.020   1.760  -2.496  0.00  0.00    +0.000 A 
ATOM      6  C   UNL     1      -6.977   2.184  -1.664  0.00  0.00    +0.000 A 
ENDROOT
BRANCH   1   7
ATOM      7  C   UNL     1      -4.976   1.697  -0.193  0.00  0.00    +0.000 C 
BRANCH   7  10
ATOM      8  C   UNL     1      -2.626   2.344  -0.194  0.00  0.00    +0.000 C 
ATOM      9  O   UNL     1      -2.642   2.497   1.024  0.00  0.00    +0.000 OA
ATOM     10  N   UNL     1      -3.741   1.947  -0.900  0.00  0.00    +0.000 N 
ATOM     11  H   UNL     1      -3.742   1.968  -1.911  0.00  0.00    +0.000 HD
BRANCH   8  16
ATOM     12  C   UNL     1       1.459   3.417  -2.112  0.00  0.00    +0.000 C 
ATOM     13  C   UNL     1       1.038   2.517  -0.953  0.00  0.00    +0.000 C 
ATOM     14  C   UNL     1       0.547   1.150  -1.420  0.00  0.00    +0.000 C 
ATOM     15  C   UNL     1      -0.914   1.365  -1.817  0.00  0.00    +0.000 C 
ATOM     16  C   UNL     1      -1.392   2.608  -1.050  0.00  0.00    +0.000 C 
ATOM     17  C   UNL     1      -0.184   3.057  -0.214  0.00  0.00    +0.000 C 
ENDBRANCH   8  16
ENDBRANCH   7  10
ENDBRANCH   1   7
BRANCH   4  18
ATOM     18  C   UNL     1      -9.296  -0.019  -3.751  0.00  0.00    +0.000 C 
BRANCH  18  19
ATOM     19  N   UNL     1     -10.529  -0.292  -3.061  0.00  0.00    +0.000 N 
ATOM     20  C   UNL     1     -11.660  -0.702  -3.730  0.00  0.00    +0.000 C 
ATOM     21  O   UNL     1     -11.686  -0.872  -4.943  0.00  0.00    +0.000 OA
ATOM     22  H   UNL     1     -10.647   0.149  -2.156  0.00  0.00    +0.000 HD
BRANCH  20  23
ATOM     23  C   UNL     1     -12.825  -0.991  -2.882  0.00  0.00    +0.000 A 
ATOM     24  C   UNL     1     -13.775  -1.917  -3.287  0.00  0.00    +0.000 A 
ATOM     25  S   UNL     1     -15.027  -2.149  -2.150  0.00  0.00    +0.000 S 
ATOM     26  C   UNL     1     -14.370  -0.982  -1.101  0.00  0.00    +0.000 A 
ATOM     27  N   UNL     1     -14.984  -0.659   0.066  0.00  0.00    +0.000 NA
ATOM     28  C   UNL     1     -14.396   0.263   0.751  0.00  0.00    +0.000 A 
ATOM     29  N   UNL     1     -13.236   0.888   0.372  0.00  0.00    +0.000 N 
ATOM     30  C   UNL     1     -12.550   0.560  -0.772  0.00  0.00    +0.000 A 
ATOM     31  O   UNL     1     -11.471   1.080  -1.038  0.00  0.00    +0.000 OA
ATOM     32  C   UNL     1     -13.195  -0.447  -1.595  0.00  0.00    +0.000 A 
ATOM     33  H   UNL     1     -12.808   1.584   0.964  0.00  0.00    +0.000 HD
ENDBRANCH  20  23
ENDBRANCH  18  19
ENDBRANCH   4  18
TORSDOF 6
