REMARK  Name = 
REMARK  6 active torsions:
REMARK  status: ('A' for Active; 'I' for Inactive)
REMARK    1  A    between atoms: C_2  and  C_20
REMARK    2  A    between atoms: N_3  and  C_4
REMARK    3  A    between atoms: C_4  and  C_5
REMARK    4  A    between atoms: C_8  and  C_9
REMARK    5  A    between atoms: C_9  and  N_10
REMARK    6  A    between atoms: C_11  and  C_13
REMARK                            x       y       z     vdW  Elec       q    Type
REMARK                         _______ _______ _______ _____ _____    ______ ____
ROOT
ATOM      1  C   UNL     1       3.146   0.714   3.540  0.00  0.00    +0.000 A 
ATOM      2  C   UNL     1       3.424   2.019   3.951  0.00  0.00    +0.000 A 
ATOM      3  C   UNL     1       4.296   2.241   5.015  0.00  0.00    +0.000 A 
ATOM      4  C   UNL     1       4.898   1.148   5.633  0.00  0.00    +0.000 A 
ATOM      5  N   UNL     1       4.662  -0.129   5.235  0.00  0.00    +0.000 NA
ATOM      6  C   UNL     1       3.805  -0.314   4.203  0.00  0.00    +0.000 A 
ENDROOT
BRANCH   1   7
ATOM      7  C   UNL     1       2.190   0.430   2.420  0.00  0.00    +0.000 C 
BRANCH   7  10
ATOM      8  O   UNL     1       0.978  -0.238   0.020  0.00  0.00    +0.000 OA
ATOM      9  C   UNL     1       2.157   0.105  -0.002  0.00  0.00    +0.000 C 
ATOM     10  N   UNL     1       2.859   0.378   1.146  0.00  0.00    +0.000 N 
ATOM     11  H   UNL     1       3.747   0.865   1.074  0.00  0.00    +0.000 HD
BRANCH   9  12
ATOM     12  C   UNL     1       2.902   0.205  -1.262  0.00  0.00    +0.000 A 
ATOM     13  C   UNL     1       2.494  -0.523  -2.371  0.00  0.00    +0.000 A 
ATOM     14  S   UNL     1       3.484  -0.293  -3.741  0.00  0.00    +0.000 S 
ATOM     15  C   UNL     1       4.463   0.829  -2.915  0.00  0.00    +0.000 A 
ATOM     16  N   UNL     1       5.498   1.452  -3.540  0.00  0.00    +0.000 NA
ATOM     17  C   UNL     1       6.132   2.303  -2.805  0.00  0.00    +0.000 A 
ATOM     18  N   UNL     1       5.825   2.585  -1.498  0.00  0.00    +0.000 N 
ATOM     19  C   UNL     1       4.815   1.954  -0.815  0.00  0.00    +0.000 A 
ATOM     20  O   UNL     1       4.609   2.180   0.372  0.00  0.00    +0.000 OA
ATOM     21  C   UNL     1       4.057   1.002  -1.604  0.00  0.00    +0.000 A 
ATOM     22  H   UNL     1       6.369   3.252  -0.973  0.00  0.00    +0.000 HD
ENDBRANCH   9  12
ENDBRANCH   7  10
ENDBRANCH   1   7
BRANCH   4  23
ATOM     23  C   UNL     1       5.837   1.349   6.799  0.00  0.00    +0.000 C 
BRANCH  23  24
ATOM     24  N   UNL     1       5.153   1.344   8.075  0.00  0.00    +0.000 N 
ATOM     25  C   UNL     1       4.771   2.501   8.711  0.00  0.00    +0.000 C 
ATOM     26  O   UNL     1       5.002   3.623   8.264  0.00  0.00    +0.000 OA
ATOM     27  H   UNL     1       4.683   0.493   8.369  0.00  0.00    +0.000 HD
BRANCH  25  28
ATOM     28  C   UNL     1       4.077   2.291  10.062  0.00  0.00    +0.000 C 
ATOM     29  C   UNL     1       4.980   1.690  11.125  0.00  0.00    +0.000 C 
ATOM     30  C   UNL     1       3.985   1.170  12.149  0.00  0.00    +0.000 C 
ATOM     31  C   UNL     1       2.732   0.847  11.342  0.00  0.00    +0.000 C 
ATOM     32  N   UNL     1       3.010   1.268   9.965  0.00  0.00    +0.000 NA
ATOM     33  H   UNL     1       2.178   1.680   9.541  0.00  0.00    +0.000 HD
ENDBRANCH  25  28
ENDBRANCH  23  24
ENDBRANCH   4  23
TORSDOF 6
