REMARK  Name = 
REMARK  8 active torsions:
REMARK  status: ('A' for Active; 'I' for Inactive)
REMARK    1  A    between atoms: N_1  and  C_2
REMARK    2  A    between atoms: C_2  and  C_3
REMARK    3  A    between atoms: C_2  and  C_19
REMARK    4  A    between atoms: C_3  and  C_4
REMARK    5  A    between atoms: C_7  and  C_8
REMARK    6  A    between atoms: C_8  and  N_9
REMARK    7  A    between atoms: N_9  and  C_10
REMARK    8  A    between atoms: C_10  and  C_11
REMARK                            x       y       z     vdW  Elec       q    Type
REMARK                         _______ _______ _______ _____ _____    ______ ____
ROOT
ATOM      1  C   UNL     1       0.475  -0.567  -1.494  0.00  0.00    +0.000 A 
ATOM      2  C   UNL     1       1.307  -0.949  -2.553  0.00  0.00    +0.000 A 
ATOM      3  C   UNL     1       0.788  -1.448  -3.739  0.00  0.00    +0.000 A 
ATOM      4  C   UNL     1      -0.588  -1.626  -3.896  0.00  0.00    +0.000 A 
ATOM      5  C   UNL     1      -1.436  -1.263  -2.843  0.00  0.00    +0.000 A 
ATOM      6  C   UNL     1      -0.909  -0.733  -1.656  0.00  0.00    +0.000 A 
ENDROOT
BRANCH   1   7
ATOM      7  C   UNL     1       1.014   0.022  -0.200  0.00  0.00    +0.000 C 
BRANCH   7   8
ATOM      8  C   UNL     1       2.556   0.153  -0.072  0.00  0.00    +0.000 C 
BRANCH   8   9
ATOM      9  C   UNL     1       2.989   0.685   1.278  0.00  0.00    +0.000 A 
ATOM     10  C   UNL     1       3.302  -0.158   2.333  0.00  0.00    +0.000 A 
ATOM     11  S   UNL     1       3.852   0.668   3.721  0.00  0.00    +0.000 S 
ATOM     12  C   UNL     1       3.689   2.180   2.958  0.00  0.00    +0.000 A 
ATOM     13  N   UNL     1       4.046   3.329   3.594  0.00  0.00    +0.000 NA
ATOM     14  C   UNL     1       3.908   4.397   2.878  0.00  0.00    +0.000 A 
ATOM     15  N   UNL     1       3.418   4.424   1.599  0.00  0.00    +0.000 N 
ATOM     16  C   UNL     1       2.962   3.301   0.950  0.00  0.00    +0.000 A 
ATOM     17  O   UNL     1       2.418   3.382  -0.148  0.00  0.00    +0.000 OA
ATOM     18  C   UNL     1       3.177   2.062   1.680  0.00  0.00    +0.000 A 
ATOM     19  H   UNL     1       3.307   5.298   1.106  0.00  0.00    +0.000 HD
ENDBRANCH   8   9
BRANCH   8  20
ATOM     20  N   UNL     1       3.176   0.964  -1.121  0.00  0.00    +0.000 NA
ATOM     21  H   UNL     1       4.155   1.138  -0.907  0.00  0.00    +0.000 HD
ATOM     22  H   UNL     1       2.707   1.876  -1.160  0.00  0.00    +0.000 HD
ENDBRANCH   8  20
ENDBRANCH   7   8
ENDBRANCH   1   7
BRANCH   4  23
ATOM     23  C   UNL     1      -1.103  -2.225  -5.181  0.00  0.00    +0.000 C 
BRANCH  23  24
ATOM     24  N   UNL     1      -0.479  -3.534  -5.391  0.00  0.00    +0.000 NA
ATOM     25  H   UNL     1      -0.678  -4.109  -4.573  0.00  0.00    +0.000 HD
BRANCH  24  26
ATOM     26  C   UNL     1      -0.948  -4.181  -6.611  0.00  0.00    +0.000 C 
BRANCH  26  27
ATOM     27  C   UNL     1      -0.256  -5.532  -6.800  0.00  0.00    +0.000 C 
ATOM     28  C   UNL     1      -0.543  -6.556  -5.702  0.00  0.00    +0.000 C 
ATOM     29  N   UNL     1      -0.641  -7.885  -6.334  0.00  0.00    +0.000 NA
ATOM     30  C   UNL     1      -0.352  -7.690  -7.767  0.00  0.00    +0.000 C 
ATOM     31  C   UNL     1      -0.700  -6.242  -8.063  0.00  0.00    +0.000 C 
ATOM     32  F   UNL     1      -2.050  -6.135  -8.207  0.00  0.00    +0.000 F 
ATOM     33  H   UNL     1      -1.613  -8.193  -6.251  0.00  0.00    +0.000 HD
ENDBRANCH  26  27
ENDBRANCH  24  26
ENDBRANCH  23  24
ENDBRANCH   4  23
TORSDOF 8
