REMARK  Name = 
REMARK  9 active torsions:
REMARK  status: ('A' for Active; 'I' for Inactive)
REMARK    1  A    between atoms: C_1  and  O_2
REMARK    2  A    between atoms: O_2  and  C_3
REMARK    3  A    between atoms: C_10  and  C_11
REMARK    4  A    between atoms: N_13  and  C_14
REMARK    5  A    between atoms: C_14  and  C_15
REMARK    6  A    between atoms: C_18  and  N_19
REMARK    7  A    between atoms: N_19  and  C_20
REMARK    8  A    between atoms: C_20  and  C_21
REMARK    9  A    between atoms: C_21  and  C_22
REMARK                            x       y       z     vdW  Elec       q    Type
REMARK                         _______ _______ _______ _____ _____    ______ ____
ROOT
ATOM      1  C   UNL     1       3.030  -3.148  -1.145  0.00  0.00    +0.000 C 
ENDROOT
BRANCH   1   2
ATOM      2  C   UNL     1       1.906  -3.417  -0.177  0.00  0.00    +0.000 A 
ATOM      3  C   UNL     1       1.600  -4.698   0.292  0.00  0.00    +0.000 A 
ATOM      4  C   UNL     1       0.603  -4.876   1.267  0.00  0.00    +0.000 A 
ATOM      5  C   UNL     1      -0.060  -3.785   1.842  0.00  0.00    +0.000 A 
ATOM      6  C   UNL     1       0.188  -2.524   1.308  0.00  0.00    +0.000 A 
ATOM      7  C   UNL     1       1.136  -2.344   0.294  0.00  0.00    +0.000 A 
BRANCH   5   8
ATOM      8  N   UNL     1      -0.980  -3.875   2.898  0.00  0.00    +0.000 N 
ATOM      9  H   UNL     1      -1.935  -3.798   2.557  0.00  0.00    +0.000 HD
BRANCH   8  10
ATOM     10  C   UNL     1      -0.807  -4.971   3.854  0.00  0.00    +0.000 C 
BRANCH  10  11
ATOM     11  C   UNL     1       0.533  -4.855   4.600  0.00  0.00    +0.000 C 
BRANCH  11  12
ATOM     12  C   UNL     1       0.730  -5.984   5.575  0.00  0.00    +0.000 A 
ATOM     13  C   UNL     1       1.332  -7.175   5.157  0.00  0.00    +0.000 A 
ATOM     14  C   UNL     1       1.469  -8.204   6.075  0.00  0.00    +0.000 A 
ATOM     15  N   UNL     1       1.047  -8.132   7.355  0.00  0.00    +0.000 NA
ATOM     16  C   UNL     1       0.471  -6.972   7.737  0.00  0.00    +0.000 A 
ATOM     17  C   UNL     1       0.293  -5.884   6.897  0.00  0.00    +0.000 A 
ENDBRANCH  11  12
ENDBRANCH  10  11
ENDBRANCH   8  10
ENDBRANCH   5   8
ENDBRANCH   1   2
BRANCH   1  20
ATOM     18  C   UNL     1       3.440  -2.924  -3.566  0.00  0.00    +0.000 C 
ATOM     19  O   UNL     1       4.629  -2.679  -3.374  0.00  0.00    +0.000 OA
ATOM     20  N   UNL     1       2.589  -3.163  -2.520  0.00  0.00    +0.000 N 
ATOM     21  H   UNL     1       1.600  -3.316  -2.698  0.00  0.00    +0.000 HD
BRANCH  18  29
ATOM     22  C   UNL     1       0.290  -3.624  -4.877  0.00  0.00    +0.000 A 
ATOM     23  N   UNL     1      -0.796  -3.823  -5.650  0.00  0.00    +0.000 NA
ATOM     24  C   UNL     1      -0.688  -3.646  -6.968  0.00  0.00    +0.000 A 
ATOM     25  N   UNL     1       0.410  -3.292  -7.625  0.00  0.00    +0.000 NA
ATOM     26  C   UNL     1       1.475  -3.124  -6.822  0.00  0.00    +0.000 A 
ATOM     27  S   UNL     1       2.961  -2.695  -7.517  0.00  0.00    +0.000 S 
ATOM     28  C   UNL     1       3.716  -2.654  -5.996  0.00  0.00    +0.000 A 
ATOM     29  C   UNL     1       2.873  -2.954  -4.932  0.00  0.00    +0.000 A 
ATOM     30  C   UNL     1       1.530  -3.254  -5.438  0.00  0.00    +0.000 A 
BRANCH  22  32
ATOM     31  C   UNL     1      -1.215  -3.594  -3.122  0.00  0.00    +0.000 C 
ATOM     32  O   UNL     1       0.138  -3.829  -3.514  0.00  0.00    +0.000 OA
ENDBRANCH  22  32
ENDBRANCH  18  29
ENDBRANCH   1  20
TORSDOF 8
