REMARK  Name = 
REMARK  7 active torsions:
REMARK  status: ('A' for Active; 'I' for Inactive)
REMARK    1  A    between atoms: N_1  and  C_2
REMARK    2  A    between atoms: C_2  and  C_3
REMARK    3  A    between atoms: C_7  and  C_8
REMARK    4  A    between atoms: C_8  and  C_9
REMARK    5  A    between atoms: C_9  and  N_10
REMARK    6  A    between atoms: CA_15  and  C_16
REMARK    7  A    between atoms: C_16  and  OXT_18
REMARK                            x       y       z     vdW  Elec       q    Type
REMARK                         _______ _______ _______ _____ _____    ______ ____
ROOT
ATOM      1  C   UNL     1       6.026   3.764  -3.681  0.00  0.00    +0.000 C 
ENDROOT
BRANCH   1   2
ATOM      2  N   UNL     1       7.233   3.806  -4.517  0.00  0.00    +0.000 N 
ATOM      3  C   UNL     1       7.573   5.118  -4.909  0.00  0.00    +0.000 A 
ATOM      4  C   UNL     1       8.708   5.319  -5.696  0.00  0.00    +0.000 A 
ATOM      5  C   UNL     1       9.075   6.617  -6.059  0.00  0.00    +0.000 A 
ATOM      6  C   UNL     1       8.308   7.690  -5.631  0.00  0.00    +0.000 A 
ATOM      7  CA  UNL     1       7.201   7.405  -4.854  0.00  0.00    +0.000 A 
ATOM      8  N   UNL     1       6.820   6.152  -4.482  0.00  0.00    +0.000 NA
ATOM      9  H   UNL     1       7.163   3.218  -5.345  0.00  0.00    +0.000 HD
BRANCH   7  10
ATOM     10  C   UNL     1       6.310   8.497  -4.364  0.00  0.00    +0.000 C 
ATOM     11  O   UNL     1       6.472   9.683  -4.590  0.00  0.00    +0.000 OA
BRANCH  10  12
ATOM     12  OXT UNL     1       5.283   7.991  -3.640  0.00  0.00    +0.000 OA
ATOM     13  HXT UNL     1       5.381   7.009  -3.595  0.00  0.00    +0.000 HD
ENDBRANCH  10  12
ENDBRANCH   7  10
ENDBRANCH   1   2
BRANCH   1  14
ATOM     14  C   UNL     1       5.662   2.342  -3.246  0.00  0.00    +0.000 C 
BRANCH  14  19
ATOM     15  C   UNL     1       3.348   2.693  -0.211  0.00  0.00    +0.000 A 
ATOM     16  C   UNL     1       2.092   2.603  -0.824  0.00  0.00    +0.000 A 
ATOM     17  C   UNL     1       1.991   2.386  -2.198  0.00  0.00    +0.000 A 
ATOM     18  C   UNL     1       3.143   2.267  -2.979  0.00  0.00    +0.000 A 
ATOM     19  C   UNL     1       4.411   2.362  -2.392  0.00  0.00    +0.000 A 
ATOM     20  C   UNL     1       4.501   2.565  -1.005  0.00  0.00    +0.000 A 
BRANCH  15  21
ATOM     21  C   UNL     1       3.457   2.908   1.279  0.00  0.00    +0.000 C 
BRANCH  21  22
ATOM     22  N   UNL     1       4.217   4.111   1.596  0.00  0.00    +0.000 NA
ATOM     23  H   UNL     1       4.189   4.266   2.603  0.00  0.00    +0.000 HD
ATOM     24  H   UNL     1       3.752   4.912   1.171  0.00  0.00    +0.000 HD
ENDBRANCH  21  22
ENDBRANCH  15  21
ENDBRANCH  14  19
ENDBRANCH   1  14
TORSDOF 7
