REMARK  Name = 
REMARK  7 active torsions:
REMARK  status: ('A' for Active; 'I' for Inactive)
REMARK    1  A    between atoms: C_2  and  C_3
REMARK    2  A    between atoms: N_7  and  C_8
REMARK    3  A    between atoms: C_8  and  C_9
REMARK    4  A    between atoms: C_9  and  C_10
REMARK    5  A    between atoms: C_14  and  O_15
REMARK    6  A    between atoms: O_15  and  C_16
REMARK    7  A    between atoms: C_18  and  O_19
REMARK                            x       y       z     vdW  Elec       q    Type
REMARK                         _______ _______ _______ _____ _____    ______ ____
ROOT
ATOM      1  C   UNL     1      -6.555   2.510  -0.214  0.00  0.00    +0.000 A 
ATOM      2  C   UNL     1      -5.883   3.728  -0.232  0.00  0.00    +0.000 A 
ATOM      3  N   UNL     1      -6.500   4.929  -0.301  0.00  0.00    +0.000 NA
ATOM      4  C   UNL     1      -7.853   4.915  -0.357  0.00  0.00    +0.000 A 
ATOM      5  C   UNL     1      -8.620   3.760  -0.338  0.00  0.00    +0.000 A 
ATOM      6  C   UNL     1      -7.953   2.541  -0.274  0.00  0.00    +0.000 A 
ENDROOT
BRANCH   1   7
ATOM      7  C   UNL     1      -5.814   1.197  -0.223  0.00  0.00    +0.000 C 
BRANCH   7   8
ATOM      8  C   UNL     1      -5.578   0.737  -1.662  0.00  0.00    +0.000 C 
BRANCH   8  13
ATOM      9  C   UNL     1      -3.800  -2.460  -5.232  0.00  0.00    +0.000 A 
ATOM     10  C   UNL     1      -4.451  -1.238  -5.329  0.00  0.00    +0.000 A 
ATOM     11  C   UNL     1      -4.833  -0.578  -4.162  0.00  0.00    +0.000 A 
ATOM     12  C   UNL     1      -4.568  -1.146  -2.917  0.00  0.00    +0.000 A 
ATOM     13  N   UNL     1      -4.914  -0.547  -1.732  0.00  0.00    +0.000 N 
ATOM     14  N   UNL     1      -3.941  -2.334  -2.814  0.00  0.00    +0.000 NA
ATOM     15  C   UNL     1      -3.568  -2.962  -3.962  0.00  0.00    +0.000 A 
ATOM     16  H   UNL     1      -4.687  -1.083  -0.906  0.00  0.00    +0.000 HD
BRANCH   9  18
ATOM     17  N   UNL     1      -3.056  -3.738  -7.355  0.00  0.00    +0.000 NA
ATOM     18  C   UNL     1      -3.386  -3.171  -6.397  0.00  0.00    +0.000 C 
ENDBRANCH   9  18
ENDBRANCH   8  13
ENDBRANCH   7   8
ENDBRANCH   1   7
BRANCH   5  19
ATOM     19  O   UNL     1      -9.980   3.897  -0.423  0.00  0.00    +0.000 OA
BRANCH  19  20
ATOM     20  C   UNL     1     -10.801   2.868   0.178  0.00  0.00    +0.000 C 
ATOM     21  C   UNL     1     -11.146   1.639  -0.699  0.00  0.00    +0.000 C 
ATOM     22  C   UNL     1     -12.466   2.336  -1.077  0.00  0.00    +0.000 C 
ATOM     23  C   UNL     1     -12.317   3.179   0.204  0.00  0.00    +0.000 C 
BRANCH  22  24
ATOM     24  O   UNL     1     -13.628   1.495  -1.170  0.00  0.00    +0.000 OA
ATOM     25  H   UNL     1     -13.644   0.963  -0.356  0.00  0.00    +0.000 HD
ENDBRANCH  22  24
ENDBRANCH  19  20
ENDBRANCH   5  19
TORSDOF 7
