REMARK  Name = 
REMARK  6 active torsions:
REMARK  status: ('A' for Active; 'I' for Inactive)
REMARK    1  A    between atoms: C_1  and  C_2
REMARK    2  A    between atoms: C_2  and  N_3
REMARK    3  A    between atoms: N_3  and  C_4
REMARK    4  A    between atoms: C_8  and  C_9
REMARK    5  A    between atoms: C_10  and  N_11
REMARK    6  A    between atoms: C_15  and  C_16
REMARK                            x       y       z     vdW  Elec       q    Type
REMARK                         _______ _______ _______ _____ _____    ______ ____
ROOT
ATOM      1  C   UNL     1       5.961   1.765  -4.732  0.00  0.00    +0.000 C 
ATOM      2  C   UNL     1       6.667   1.362  -5.797  0.00  0.00    +0.000 C 
ENDROOT
BRANCH   2   3
ATOM      3  N   UNL     1       7.031   2.061  -6.916  0.00  0.00    +0.000 N 
ATOM      4  C   UNL     1       7.755   1.561  -8.006  0.00  0.00    +0.000 A 
ATOM      5  C   UNL     1       7.775   0.201  -8.345  0.00  0.00    +0.000 A 
ATOM      6  N   UNL     1       8.498  -0.330  -9.365  0.00  0.00    +0.000 NA
ATOM      7  C   UNL     1       9.222   0.580 -10.061  0.00  0.00    +0.000 A 
ATOM      8  C   UNL     1       9.204   1.932  -9.759  0.00  0.00    +0.000 A 
ATOM      9  N   UNL     1       8.462   2.450  -8.739  0.00  0.00    +0.000 NA
ATOM     10  H   UNL     1       7.050   3.074  -6.859  0.00  0.00    +0.000 HD
BRANCH   7  11
ATOM     11  C   UNL     1      10.062   0.073 -11.183  0.00  0.00    +0.000 C 
ATOM     12  N   UNL     1      10.002  -1.270 -11.411  0.00  0.00    +0.000 N 
ATOM     13  O   UNL     1      10.762   0.814 -11.854  0.00  0.00    +0.000 OA
ATOM     14  H   UNL     1       9.417  -1.867 -10.837  0.00  0.00    +0.000 HD
ATOM     15  H   UNL     1      10.556  -1.668 -12.157  0.00  0.00    +0.000 HD
ENDBRANCH   7  11
ENDBRANCH   2   3
BRANCH   1  20
ATOM     16  C   UNL     1       3.992  -0.005  -2.018  0.00  0.00    +0.000 A 
ATOM     17  C   UNL     1       4.872  -1.031  -1.675  0.00  0.00    +0.000 A 
ATOM     18  C   UNL     1       6.121  -1.129  -2.287  0.00  0.00    +0.000 A 
ATOM     19  C   UNL     1       6.504  -0.194  -3.248  0.00  0.00    +0.000 A 
ATOM     20  C   UNL     1       5.629   0.827  -3.642  0.00  0.00    +0.000 A 
ATOM     21  C   UNL     1       4.394   0.933  -2.987  0.00  0.00    +0.000 A 
BRANCH  16  22
ATOM     22  N   UNL     1       2.753   0.190  -1.379  0.00  0.00    +0.000 N 
ATOM     23  H   UNL     1       2.033   0.475  -2.039  0.00  0.00    +0.000 HD
BRANCH  22  25
ATOM     24  C   UNL     1       1.654  -1.756  -0.349  0.00  0.00    +0.000 C 
ATOM     25  C   UNL     1       2.236  -0.372  -0.149  0.00  0.00    +0.000 C 
ATOM     26  C   UNL     1       3.110  -0.146   1.106  0.00  0.00    +0.000 C 
ATOM     27  O   UNL     1       2.360   1.044   1.468  0.00  0.00    +0.000 OA
ATOM     28  C   UNL     1       1.306   0.660   0.547  0.00  0.00    +0.000 C 
ENDBRANCH  22  25
ENDBRANCH  16  22
ENDBRANCH   1  20
TORSDOF 5
