REMARK  Name = 
REMARK  3 active torsions:
REMARK  status: ('A' for Active; 'I' for Inactive)
REMARK    1  A    between atoms: O_1  and  C_2
REMARK    2  A    between atoms: N_9  and  C_10
REMARK    3  A    between atoms: C_10  and  C_11
REMARK                            x       y       z     vdW  Elec       q    Type
REMARK                         _______ _______ _______ _____ _____    ______ ____
ROOT
ATOM      1  C   UNL     1       2.380  -0.222  -0.035  0.00  0.00    +0.000 A 
ATOM      2  C   UNL     1       2.969   1.030  -0.150  0.00  0.00    +0.000 A 
ATOM      3  C   UNL     1       4.361   1.128  -0.157  0.00  0.00    +0.000 A 
ATOM      4  C   UNL     1       5.067  -0.074  -0.043  0.00  0.00    +0.000 A 
ATOM      5  C   UNL     1       4.382  -1.289   0.046  0.00  0.00    +0.000 A 
ATOM      6  C   UNL     1       5.341  -2.323   0.122  0.00  0.00    +0.000 A 
ATOM      7  C   UNL     1       6.585  -1.736   0.105  0.00  0.00    +0.000 A 
ATOM      8  N   UNL     1       6.414  -0.372   0.018  0.00  0.00    +0.000 N 
ATOM      9  N   UNL     1       3.034  -1.388   0.055  0.00  0.00    +0.000 NA
ENDROOT
BRANCH   1  10
ATOM     10  O   UNL     1       1.018  -0.338   0.005  0.00  0.00    +0.000 OA
ATOM     11  H   UNL     1       0.638   0.551  -0.010  0.00  0.00    +0.000 HD
ENDBRANCH   1  10
BRANCH   8  12
ATOM     12  C   UNL     1       7.509   0.591   0.079  0.00  0.00    +0.000 C 
BRANCH  12  13
ATOM     13  C   UNL     1       8.081   0.871  -1.286  0.00  0.00    +0.000 A 
ATOM     14  C   UNL     1       7.656   1.984  -2.024  0.00  0.00    +0.000 A 
ATOM     15  C   UNL     1       8.141   2.207  -3.313  0.00  0.00    +0.000 A 
ATOM     16  C   UNL     1       9.058   1.323  -3.878  0.00  0.00    +0.000 A 
ATOM     17  C   UNL     1       9.504   0.224  -3.148  0.00  0.00    +0.000 A 
ATOM     18  C   UNL     1       9.022   0.000  -1.858  0.00  0.00    +0.000 A 
ENDBRANCH  12  13
ENDBRANCH   8  12
TORSDOF 3
