REMARK  Name = 
REMARK  7 active torsions:
REMARK  status: ('A' for Active; 'I' for Inactive)
REMARK    1  A    between atoms: C_1  and  N_2
REMARK    2  A    between atoms: N_5  and  C_6
REMARK    3  A    between atoms: C_10  and  C_11
REMARK    4  A    between atoms: C_11  and  C_12
REMARK    5  A    between atoms: C_12  and  N_13
REMARK    6  A    between atoms: N_13  and  C_14
REMARK    7  A    between atoms: C_17  and  C_18
REMARK                            x       y       z     vdW  Elec       q    Type
REMARK                         _______ _______ _______ _____ _____    ______ ____
ROOT
ATOM      1  C   UNL     1      -6.468   1.708   0.552  0.00  0.00    +0.000 C 
ENDROOT
BRANCH   1   6
ATOM      2  C   UNL     1      -3.046   0.007   0.802  0.00  0.00    +0.000 A 
ATOM      3  C   UNL     1      -3.198  -0.709   1.997  0.00  0.00    +0.000 A 
ATOM      4  C   UNL     1      -4.393  -0.693   2.714  0.00  0.00    +0.000 A 
ATOM      5  C   UNL     1      -5.468   0.063   2.260  0.00  0.00    +0.000 A 
ATOM      6  C   UNL     1      -5.360   0.819   1.087  0.00  0.00    +0.000 A 
ATOM      7  C   UNL     1      -4.150   0.761   0.372  0.00  0.00    +0.000 A 
BRANCH   2  12
ATOM      8  C   UNL     1       0.609  -0.822  -3.298  0.00  0.00    +0.000 C 
ATOM      9  N   UNL     1       0.157  -0.410  -1.973  0.00  0.00    +0.000 NA
ATOM     10  C   UNL     1      -0.865   0.656  -2.075  0.00  0.00    +0.000 C 
ATOM     11  C   UNL     1      -1.371   1.106  -0.685  0.00  0.00    +0.000 C 
ATOM     12  N   UNL     1      -1.893  -0.058   0.049  0.00  0.00    +0.000 N 
ATOM     13  C   UNL     1      -0.937  -1.169   0.169  0.00  0.00    +0.000 C 
ATOM     14  C   UNL     1      -0.418  -1.559  -1.237  0.00  0.00    +0.000 C 
ENDBRANCH   2  12
ENDBRANCH   1   6
BRANCH   1  15
ATOM     15  C   UNL     1      -7.714   1.744   1.438  0.00  0.00    +0.000 C 
BRANCH  15  16
ATOM     16  N   UNL     1      -8.756   2.635   0.920  0.00  0.00    +0.000 N 
ATOM     17  H   UNL     1      -8.960   2.467  -0.063  0.00  0.00    +0.000 HD
BRANCH  16  18
ATOM     18  C   UNL     1      -9.933   2.696   1.695  0.00  0.00    +0.000 A 
ATOM     19  C   UNL     1      -9.937   2.547   3.088  0.00  0.00    +0.000 A 
ATOM     20  C   UNL     1     -11.114   2.676   3.819  0.00  0.00    +0.000 A 
ATOM     21  C   UNL     1     -12.277   2.989   3.136  0.00  0.00    +0.000 A 
ATOM     22  N   UNL     1     -12.335   3.187   1.792  0.00  0.00    +0.000 NA
ATOM     23  C   UNL     1     -11.159   3.050   1.120  0.00  0.00    +0.000 A 
BRANCH  21  24
ATOM     24  C   UNL     1     -13.551   3.149   3.909  0.00  0.00    +0.000 C 
ATOM     25  N   UNL     1     -14.650   3.475   3.159  0.00  0.00    +0.000 N 
ATOM     26  O   UNL     1     -13.616   3.007   5.122  0.00  0.00    +0.000 OA
ATOM     27  H   UNL     1     -14.549   3.609   2.161  0.00  0.00    +0.000 HD
ATOM     28  H   UNL     1     -15.534   3.630   3.618  0.00  0.00    +0.000 HD
ENDBRANCH  21  24
ENDBRANCH  16  18
ENDBRANCH  15  16
ENDBRANCH   1  15
TORSDOF 6
