REMARK  Name = 
REMARK  5 active torsions:
REMARK  status: ('A' for Active; 'I' for Inactive)
REMARK    1  A    between atoms: C_1  and  C_2
REMARK    2  A    between atoms: C_2  and  O_3
REMARK    3  A    between atoms: C_2  and  C_13
REMARK    4  A    between atoms: O_3  and  C_4
REMARK    5  A    between atoms: C_7  and  C_8
REMARK                            x       y       z     vdW  Elec       q    Type
REMARK                         _______ _______ _______ _____ _____    ______ ____
ROOT
ATOM      1  C   UNL     1       2.448   2.291   0.876  0.00  0.00    +0.000 A 
ATOM      2  C   UNL     1       2.259   3.051   2.029  0.00  0.00    +0.000 A 
ATOM      3  C   UNL     1       1.977   4.413   1.929  0.00  0.00    +0.000 A 
ATOM      4  C   UNL     1       1.914   4.978   0.663  0.00  0.00    +0.000 A 
ATOM      5  N   UNL     1       2.123   4.279  -0.488  0.00  0.00    +0.000 NA
ATOM      6  C   UNL     1       2.391   2.955  -0.344  0.00  0.00    +0.000 A 
ENDROOT
BRANCH   4   7
ATOM      7  C   UNL     1       1.603   6.437   0.516  0.00  0.00    +0.000 C 
ATOM      8  N   UNL     1       1.576   6.908  -0.768  0.00  0.00    +0.000 N 
ATOM      9  O   UNL     1       1.387   7.168   1.476  0.00  0.00    +0.000 OA
ATOM     10  H   UNL     1       1.770   6.278  -1.538  0.00  0.00    +0.000 HD
ATOM     11  H   UNL     1       1.390   7.886  -0.937  0.00  0.00    +0.000 HD
ENDBRANCH   4   7
BRANCH   1  12
ATOM     12  O   UNL     1       2.688   0.960   1.072  0.00  0.00    +0.000 OA
BRANCH  12  14
ATOM     13  C   UNL     1       0.809  -0.030  -0.125  0.00  0.00    +0.000 C 
ATOM     14  C   UNL     1       2.333   0.042   0.023  0.00  0.00    +0.000 C 
BRANCH  14  15
ATOM     15  C   UNL     1       2.917  -1.355   0.355  0.00  0.00    +0.000 C 
ATOM     16  C   UNL     1       2.394  -1.945   1.677  0.00  0.00    +0.000 C 
ATOM     17  C   UNL     1       3.094  -3.261   2.005  0.00  0.00    +0.000 C 
ATOM     18  C   UNL     1       4.604  -3.095   1.938  0.00  0.00    +0.000 C 
ATOM     19  O   UNL     1       4.988  -2.618   0.649  0.00  0.00    +0.000 OA
ATOM     20  C   UNL     1       4.451  -1.321   0.376  0.00  0.00    +0.000 C 
ENDBRANCH  14  15
ENDBRANCH  12  14
ENDBRANCH   1  12
TORSDOF 4
