REMARK  Name = 
REMARK  5 active torsions:
REMARK  status: ('A' for Active; 'I' for Inactive)
REMARK    1  A    between atoms: C_2  and  C_4
REMARK    2  A    between atoms: C_7  and  N_8
REMARK    3  A    between atoms: N_8  and  C_9
REMARK    4  A    between atoms: C_9  and  C_10
REMARK    5  A    between atoms: C_14  and  N_15
REMARK                            x       y       z     vdW  Elec       q    Type
REMARK                         _______ _______ _______ _____ _____    ______ ____
ROOT
ATOM      1  N   UNL     1       5.200  -4.462   2.207  0.00  0.00    +0.000 N 
ATOM      2  H   UNL     1       6.110  -4.696   1.815  0.00  0.00    +0.000 HD
ENDROOT
BRANCH   1   6
ATOM      3  C   UNL     1       3.554  -1.375   0.042  0.00  0.00    +0.000 A 
ATOM      4  C   UNL     1       2.852  -2.554   0.232  0.00  0.00    +0.000 A 
ATOM      5  N   UNL     1       3.360  -3.605   0.935  0.00  0.00    +0.000 NA
ATOM      6  C   UNL     1       4.602  -3.449   1.441  0.00  0.00    +0.000 A 
ATOM      7  C   UNL     1       5.293  -2.244   1.238  0.00  0.00    +0.000 A 
ATOM      8  N   UNL     1       4.807  -1.186   0.539  0.00  0.00    +0.000 NA
BRANCH   3  10
ATOM      9  N   UNL     1       3.721   0.860  -0.872  0.00  0.00    +0.000 N 
ATOM     10  C   UNL     1       2.939  -0.252  -0.718  0.00  0.00    +0.000 C 
ATOM     11  O   UNL     1       1.805  -0.316  -1.176  0.00  0.00    +0.000 OA
ATOM     12  H   UNL     1       3.357   1.662  -1.366  0.00  0.00    +0.000 HD
ATOM     13  H   UNL     1       4.653   0.882  -0.473  0.00  0.00    +0.000 HD
ENDBRANCH   3  10
ENDBRANCH   1   6
BRANCH   1  14
ATOM     14  C   UNL     1       4.378  -5.656   2.395  0.00  0.00    +0.000 C 
BRANCH  14  15
ATOM     15  C   UNL     1       5.111  -6.693   3.211  0.00  0.00    +0.000 A 
ATOM     16  C   UNL     1       4.850  -8.042   3.004  0.00  0.00    +0.000 A 
ATOM     17  N   UNL     1       5.447  -9.038   3.686  0.00  0.00    +0.000 NA
ATOM     18  C   UNL     1       6.345  -8.669   4.634  0.00  0.00    +0.000 A 
ATOM     19  C   UNL     1       6.688  -7.357   4.973  0.00  0.00    +0.000 A 
ATOM     20  C   UNL     1       6.022  -6.370   4.233  0.00  0.00    +0.000 A 
BRANCH  19  21
ATOM     21  N   UNL     1       7.607  -7.044   5.951  0.00  0.00    +0.000 N 
ATOM     22  C   UNL     1       8.753  -7.903   6.284  0.00  0.00    +0.000 C 
ATOM     23  C   UNL     1       8.733  -8.252   7.779  0.00  0.00    +0.000 C 
ATOM     24  O   UNL     1       8.687  -7.067   8.592  0.00  0.00    +0.000 OA
ATOM     25  C   UNL     1       7.507  -6.301   8.291  0.00  0.00    +0.000 C 
ATOM     26  C   UNL     1       7.470  -5.862   6.815  0.00  0.00    +0.000 C 
ENDBRANCH  19  21
ENDBRANCH  14  15
ENDBRANCH   1  14
TORSDOF 5
