REMARK  Name = 
REMARK  4 active torsions:
REMARK  status: ('A' for Active; 'I' for Inactive)
REMARK    1  A    between atoms: C_2  and  C_3
REMARK    2  A    between atoms: C_6  and  C_7
REMARK    3  A    between atoms: C_7  and  C_8
REMARK    4  A    between atoms: C_12  and  C_13
REMARK                            x       y       z     vdW  Elec       q    Type
REMARK                         _______ _______ _______ _____ _____    ______ ____
ROOT
ATOM      1  C   UNL     1      -3.876  -1.573   0.554  0.00  0.00    +0.000 A 
ATOM      2  C   UNL     1      -4.067  -1.758   1.922  0.00  0.00    +0.000 A 
ATOM      3  N   UNL     1      -3.957  -2.944   2.560  0.00  0.00    +0.000 NA
ATOM      4  C   UNL     1      -3.619  -4.010   1.796  0.00  0.00    +0.000 A 
ATOM      5  C   UNL     1      -3.451  -3.984   0.411  0.00  0.00    +0.000 A 
ATOM      6  C   UNL     1      -3.654  -2.739  -0.200  0.00  0.00    +0.000 A 
ENDROOT
BRANCH   5   7
ATOM      7  C   UNL     1      -2.984  -5.154  -0.352  0.00  0.00    +0.000 A 
ATOM      8  C   UNL     1      -3.407  -5.429  -1.660  0.00  0.00    +0.000 A 
ATOM      9  C   UNL     1      -2.916  -6.542  -2.346  0.00  0.00    +0.000 A 
ATOM     10  C   UNL     1      -2.007  -7.363  -1.704  0.00  0.00    +0.000 A 
ATOM     11  N   UNL     1      -1.553  -7.137  -0.457  0.00  0.00    +0.000 NA
ATOM     12  C   UNL     1      -2.044  -6.044   0.178  0.00  0.00    +0.000 A 
ENDBRANCH   5   7
BRANCH   1  13
ATOM     13  C   UNL     1      -3.706  -0.188  -0.059  0.00  0.00    +0.000 C 
ATOM     14  C   UNL     1      -2.485   0.599   0.425  0.00  0.00    +0.000 C 
ATOM     15  C   UNL     1      -2.468   0.011  -0.946  0.00  0.00    +0.000 C 
BRANCH  13  19
ATOM     16  C   UNL     1      -7.192   2.059  -1.202  0.00  0.00    +0.000 A 
ATOM     17  C   UNL     1      -6.723   2.199   0.096  0.00  0.00    +0.000 A 
ATOM     18  C   UNL     1      -5.602   1.458   0.483  0.00  0.00    +0.000 A 
ATOM     19  C   UNL     1      -4.961   0.596  -0.420  0.00  0.00    +0.000 A 
ATOM     20  C   UNL     1      -5.538   0.526  -1.691  0.00  0.00    +0.000 A 
ATOM     21  N   UNL     1      -6.621   1.228  -2.105  0.00  0.00    +0.000 NA
BRANCH  16  23
ATOM     22  N   UNL     1      -9.236   3.449  -2.018  0.00  0.00    +0.000 NA
ATOM     23  C   UNL     1      -8.321   2.814  -1.669  0.00  0.00    +0.000 C 
ENDBRANCH  16  23
ENDBRANCH  13  19
ENDBRANCH   1  13
TORSDOF 4
