REMARK  Name = 
REMARK  4 active torsions:
REMARK  status: ('A' for Active; 'I' for Inactive)
REMARK    1  A    between atoms: C_2  and  C_4
REMARK    2  A    between atoms: N_8  and  C_9
REMARK    3  A    between atoms: C_9  and  C_10
REMARK    4  A    between atoms: C_13  and  C_14
REMARK                            x       y       z     vdW  Elec       q    Type
REMARK                         _______ _______ _______ _____ _____    ______ ____
ROOT
ATOM      1  C   UNL     1       5.941  -1.656   5.246  0.00  0.00    +0.000 C 
ATOM      2  C   UNL     1       5.816  -0.335   6.005  0.00  0.00    +0.000 C 
ATOM      3  C   UNL     1       6.618  -0.392   4.753  0.00  0.00    +0.000 C 
ATOM      4  F   UNL     1       7.990  -0.257   4.894  0.00  0.00    +0.000 F 
ENDROOT
BRANCH   1   9
ATOM      5  C   UNL     1       4.290  -3.275   0.715  0.00  0.00    +0.000 A 
ATOM      6  C   UNL     1       3.541  -3.820   1.729  0.00  0.00    +0.000 A 
ATOM      7  N   UNL     1       3.694  -3.488   3.030  0.00  0.00    +0.000 NA
ATOM      8  C   UNL     1       4.648  -2.591   3.327  0.00  0.00    +0.000 A 
ATOM      9  N   UNL     1       4.686  -2.164   4.651  0.00  0.00    +0.000 N 
ATOM     10  N   UNL     1       5.474  -2.055   2.412  0.00  0.00    +0.000 NA
ATOM     11  C   UNL     1       5.280  -2.412   1.121  0.00  0.00    +0.000 A 
ATOM     12  H   UNL     1       4.170  -2.839   5.207  0.00  0.00    +0.000 HD
BRANCH   5  14
ATOM     13  N   UNL     1       2.813  -3.905  -1.101  0.00  0.00    +0.000 N 
ATOM     14  C   UNL     1       4.076  -3.564  -0.708  0.00  0.00    +0.000 C 
ATOM     15  O   UNL     1       4.987  -3.450  -1.516  0.00  0.00    +0.000 OA
ATOM     16  H   UNL     1       2.660  -3.974  -2.100  0.00  0.00    +0.000 HD
ATOM     17  H   UNL     1       1.993  -3.756  -0.526  0.00  0.00    +0.000 HD
ENDBRANCH   5  14
ENDBRANCH   1   9
BRANCH   1  18
ATOM     18  C   UNL     1       6.770  -2.742   5.936  0.00  0.00    +0.000 A 
ATOM     19  C   UNL     1       8.023  -3.131   5.459  0.00  0.00    +0.000 A 
ATOM     20  C   UNL     1       8.788  -4.047   6.179  0.00  0.00    +0.000 A 
ATOM     21  C   UNL     1       8.283  -4.591   7.359  0.00  0.00    +0.000 A 
ATOM     22  C   UNL     1       7.005  -4.212   7.736  0.00  0.00    +0.000 A 
ATOM     23  N   UNL     1       6.248  -3.318   7.057  0.00  0.00    +0.000 NA
BRANCH  21  24
ATOM     24  C   UNL     1       9.065  -5.528   8.223  0.00  0.00    +0.000 C 
ATOM     25  F   UNL     1      10.319  -5.782   7.754  0.00  0.00    +0.000 F 
ATOM     26  F   UNL     1       9.232  -5.051   9.488  0.00  0.00    +0.000 F 
ATOM     27  F   UNL     1       8.464  -6.742   8.359  0.00  0.00    +0.000 F 
ENDBRANCH  21  24
ENDBRANCH   1  18
TORSDOF 4
