REMARK  Name = 
REMARK  6 active torsions:
REMARK  status: ('A' for Active; 'I' for Inactive)
REMARK    1  A    between atoms: C_2  and  C_20
REMARK    2  A    between atoms: N_3  and  C_4
REMARK    3  A    between atoms: C_4  and  C_5
REMARK    4  A    between atoms: C_8  and  C_9
REMARK    5  A    between atoms: C_9  and  O_10
REMARK    6  A    between atoms: C_9  and  C_11
REMARK                            x       y       z     vdW  Elec       q    Type
REMARK                         _______ _______ _______ _____ _____    ______ ____
ROOT
ATOM      1  C   UNL     1       3.357  -8.803  -8.341  0.00  0.00    +0.000 C 
ENDROOT
BRANCH   1   2
ATOM      2  C   UNL     1       3.893  -7.973  -7.208  0.00  0.00    +0.000 A 
ATOM      3  C   UNL     1       4.424  -6.697  -7.446  0.00  0.00    +0.000 A 
ATOM      4  C   UNL     1       4.971  -5.950  -6.402  0.00  0.00    +0.000 A 
ATOM      5  C   UNL     1       5.053  -6.494  -5.110  0.00  0.00    +0.000 A 
ATOM      6  C   UNL     1       4.489  -7.755  -4.870  0.00  0.00    +0.000 A 
ATOM      7  C   UNL     1       3.915  -8.489  -5.906  0.00  0.00    +0.000 A 
BRANCH   5   8
ATOM      8  C   UNL     1       5.885  -5.810  -4.046  0.00  0.00    +0.000 C 
BRANCH   8   9
ATOM      9  C   UNL     1       5.412  -6.032  -2.584  0.00  0.00    +0.000 C 
ATOM     10  O   UNL     1       5.869  -6.959  -1.906  0.00  0.00    +0.000 OA
ATOM     11  N   UNL     1       4.492  -5.139  -2.061  0.00  0.00    +0.000 N 
ATOM     12  C   UNL     1       3.854  -4.018  -2.727  0.00  0.00    +0.000 C 
ATOM     13  C   UNL     1       3.451  -3.114  -1.581  0.00  0.00    +0.000 C 
ATOM     14  C   UNL     1       3.052  -4.096  -0.488  0.00  0.00    +0.000 C 
ATOM     15  C   UNL     1       3.882  -5.353  -0.762  0.00  0.00    +0.000 C 
ENDBRANCH   8   9
BRANCH   8  16
ATOM     16  O   UNL     1       7.241  -6.181  -4.285  0.00  0.00    +0.000 OA
ATOM     17  H   UNL     1       7.346  -7.086  -3.938  0.00  0.00    +0.000 HD
ENDBRANCH   8  16
ENDBRANCH   5   8
ENDBRANCH   1   2
BRANCH   1  20
ATOM     18  O   UNL     1       5.001  -8.070 -10.463  0.00  0.00    +0.000 OA
ATOM     19  C   UNL     1       5.148  -9.185  -9.951  0.00  0.00    +0.000 C 
ATOM     20  N   UNL     1       4.378  -9.641  -8.910  0.00  0.00    +0.000 N 
ATOM     21  H   UNL     1       4.738 -10.407  -8.357  0.00  0.00    +0.000 HD
BRANCH  19  22
ATOM     22  C   UNL     1       6.141 -10.139 -10.419  0.00  0.00    +0.000 A 
ATOM     23  C   UNL     1       5.966 -11.515 -10.355  0.00  0.00    +0.000 A 
ATOM     24  S   UNL     1       7.281 -12.383 -11.012  0.00  0.00    +0.000 S 
ATOM     25  C   UNL     1       8.114 -10.947 -11.395  0.00  0.00    +0.000 A 
ATOM     26  N   UNL     1       9.337 -10.976 -11.987  0.00  0.00    +0.000 NA
ATOM     27  C   UNL     1       9.840  -9.807 -12.218  0.00  0.00    +0.000 A 
ATOM     28  N   UNL     1       9.233  -8.616 -11.907  0.00  0.00    +0.000 N 
ATOM     29  C   UNL     1       8.031  -8.535 -11.242  0.00  0.00    +0.000 A 
ATOM     30  O   UNL     1       7.604  -7.458 -10.845  0.00  0.00    +0.000 OA
ATOM     31  C   UNL     1       7.405  -9.824 -11.018  0.00  0.00    +0.000 A 
ATOM     32  H   UNL     1       9.700  -7.737 -12.071  0.00  0.00    +0.000 HD
ENDBRANCH  19  22
ENDBRANCH   1  20
TORSDOF 6
