REMARK  Name = 
REMARK  4 active torsions:
REMARK  status: ('A' for Active; 'I' for Inactive)
REMARK    1  A    between atoms: N_1  and  C_2
REMARK    2  A    between atoms: C_2  and  C_3
REMARK    3  A    between atoms: C_7  and  C_8
REMARK    4  A    between atoms: C_8  and  C_9
REMARK                            x       y       z     vdW  Elec       q    Type
REMARK                         _______ _______ _______ _____ _____    ______ ____
ROOT
ATOM      1  C   UNL     1       2.399  -3.065  -1.346  0.00  0.00    +0.000 A 
ATOM      2  N   UNL     1       2.441  -2.059  -0.431  0.00  0.00    +0.000 NA
ATOM      3  C   UNL     1       3.159  -0.979  -0.777  0.00  0.00    +0.000 A 
ATOM      4  N   UNL     1       3.817  -0.797  -1.937  0.00  0.00    +0.000 NA
ATOM      5  C   UNL     1       3.757  -1.815  -2.828  0.00  0.00    +0.000 A 
ATOM      6  C   UNL     1       3.052  -2.977  -2.562  0.00  0.00    +0.000 A 
ATOM      7  F   UNL     1       2.991  -3.967  -3.463  0.00  0.00    +0.000 F 
ENDROOT
BRANCH   1   8
ATOM      8  C   UNL     1       1.574  -4.283  -1.000  0.00  0.00    +0.000 C 
BRANCH   8   9
ATOM      9  N   UNL     1       2.048  -4.954   0.213  0.00  0.00    +0.000 NA
ATOM     10  H   UNL     1       1.361  -5.650   0.497  0.00  0.00    +0.000 HD
ATOM     11  H   UNL     1       2.073  -4.256   0.960  0.00  0.00    +0.000 HD
ENDBRANCH   8   9
ENDBRANCH   1   8
BRANCH   5  12
ATOM     12  C   UNL     1       4.482  -1.683  -4.151  0.00  0.00    +0.000 C 
BRANCH  12  13
ATOM     13  C   UNL     1       5.107  -0.310  -4.450  0.00  0.00    +0.000 C 
ATOM     14  C   UNL     1       6.321   0.044  -3.551  0.00  0.00    +0.000 C 
ATOM     15  C   UNL     1       7.592   0.117  -4.413  0.00  0.00    +0.000 C 
ATOM     16  C   UNL     1       7.072   0.001  -5.802  0.00  0.00    +0.000 A 
ATOM     17  C   UNL     1       7.791   0.082  -6.980  0.00  0.00    +0.000 A 
ATOM     18  C   UNL     1       7.083  -0.092  -8.159  0.00  0.00    +0.000 A 
ATOM     19  N   UNL     1       5.748  -0.331  -8.220  0.00  0.00    +0.000 NA
ATOM     20  C   UNL     1       5.080  -0.400  -7.046  0.00  0.00    +0.000 A 
ATOM     21  C   UNL     1       5.704  -0.247  -5.826  0.00  0.00    +0.000 A 
ENDBRANCH  12  13
ENDBRANCH   5  12
TORSDOF 4
