REMARK  Name = 
REMARK  6 active torsions:
REMARK  status: ('A' for Active; 'I' for Inactive)
REMARK    1  A    between atoms: C_1  and  C_2
REMARK    2  A    between atoms: C_2  and  N_3
REMARK    3  A    between atoms: C_2  and  C_16
REMARK    4  A    between atoms: C_4  and  C_6
REMARK    5  A    between atoms: C_19  and  O_20
REMARK    6  A    between atoms: O_20  and  C_21
REMARK                            x       y       z     vdW  Elec       q    Type
REMARK                         _______ _______ _______ _____ _____    ______ ____
ROOT
ATOM      1  C   UNL     1       2.868  -1.358   0.718  0.00  0.00    +0.000 C 
ATOM      2  C   UNL     1       2.388  -0.099  -0.012  0.00  0.00    +0.000 C 
ENDROOT
BRANCH   2   3
ATOM      3  C   UNL     1       2.903   0.025  -1.437  0.00  0.00    +0.000 A 
ATOM      4  C   UNL     1       3.146   1.309  -1.955  0.00  0.00    +0.000 A 
ATOM      5  C   UNL     1       3.658   1.479  -3.244  0.00  0.00    +0.000 A 
ATOM      6  C   UNL     1       3.990   0.367  -4.018  0.00  0.00    +0.000 A 
ATOM      7  C   UNL     1       3.696  -0.909  -3.540  0.00  0.00    +0.000 A 
ATOM      8  C   UNL     1       3.143  -1.080  -2.266  0.00  0.00    +0.000 A 
BRANCH   6   9
ATOM      9  O   UNL     1       4.544   0.430  -5.278  0.00  0.00    +0.000 OA
BRANCH   9  10
ATOM     10  C   UNL     1       5.412   1.450  -5.602  0.00  0.00    +0.000 A 
ATOM     11  C   UNL     1       6.278   2.066  -4.703  0.00  0.00    +0.000 A 
ATOM     12  C   UNL     1       7.063   3.108  -5.164  0.00  0.00    +0.000 A 
ATOM     13  N   UNL     1       7.082   3.523  -6.448  0.00  0.00    +0.000 NA
ATOM     14  C   UNL     1       6.284   2.859  -7.312  0.00  0.00    +0.000 A 
ATOM     15  C   UNL     1       5.439   1.827  -6.941  0.00  0.00    +0.000 A 
ENDBRANCH   9  10
ENDBRANCH   6   9
ENDBRANCH   2   3
BRANCH   2  16
ATOM     16  N   UNL     1       0.941   0.001   0.019  0.00  0.00    +0.000 N 
ATOM     17  C   UNL     1       0.292   0.568   1.090  0.00  0.00    +0.000 C 
ATOM     18  O   UNL     1       0.906   1.059   2.034  0.00  0.00    +0.000 OA
ATOM     19  H   UNL     1       0.414  -0.538  -0.664  0.00  0.00    +0.000 HD
BRANCH  17  20
ATOM     20  C   UNL     1      -1.173   0.620   1.041  0.00  0.00    +0.000 A 
ATOM     21  C   UNL     1      -1.841   1.608   1.752  0.00  0.00    +0.000 A 
ATOM     22  S   UNL     1      -3.538   1.512   1.631  0.00  0.00    +0.000 S 
ATOM     23  C   UNL     1      -3.440   0.125   0.650  0.00  0.00    +0.000 A 
ATOM     24  N   UNL     1      -4.567  -0.510   0.226  0.00  0.00    +0.000 NA
ATOM     25  C   UNL     1      -4.349  -1.563  -0.484  0.00  0.00    +0.000 A 
ATOM     26  N   UNL     1      -3.104  -2.034  -0.824  0.00  0.00    +0.000 N 
ATOM     27  C   UNL     1      -1.941  -1.398  -0.458  0.00  0.00    +0.000 A 
ATOM     28  O   UNL     1      -0.843  -1.791  -0.849  0.00  0.00    +0.000 OA
ATOM     29  C   UNL     1      -2.131  -0.233   0.382  0.00  0.00    +0.000 A 
ATOM     30  H   UNL     1      -3.004  -2.849  -1.408  0.00  0.00    +0.000 HD
ENDBRANCH  17  20
ENDBRANCH   2  16
TORSDOF 5
