REMARK  Name = 
REMARK  11 active torsions:
REMARK  status: ('A' for Active; 'I' for Inactive)
REMARK    1  A    between atoms: C_1  and  C_2
REMARK    2  A    between atoms: C_2  and  C_3
REMARK    3  A    between atoms: C_3  and  N_4
REMARK    4  A    between atoms: C_3  and  C_21
REMARK    5  A    between atoms: N_4  and  C_5
REMARK    6  A    between atoms: C_5  and  C_6
REMARK    7  A    between atoms: C_9  and  C_10
REMARK    8  A    between atoms: C_10  and  N_11
REMARK    9  A    between atoms: N_11  and  C_12
REMARK   10  A    between atoms: C_12  and  C_13
REMARK   11  A    between atoms: N_16  and  C_17
REMARK                            x       y       z     vdW  Elec       q    Type
REMARK                         _______ _______ _______ _____ _____    ______ ____
ROOT
ATOM      1  C   UNL     1      -8.508  -0.165   3.281  0.00  0.00    +0.000 C 
ENDROOT
BRANCH   1   2
ATOM      2  C   UNL     1      -7.922   1.198   2.960  0.00  0.00    +0.000 A 
ATOM      3  C   UNL     1      -6.566   1.335   2.669  0.00  0.00    +0.000 A 
ATOM      4  C   UNL     1      -6.047   2.613   2.468  0.00  0.00    +0.000 A 
ATOM      5  C   UNL     1      -6.885   3.724   2.556  0.00  0.00    +0.000 A 
ATOM      6  C   UNL     1      -8.227   3.489   2.839  0.00  0.00    +0.000 A 
ATOM      7  N   UNL     1      -8.756   2.264   3.043  0.00  0.00    +0.000 NA
BRANCH   5   8
ATOM      8  C   UNL     1      -6.355   5.126   2.482  0.00  0.00    +0.000 C 
BRANCH   8   9
ATOM      9  N   UNL     1      -5.657   5.459   1.227  0.00  0.00    +0.000 NA
ATOM     10  H   UNL     1      -6.314   5.342   0.455  0.00  0.00    +0.000 HD
BRANCH   9  11
ATOM     11  C   UNL     1      -5.249   6.861   1.332  0.00  0.00    +0.000 C 
BRANCH  11  12
ATOM     12  C   UNL     1      -4.635   7.518   0.095  0.00  0.00    +0.000 C 
ATOM     13  C   UNL     1      -4.323   8.991   0.438  0.00  0.00    +0.000 C 
ATOM     14  C   UNL     1      -2.835   9.146   0.188  0.00  0.00    +0.000 C 
ATOM     15  N   UNL     1      -2.625   8.177  -0.881  0.00  0.00    +0.000 NA
ATOM     16  C   UNL     1      -1.222   7.998  -1.205  0.00  0.00    +0.000 C 
ATOM     17  C   UNL     1      -3.296   6.958  -0.401  0.00  0.00    +0.000 C 
ENDBRANCH  11  12
ENDBRANCH   9  11
ENDBRANCH   8   9
ENDBRANCH   5   8
ENDBRANCH   1   2
BRANCH   1  18
ATOM     18  N   UNL     1      -9.535  -0.579   2.325  0.00  0.00    +0.000 NA
ATOM     19  H   UNL     1      -9.144  -0.559   1.385  0.00  0.00    +0.000 HD
BRANCH  18  20
ATOM     20  C   UNL     1     -10.128  -1.899   2.591  0.00  0.00    +0.000 C 
BRANCH  20  21
ATOM     21  C   UNL     1     -11.177  -2.086   1.505  0.00  0.00    +0.000 A 
ATOM     22  C   UNL     1     -12.215  -1.190   1.268  0.00  0.00    +0.000 A 
ATOM     23  S   UNL     1     -13.160  -1.584  -0.096  0.00  0.00    +0.000 S 
ATOM     24  C   UNL     1     -12.222  -2.966  -0.417  0.00  0.00    +0.000 A 
ATOM     25  N   UNL     1     -12.463  -3.744  -1.508  0.00  0.00    +0.000 NA
ATOM     26  C   UNL     1     -11.664  -4.754  -1.626  0.00  0.00    +0.000 A 
ATOM     27  N   UNL     1     -10.670  -5.075  -0.737  0.00  0.00    +0.000 N 
ATOM     28  C   UNL     1     -10.432  -4.358   0.416  0.00  0.00    +0.000 A 
ATOM     29  O   UNL     1      -9.618  -4.738   1.251  0.00  0.00    +0.000 OA
ATOM     30  C   UNL     1     -11.245  -3.161   0.544  0.00  0.00    +0.000 A 
ATOM     31  H   UNL     1     -10.118  -5.911  -0.863  0.00  0.00    +0.000 HD
ENDBRANCH  20  21
BRANCH  20  33
ATOM     32  C   UNL     1     -11.284  -3.365   4.357  0.00  0.00    +0.000 C 
ATOM     33  C   UNL     1     -10.724  -1.994   4.013  0.00  0.00    +0.000 C 
ENDBRANCH  20  33
ENDBRANCH  18  20
ENDBRANCH   1  18
TORSDOF 9
