REMARK  Name = 
REMARK  9 active torsions:
REMARK  status: ('A' for Active; 'I' for Inactive)
REMARK    1  A    between atoms: C_1  and  O_2
REMARK    2  A    between atoms: O_2  and  C_3
REMARK    3  A    between atoms: C_10  and  C_11
REMARK    4  A    between atoms: N_13  and  C_14
REMARK    5  A    between atoms: C_14  and  C_15
REMARK    6  A    between atoms: C_18  and  C_19
REMARK    7  A    between atoms: C_19  and  O_20
REMARK    8  A    between atoms: O_20  and  C_21
REMARK    9  A    between atoms: C_21  and  C_22
REMARK                            x       y       z     vdW  Elec       q    Type
REMARK                         _______ _______ _______ _____ _____    ______ ____
ROOT
ATOM      1  C   UNL     1       2.877   0.180   3.434  0.00  0.00    +0.000 C 
ENDROOT
BRANCH   1   2
ATOM      2  C   UNL     1       1.799   1.224   3.290  0.00  0.00    +0.000 A 
ATOM      3  C   UNL     1       0.449   0.855   3.214  0.00  0.00    +0.000 A 
ATOM      4  C   UNL     1      -0.546   1.826   3.057  0.00  0.00    +0.000 A 
ATOM      5  C   UNL     1      -0.213   3.185   2.962  0.00  0.00    +0.000 A 
ATOM      6  C   UNL     1       1.138   3.550   3.024  0.00  0.00    +0.000 A 
ATOM      7  C   UNL     1       2.133   2.580   3.182  0.00  0.00    +0.000 A 
BRANCH   5   8
ATOM      8  C   UNL     1      -1.287   4.228   2.777  0.00  0.00    +0.000 C 
BRANCH   8   9
ATOM      9  O   UNL     1      -2.186   4.172   3.881  0.00  0.00    +0.000 OA
BRANCH   9  10
ATOM     10  C   UNL     1      -3.202   5.173   3.787  0.00  0.00    +0.000 C 
BRANCH  10  11
ATOM     11  C   UNL     1      -4.137   5.107   4.967  0.00  0.00    +0.000 A 
ATOM     12  C   UNL     1      -3.683   4.715   6.224  0.00  0.00    +0.000 A 
ATOM     13  N   UNL     1      -4.479   4.677   7.321  0.00  0.00    +0.000 NA
ATOM     14  C   UNL     1      -5.760   5.051   7.115  0.00  0.00    +0.000 A 
ATOM     15  C   UNL     1      -6.222   5.456   5.876  0.00  0.00    +0.000 A 
ATOM     16  N   UNL     1      -5.427   5.501   4.781  0.00  0.00    +0.000 NA
ENDBRANCH  10  11
ENDBRANCH   9  10
ENDBRANCH   8   9
ENDBRANCH   5   8
ENDBRANCH   1   2
BRANCH   1  19
ATOM     17  C   UNL     1       4.290  -1.238   2.006  0.00  0.00    +0.000 C 
ATOM     18  O   UNL     1       4.795  -1.775   2.990  0.00  0.00    +0.000 OA
ATOM     19  N   UNL     1       3.341  -0.262   2.143  0.00  0.00    +0.000 N 
ATOM     20  H   UNL     1       2.972   0.207   1.326  0.00  0.00    +0.000 HD
BRANCH  17  28
ATOM     21  C   UNL     1       3.218  -0.286  -1.128  0.00  0.00    +0.000 A 
ATOM     22  N   UNL     1       3.001  -0.100  -2.446  0.00  0.00    +0.000 NA
ATOM     23  C   UNL     1       3.734  -0.808  -3.309  0.00  0.00    +0.000 A 
ATOM     24  N   UNL     1       4.678  -1.697  -3.016  0.00  0.00    +0.000 NA
ATOM     25  C   UNL     1       4.868  -1.847  -1.694  0.00  0.00    +0.000 A 
ATOM     26  S   UNL     1       6.035  -2.947  -1.137  0.00  0.00    +0.000 S 
ATOM     27  C   UNL     1       5.681  -2.577   0.483  0.00  0.00    +0.000 A 
ATOM     28  C   UNL     1       4.683  -1.621   0.639  0.00  0.00    +0.000 A 
ATOM     29  C   UNL     1       4.197  -1.186  -0.670  0.00  0.00    +0.000 A 
BRANCH  21  31
ATOM     30  C   UNL     1       1.234   0.899  -0.773  0.00  0.00    +0.000 C 
ATOM     31  O   UNL     1       2.484   0.469  -0.238  0.00  0.00    +0.000 OA
ENDBRANCH  21  31
ENDBRANCH  17  28
ENDBRANCH   1  19
TORSDOF 8
