REMARK  Name = 
REMARK  11 active torsions:
REMARK  status: ('A' for Active; 'I' for Inactive)
REMARK    1  A    between atoms: C_1  and  O_2
REMARK    2  A    between atoms: O_2  and  C_3
REMARK    3  A    between atoms: C_3  and  C_5
REMARK    4  A    between atoms: C_8  and  N_9
REMARK    5  A    between atoms: N_9  and  C_10
REMARK    6  A    between atoms: C_10  and  C_11
REMARK    7  A    between atoms: C_11  and  C_12
REMARK    8  A    between atoms: C_11  and  C_13
REMARK    9  A    between atoms: C_11  and  C_14
REMARK   10  A    between atoms: C_18  and  C_19
REMARK   11  A    between atoms: C_19  and  N_20
REMARK                            x       y       z     vdW  Elec       q    Type
REMARK                         _______ _______ _______ _____ _____    ______ ____
ROOT
ATOM      1  C   UNL     1       9.601  -0.271  -0.897  0.00  0.00    +0.000 C 
ENDROOT
BRANCH   1   2
ATOM      2  C   UNL     1      11.145  -0.059  -0.841  0.00  0.00    +0.000 C 
ATOM      3  C   UNL     1      11.572   0.815  -2.040  0.00  0.00    +0.000 C 
ATOM      4  C   UNL     1      11.505   0.649   0.487  0.00  0.00    +0.000 C 
BRANCH   2   5
ATOM      5  C   UNL     1      11.916  -1.400  -0.877  0.00  0.00    +0.000 A 
ATOM      6  C   UNL     1      13.322  -1.409  -0.855  0.00  0.00    +0.000 A 
ATOM      7  C   UNL     1      14.041  -2.604  -0.790  0.00  0.00    +0.000 A 
ATOM      8  C   UNL     1      13.371  -3.823  -0.712  0.00  0.00    +0.000 A 
ATOM      9  C   UNL     1      11.974  -3.856  -0.718  0.00  0.00    +0.000 A 
ATOM     10  C   UNL     1      11.267  -2.648  -0.850  0.00  0.00    +0.000 A 
BRANCH   9  11
ATOM     11  C   UNL     1      11.216  -5.150  -0.550  0.00  0.00    +0.000 C 
BRANCH  11  12
ATOM     12  N   UNL     1      10.332  -5.093   0.612  0.00  0.00    +0.000 NA
ATOM     13  H   UNL     1      10.901  -4.972   1.451  0.00  0.00    +0.000 HD
ATOM     14  H   UNL     1       9.849  -5.983   0.715  0.00  0.00    +0.000 HD
ENDBRANCH  11  12
ENDBRANCH   9  11
ENDBRANCH   2   5
ENDBRANCH   1   2
BRANCH   1  15
ATOM     15  N   UNL     1       8.825   0.969  -0.900  0.00  0.00    +0.000 N 
ATOM     16  H   UNL     1       9.217   1.748  -0.381  0.00  0.00    +0.000 HD
BRANCH  15  20
ATOM     17  C   UNL     1       4.617   0.978  -1.124  0.00  0.00    +0.000 A 
ATOM     18  C   UNL     1       5.331   2.163  -0.927  0.00  0.00    +0.000 A 
ATOM     19  C   UNL     1       6.724   2.128  -0.805  0.00  0.00    +0.000 A 
ATOM     20  C   UNL     1       7.431   0.920  -0.882  0.00  0.00    +0.000 A 
ATOM     21  C   UNL     1       6.698  -0.252  -1.098  0.00  0.00    +0.000 A 
ATOM     22  C   UNL     1       5.309  -0.225  -1.212  0.00  0.00    +0.000 A 
ATOM     23  F   UNL     1       4.674  -1.380  -1.460  0.00  0.00    +0.000 F 
BRANCH  17  24
ATOM     24  C   UNL     1       3.158   1.052  -1.287  0.00  0.00    +0.000 C 
ATOM     25  O   UNL     1       2.595   2.021  -1.783  0.00  0.00    +0.000 OA
BRANCH  24  27
ATOM     26  C   UNL     1       1.132   0.007  -0.814  0.00  0.00    +0.000 C 
ATOM     27  O   UNL     1       2.556  -0.033  -0.747  0.00  0.00    +0.000 OA
ENDBRANCH  24  27
ENDBRANCH  17  24
ENDBRANCH  15  20
ENDBRANCH   1  15
TORSDOF 8
