REMARK  Name = 
REMARK  6 active torsions:
REMARK  status: ('A' for Active; 'I' for Inactive)
REMARK    1  A    between atoms: C_2  and  C_4
REMARK    2  A    between atoms: C_7  and  N_8
REMARK    3  A    between atoms: N_8  and  C_9
REMARK    4  A    between atoms: C_9  and  C_10
REMARK    5  A    between atoms: C_13  and  O_14
REMARK    6  A    between atoms: O_14  and  C_15
REMARK                            x       y       z     vdW  Elec       q    Type
REMARK                         _______ _______ _______ _____ _____    ______ ____
ROOT
ATOM      1  N   UNL     1       5.284  -4.107  -2.481  0.00  0.00    +0.000 N 
ATOM      2  H   UNL     1       5.262  -4.716  -1.667  0.00  0.00    +0.000 HD
ENDROOT
BRANCH   1   6
ATOM      3  C   UNL     1       4.941  -0.058  -1.648  0.00  0.00    +0.000 A 
ATOM      4  C   UNL     1       4.448  -0.506  -2.862  0.00  0.00    +0.000 A 
ATOM      5  C   UNL     1       4.520  -1.869  -3.147  0.00  0.00    +0.000 A 
ATOM      6  C   UNL     1       5.057  -2.765  -2.219  0.00  0.00    +0.000 A 
ATOM      7  C   UNL     1       5.531  -2.195  -1.032  0.00  0.00    +0.000 A 
ATOM      8  N   UNL     1       5.486  -0.877  -0.708  0.00  0.00    +0.000 NA
BRANCH   3  10
ATOM      9  N   UNL     1       5.508   1.764  -0.161  0.00  0.00    +0.000 N 
ATOM     10  C   UNL     1       4.914   1.406  -1.339  0.00  0.00    +0.000 C 
ATOM     11  O   UNL     1       4.409   2.230  -2.085  0.00  0.00    +0.000 OA
ATOM     12  H   UNL     1       5.554   2.741   0.096  0.00  0.00    +0.000 HD
ATOM     13  H   UNL     1       5.945   1.057   0.417  0.00  0.00    +0.000 HD
ENDBRANCH   3  10
ENDBRANCH   1   6
BRANCH   1  14
ATOM     14  C   UNL     1       4.865  -4.755  -3.712  0.00  0.00    +0.000 C 
BRANCH  14  15
ATOM     15  C   UNL     1       5.726  -5.974  -3.947  0.00  0.00    +0.000 A 
ATOM     16  C   UNL     1       5.166  -7.251  -4.058  0.00  0.00    +0.000 A 
ATOM     17  C   UNL     1       5.975  -8.363  -4.325  0.00  0.00    +0.000 A 
ATOM     18  C   UNL     1       7.346  -8.205  -4.522  0.00  0.00    +0.000 A 
ATOM     19  C   UNL     1       7.913  -6.938  -4.370  0.00  0.00    +0.000 A 
ATOM     20  C   UNL     1       7.113  -5.830  -4.092  0.00  0.00    +0.000 A 
BRANCH  18  21
ATOM     21  O   UNL     1       8.239  -9.187  -4.817  0.00  0.00    +0.000 OA
BRANCH  21  22
ATOM     22  C   UNL     1       7.814 -10.330  -5.545  0.00  0.00    +0.000 C 
ATOM     23  F   UNL     1       6.593 -10.209  -6.106  0.00  0.00    +0.000 F 
ATOM     24  F   UNL     1       8.701 -10.555  -6.540  0.00  0.00    +0.000 F 
ATOM     25  F   UNL     1       7.816 -11.406  -4.729  0.00  0.00    +0.000 F 
ENDBRANCH  21  22
ENDBRANCH  18  21
ENDBRANCH  14  15
ENDBRANCH   1  14
TORSDOF 6
