REMARK  Name = 
REMARK  4 active torsions:
REMARK  status: ('A' for Active; 'I' for Inactive)
REMARK    1  A    between atoms: C_2  and  C_4
REMARK    2  A    between atoms: C_7  and  C_8
REMARK    3  A    between atoms: C_8  and  N_9
REMARK    4  A    between atoms: C_14  and  C_15
REMARK                            x       y       z     vdW  Elec       q    Type
REMARK                         _______ _______ _______ _____ _____    ______ ____
ROOT
ATOM      1  N   UNL     1       4.792  -5.167  -2.899  0.00  0.00    +0.000 N 
ATOM      2  C   UNL     1       5.432  -6.310  -3.348  0.00  0.00    +0.000 A 
ATOM      3  N   UNL     1       5.505  -6.448  -4.675  0.00  0.00    +0.000 NA
ATOM      4  C   UNL     1       6.069  -7.574  -5.140  0.00  0.00    +0.000 A 
ATOM      5  C   UNL     1       6.577  -8.559  -4.330  0.00  0.00    +0.000 A 
ATOM      6  C   UNL     1       6.479  -8.337  -2.971  0.00  0.00    +0.000 A 
ATOM      7  N   UNL     1       5.902  -7.216  -2.480  0.00  0.00    +0.000 NA
ATOM      8  H   UNL     1       4.821  -4.504  -3.667  0.00  0.00    +0.000 HD
ENDROOT
BRANCH   6   9
ATOM      9  C   UNL     1       6.964  -9.293  -1.960  0.00  0.00    +0.000 A 
ATOM     10  C   UNL     1       6.370  -9.364  -0.693  0.00  0.00    +0.000 A 
ATOM     11  N   UNL     1       6.738 -10.213   0.303  0.00  0.00    +0.000 NA
ATOM     12  C   UNL     1       7.771 -11.040   0.033  0.00  0.00    +0.000 A 
ATOM     13  C   UNL     1       8.434 -11.051  -1.179  0.00  0.00    +0.000 A 
ATOM     14  F   UNL     1       9.455 -11.891  -1.390  0.00  0.00    +0.000 F 
ATOM     15  C   UNL     1       8.032 -10.176  -2.182  0.00  0.00    +0.000 A 
ENDBRANCH   6   9
BRANCH   1  16
ATOM     16  C   UNL     1       5.299  -4.640  -1.642  0.00  0.00    +0.000 C 
BRANCH  16  20
ATOM     17  C   UNL     1       3.164  -1.120  -0.463  0.00  0.00    +0.000 A 
ATOM     18  C   UNL     1       2.462  -2.315  -0.618  0.00  0.00    +0.000 A 
ATOM     19  C   UNL     1       3.150  -3.464  -1.010  0.00  0.00    +0.000 A 
ATOM     20  C   UNL     1       4.525  -3.393  -1.242  0.00  0.00    +0.000 A 
ATOM     21  N   UNL     1       5.218  -2.231  -1.118  0.00  0.00    +0.000 NA
ATOM     22  C   UNL     1       4.524  -1.125  -0.741  0.00  0.00    +0.000 A 
BRANCH  17  24
ATOM     23  N   UNL     1       1.404   0.044   0.741  0.00  0.00    +0.000 N 
ATOM     24  C   UNL     1       2.525   0.143  -0.035  0.00  0.00    +0.000 C 
ATOM     25  O   UNL     1       3.001   1.231  -0.328  0.00  0.00    +0.000 OA
ATOM     26  H   UNL     1       1.043   0.912   1.117  0.00  0.00    +0.000 HD
ATOM     27  H   UNL     1       1.136  -0.812   1.206  0.00  0.00    +0.000 HD
ENDBRANCH  17  24
ENDBRANCH  16  20
ENDBRANCH   1  16
TORSDOF 4
