REMARK  Name = 
REMARK  9 active torsions:
REMARK  status: ('A' for Active; 'I' for Inactive)
REMARK    1  A    between atoms: N_1  and  C_2
REMARK    2  A    between atoms: C_2  and  C_3
REMARK    3  A    between atoms: C_3  and  C_4
REMARK    4  A    between atoms: C_7  and  C_8
REMARK    5  A    between atoms: C_8  and  N_9
REMARK    6  A    between atoms: C_14  and  C_15
REMARK    7  A    between atoms: N_17  and  C_18
REMARK    8  A    between atoms: C_18  and  C_19
REMARK    9  A    between atoms: C_19  and  O_20
REMARK                            x       y       z     vdW  Elec       q    Type
REMARK                         _______ _______ _______ _____ _____    ______ ____
ROOT
ATOM      1  N   UNK     1       9.383   2.758   1.180  0.00  0.00    +0.000 N 
ATOM      2  C   UNK     1      10.064   3.588   0.319  0.00  0.00    +0.000 A 
ATOM      3  C   UNK     1      10.329   4.766   0.974  0.00  0.00    +0.000 A 
ATOM      4  C   UNK     1       9.788   4.658   2.280  0.00  0.00    +0.000 A 
ATOM      5  C   UNK     1       9.727   5.539   3.365  0.00  0.00    +0.000 A 
ATOM      6  C   UNK     1       9.078   5.084   4.505  0.00  0.00    +0.000 A 
ATOM      7  N   UNK     1       8.519   3.851   4.639  0.00  0.00    +0.000 NA
ATOM      8  C   UNK     1       8.586   2.992   3.587  0.00  0.00    +0.000 A 
ATOM      9  C   UNK     1       9.207   3.393   2.402  0.00  0.00    +0.000 A 
ENDROOT
BRANCH   6  10
ATOM     10  C   UNK     1       8.970   6.030   5.666  0.00  0.00    +0.000 C 
ATOM     11  O   UNK     1       9.431   7.169   5.597  0.00  0.00    +0.000 OA
ATOM     12  N   UNK     1       8.331   5.558   6.793  0.00  0.00    +0.000 N 
ATOM     13  H   UNK     1       7.977   4.608   6.772  0.00  0.00    +0.000 HD
BRANCH  12  14
ATOM     14  C   UNK     1       8.223   6.373   7.996  0.00  0.00    +0.000 C 
BRANCH  14  15
ATOM     15  C   UNK     1       6.967   7.246   7.998  0.00  0.00    +0.000 C 
BRANCH  15  16
ATOM     16  O   UNK     1       5.798   6.429   7.992  0.00  0.00    +0.000 OA
ATOM     17  H   UNK     1       5.832   5.929   7.157  0.00  0.00    +0.000 HD
ENDBRANCH  15  16
ENDBRANCH  14  15
ENDBRANCH  12  14
ENDBRANCH   6  10
BRANCH   1  18
ATOM     18  C   UNK     1       8.801   1.480   0.770  0.00  0.00    +0.000 C 
BRANCH  18  22
ATOM     19  C   UNK     1      11.635  -1.784   1.131  0.00  0.00    +0.000 A 
ATOM     20  C   UNK     1      10.759  -1.478   2.180  0.00  0.00    +0.000 A 
ATOM     21  C   UNK     1       9.837  -0.434   2.060  0.00  0.00    +0.000 A 
ATOM     22  C   UNK     1       9.770   0.330   0.888  0.00  0.00    +0.000 A 
ATOM     23  C   UNK     1      10.623  -0.002  -0.175  0.00  0.00    +0.000 A 
ATOM     24  C   UNK     1      11.541  -1.053  -0.059  0.00  0.00    +0.000 A 
BRANCH  19  25
ATOM     25  C   UNK     1      12.676  -2.866   1.304  0.00  0.00    +0.000 C 
BRANCH  25  26
ATOM     26  C   UNK     1      12.175  -4.259   0.910  0.00  0.00    +0.000 C 
BRANCH  26  27
ATOM     27  N   UNK     1      13.207  -5.270   1.144  0.00  0.00    +0.000 NA
ATOM     28  H   UNK     1      12.841  -6.191   0.903  0.00  0.00    +0.000 HD
ATOM     29  H   UNK     1      13.434  -5.308   2.138  0.00  0.00    +0.000 HD
ENDBRANCH  26  27
ENDBRANCH  25  26
ENDBRANCH  19  25
ENDBRANCH  18  22
ENDBRANCH   1  18
TORSDOF 9
