REMARK  Name = 
REMARK  10 active torsions:
REMARK  status: ('A' for Active; 'I' for Inactive)
REMARK    1  A    between atoms: C_1  and  C_2
REMARK    2  A    between atoms: C_2  and  C_3
REMARK    3  A    between atoms: C_3  and  N_4
REMARK    4  A    between atoms: N_4  and  C_5
REMARK    5  A    between atoms: C_5  and  C_6
REMARK    6  A    between atoms: C_9  and  C_10
REMARK    7  A    between atoms: C_10  and  O_11
REMARK    8  A    between atoms: C_10  and  C_12
REMARK    9  A    between atoms: C_12  and  C_13
REMARK   10  A    between atoms: C_21  and  C_23
REMARK                            x       y       z     vdW  Elec       q    Type
REMARK                         _______ _______ _______ _____ _____    ______ ____
ROOT
ATOM      1  N   UNL     1       4.652   0.085   1.365  0.00  0.00    +0.000 N 
ATOM      2  C   UNL     1       5.129   1.225   2.052  0.00  0.00    +0.000 C 
ATOM      3  O   UNL     1       4.725   1.471   3.189  0.00  0.00    +0.000 OA
ENDROOT
BRANCH   2   4
ATOM      4  C   UNL     1       6.072   2.175   1.421  0.00  0.00    +0.000 A 
ATOM      5  C   UNL     1       6.088   2.555   0.094  0.00  0.00    +0.000 A 
ATOM      6  S   UNL     1       7.155   3.818  -0.301  0.00  0.00    +0.000 S 
ATOM      7  C   UNL     1       7.671   3.918   1.304  0.00  0.00    +0.000 A 
ATOM      8  N   UNL     1       8.588   4.850   1.659  0.00  0.00    +0.000 NA
ATOM      9  C   UNL     1       8.885   4.832   2.923  0.00  0.00    +0.000 A 
ATOM     10  N   UNL     1       8.366   3.961   3.831  0.00  0.00    +0.000 N 
ATOM     11  C   UNL     1       7.514   2.926   3.495  0.00  0.00    +0.000 A 
ATOM     12  O   UNL     1       7.268   2.027   4.292  0.00  0.00    +0.000 OA
ATOM     13  C   UNL     1       7.068   2.970   2.115  0.00  0.00    +0.000 A 
ATOM     14  H   UNL     1       8.706   3.948   4.786  0.00  0.00    +0.000 HD
ENDBRANCH   2   4
BRANCH   1  15
ATOM     15  C   UNL     1       3.732  -0.812   2.094  0.00  0.00    +0.000 C 
BRANCH  15  17
ATOM     16  C   UNL     1       5.497  -1.830   3.699  0.00  0.00    +0.000 C 
ATOM     17  C   UNL     1       4.375  -2.077   2.700  0.00  0.00    +0.000 C 
ENDBRANCH  15  17
ENDBRANCH   1  15
BRANCH   1  18
ATOM     18  C   UNL     1       5.235  -0.449   0.142  0.00  0.00    +0.000 C 
BRANCH  18  19
ATOM     19  C   UNL     1       4.448  -0.329  -1.158  0.00  0.00    +0.000 A 
ATOM     20  C   UNL     1       3.825   0.844  -1.599  0.00  0.00    +0.000 A 
ATOM     21  C   UNL     1       3.626   1.082  -2.970  0.00  0.00    +0.000 A 
ATOM     22  C   UNL     1       3.890   0.085  -3.918  0.00  0.00    +0.000 A 
ATOM     23  C   UNL     1       4.318  -1.162  -3.445  0.00  0.00    +0.000 A 
ATOM     24  C   UNL     1       4.604  -1.363  -2.092  0.00  0.00    +0.000 A 
BRANCH  22  25
ATOM     25  C   UNL     1       3.777   0.392  -5.407  0.00  0.00    +0.000 C 
BRANCH  25  26
ATOM     26  O   UNL     1       5.080   0.737  -5.886  0.00  0.00    +0.000 OA
ATOM     27  H   UNL     1       5.708   0.081  -5.542  0.00  0.00    +0.000 HD
ENDBRANCH  25  26
BRANCH  25  28
ATOM     28  C   UNL     1       3.204  -0.788  -6.216  0.00  0.00    +0.000 C 
BRANCH  28  29
ATOM     29  C   UNL     1       3.052  -0.630  -7.715  0.00  0.00    +0.000 A 
ATOM     30  C   UNL     1       3.126  -1.792  -8.505  0.00  0.00    +0.000 A 
ATOM     31  C   UNL     1       2.988  -1.729  -9.889  0.00  0.00    +0.000 A 
ATOM     32  C   UNL     1       2.757  -0.499 -10.505  0.00  0.00    +0.000 A 
ATOM     33  C   UNL     1       2.663   0.657  -9.733  0.00  0.00    +0.000 A 
ATOM     34  C   UNL     1       2.805   0.592  -8.344  0.00  0.00    +0.000 A 
ENDBRANCH  28  29
ENDBRANCH  25  28
ENDBRANCH  22  25
ENDBRANCH  18  19
ENDBRANCH   1  18
TORSDOF 9
