REMARK  Name = 
REMARK  7 active torsions:
REMARK  status: ('A' for Active; 'I' for Inactive)
REMARK    1  A    between atoms: N_1  and  C_2
REMARK    2  A    between atoms: C_2  and  C_3
REMARK    3  A    between atoms: C_3  and  N_4
REMARK    4  A    between atoms: C_3  and  C_17
REMARK    5  A    between atoms: C_5  and  C_7
REMARK    6  A    between atoms: C_20  and  C_21
REMARK    7  A    between atoms: C_21  and  C_22
REMARK                            x       y       z     vdW  Elec       q    Type
REMARK                         _______ _______ _______ _____ _____    ______ ____
ROOT
ATOM      1  C   UNL     1       2.979  -1.234  -0.725  0.00  0.00    +0.000 C 
ENDROOT
BRANCH   1   2
ATOM      2  C   UNL     1       4.498  -1.280  -0.663  0.00  0.00    +0.000 A 
ATOM      3  C   UNL     1       5.115  -1.877   0.448  0.00  0.00    +0.000 A 
ATOM      4  C   UNL     1       6.502  -2.045   0.495  0.00  0.00    +0.000 A 
ATOM      5  C   UNL     1       7.307  -1.621  -0.569  0.00  0.00    +0.000 A 
ATOM      6  C   UNL     1       6.702  -0.970  -1.650  0.00  0.00    +0.000 A 
ATOM      7  C   UNL     1       5.316  -0.783  -1.687  0.00  0.00    +0.000 A 
BRANCH   5   8
ATOM      8  C   UNL     1       8.799  -1.868  -0.560  0.00  0.00    +0.000 C 
BRANCH   8   9
ATOM      9  C   UNL     1       9.256  -3.174  -1.179  0.00  0.00    +0.000 A 
ATOM     10  C   UNL     1       8.857  -4.402  -0.651  0.00  0.00    +0.000 A 
ATOM     11  C   UNL     1       9.397  -5.576  -1.173  0.00  0.00    +0.000 A 
ATOM     12  C   UNL     1      10.317  -5.500  -2.210  0.00  0.00    +0.000 A 
ATOM     13  C   UNL     1      10.651  -4.246  -2.691  0.00  0.00    +0.000 A 
ATOM     14  N   UNL     1      10.150  -3.090  -2.199  0.00  0.00    +0.000 NA
ENDBRANCH   8   9
ENDBRANCH   5   8
ENDBRANCH   1   2
BRANCH   1  15
ATOM     15  N   UNL     1       2.484  -0.002  -0.133  0.00  0.00    +0.000 N 
ATOM     16  C   UNL     1       1.259   0.048   0.485  0.00  0.00    +0.000 C 
ATOM     17  O   UNL     1       0.549  -0.949   0.608  0.00  0.00    +0.000 OA
ATOM     18  H   UNL     1       2.962   0.858  -0.381  0.00  0.00    +0.000 HD
BRANCH  16  19
ATOM     19  C   UNL     1       0.845   1.340   1.042  0.00  0.00    +0.000 A 
ATOM     20  C   UNL     1      -0.048   1.376   2.105  0.00  0.00    +0.000 A 
ATOM     21  S   UNL     1      -0.417   2.953   2.633  0.00  0.00    +0.000 S 
ATOM     22  C   UNL     1       0.562   3.645   1.427  0.00  0.00    +0.000 A 
ATOM     23  N   UNL     1       0.660   4.995   1.293  0.00  0.00    +0.000 NA
ATOM     24  C   UNL     1       1.400   5.381   0.311  0.00  0.00    +0.000 A 
ATOM     25  N   UNL     1       2.067   4.540  -0.545  0.00  0.00    +0.000 N 
ATOM     26  C   UNL     1       2.040   3.171  -0.417  0.00  0.00    +0.000 A 
ATOM     27  O   UNL     1       2.707   2.444  -1.147  0.00  0.00    +0.000 OA
ATOM     28  C   UNL     1       1.190   2.684   0.652  0.00  0.00    +0.000 A 
ATOM     29  H   UNL     1       2.647   4.908  -1.283  0.00  0.00    +0.000 HD
ENDBRANCH  16  19
ENDBRANCH   1  15
BRANCH   1  30
ATOM     30  C   UNL     1       2.373  -1.470  -2.143  0.00  0.00    +0.000 C 
BRANCH  30  31
ATOM     31  N   UNL     1       2.708  -2.779  -2.722  0.00  0.00    +0.000 NA
ATOM     32  H   UNL     1       2.074  -2.981  -3.493  0.00  0.00    +0.000 HD
ATOM     33  H   UNL     1       2.557  -3.507  -2.025  0.00  0.00    +0.000 HD
ENDBRANCH  30  31
ENDBRANCH   1  30
TORSDOF 7
