REMARK  Name = 
REMARK  5 active torsions:
REMARK  status: ('A' for Active; 'I' for Inactive)
REMARK    1  A    between atoms: C_1  and  C_2
REMARK    2  A    between atoms: C_2  and  O_3
REMARK    3  A    between atoms: C_2  and  C_12
REMARK    4  A    between atoms: O_3  and  C_4
REMARK    5  A    between atoms: C_7  and  C_8
REMARK                            x       y       z     vdW  Elec       q    Type
REMARK                         _______ _______ _______ _____ _____    ______ ____
ROOT
ATOM      1  O   UNL     1       2.774   0.943   0.971  0.00  0.00    +0.000 OA
ENDROOT
BRANCH   1   2
ATOM      2  C   UNL     1       2.513   2.258   0.714  0.00  0.00    +0.000 A 
ATOM      3  C   UNL     1       2.272   3.043   1.845  0.00  0.00    +0.000 A 
ATOM      4  C   UNL     1       1.982   4.405   1.718  0.00  0.00    +0.000 A 
ATOM      5  C   UNL     1       1.950   4.995   0.454  0.00  0.00    +0.000 A 
ATOM      6  C   UNL     1       2.218   4.218  -0.677  0.00  0.00    +0.000 A 
ATOM      7  C   UNL     1       2.505   2.851  -0.547  0.00  0.00    +0.000 A 
BRANCH   5   8
ATOM      8  C   UNL     1       1.647   6.389   0.314  0.00  0.00    +0.000 C 
ATOM      9  N   UNL     1       1.399   7.518   0.194  0.00  0.00    +0.000 NA
ENDBRANCH   5   8
ENDBRANCH   1   2
BRANCH   1  11
ATOM     10  C   UNL     1       0.953  -0.194  -0.184  0.00  0.00    +0.000 C 
ATOM     11  C   UNL     1       2.467  -0.036  -0.037  0.00  0.00    +0.000 C 
BRANCH  11  12
ATOM     12  C   UNL     1       3.100  -1.364   0.361  0.00  0.00    +0.000 A 
ATOM     13  C   UNL     1       3.478  -2.284  -0.633  0.00  0.00    +0.000 A 
ATOM     14  C   UNL     1       4.100  -3.487  -0.293  0.00  0.00    +0.000 A 
ATOM     15  C   UNL     1       4.348  -3.792   1.043  0.00  0.00    +0.000 A 
ATOM     16  C   UNL     1       3.951  -2.905   2.042  0.00  0.00    +0.000 A 
ATOM     17  C   UNL     1       3.323  -1.704   1.704  0.00  0.00    +0.000 A 
ENDBRANCH  11  12
ENDBRANCH   1  11
TORSDOF 4
