REMARK  Name = 
REMARK  8 active torsions:
REMARK  status: ('A' for Active; 'I' for Inactive)
REMARK    1  A    between atoms: C_1  and  C_2
REMARK    2  A    between atoms: C_2  and  N_3
REMARK    3  A    between atoms: N_3  and  C_4
REMARK    4  A    between atoms: C_4  and  C_5
REMARK    5  A    between atoms: C_8  and  O_9
REMARK    6  A    between atoms: O_9  and  C_10
REMARK    7  A    between atoms: C_10  and  C_11
REMARK    8  A    between atoms: C_14  and  C_15
REMARK                            x       y       z     vdW  Elec       q    Type
REMARK                         _______ _______ _______ _____ _____    ______ ____
ROOT
ATOM      1  O   UNL     1       5.918   5.339   4.395  0.00  0.00    +0.000 OA
ENDROOT
BRANCH   1   5
ATOM      2  C   UNL     1       4.937   2.272   1.831  0.00  0.00    +0.000 A 
ATOM      3  C   UNL     1       4.585   3.584   1.513  0.00  0.00    +0.000 A 
ATOM      4  C   UNL     1       4.960   4.612   2.377  0.00  0.00    +0.000 A 
ATOM      5  C   UNL     1       5.657   4.305   3.539  0.00  0.00    +0.000 A 
ATOM      6  C   UNL     1       6.019   2.978   3.742  0.00  0.00    +0.000 A 
ATOM      7  N   UNL     1       5.666   1.960   2.930  0.00  0.00    +0.000 NA
BRANCH   2   8
ATOM      8  C   UNL     1       4.551   1.122   0.926  0.00  0.00    +0.000 C 
BRANCH   8   9
ATOM      9  N   UNL     1       5.054   1.242  -0.451  0.00  0.00    +0.000 NA
ATOM     10  H   UNL     1       4.720   0.435  -0.978  0.00  0.00    +0.000 HD
BRANCH   9  12
ATOM     11  C   UNL     1       6.985   1.389  -1.924  0.00  0.00    +0.000 C 
ATOM     12  C   UNL     1       6.519   1.252  -0.484  0.00  0.00    +0.000 C 
ENDBRANCH   9  12
ENDBRANCH   8   9
ENDBRANCH   2   8
ENDBRANCH   1   5
BRANCH   1  13
ATOM     13  C   UNL     1       6.128   4.930   5.750  0.00  0.00    +0.000 C 
BRANCH  13  14
ATOM     14  C   UNL     1       5.811   6.056   6.688  0.00  0.00    +0.000 A 
ATOM     15  C   UNL     1       4.561   6.688   6.658  0.00  0.00    +0.000 A 
ATOM     16  C   UNL     1       4.254   7.651   7.611  0.00  0.00    +0.000 A 
ATOM     17  C   UNL     1       5.214   7.952   8.568  0.00  0.00    +0.000 A 
ATOM     18  N   UNL     1       6.444   7.367   8.626  0.00  0.00    +0.000 NA
ATOM     19  C   UNL     1       6.706   6.435   7.684  0.00  0.00    +0.000 A 
BRANCH  17  20
ATOM     20  C   UNL     1       4.901   8.957   9.632  0.00  0.00    +0.000 C 
ATOM     21  N   UNL     1       5.902   9.178  10.542  0.00  0.00    +0.000 N 
ATOM     22  O   UNL     1       3.829   9.542   9.697  0.00  0.00    +0.000 OA
ATOM     23  H   UNL     1       6.772   8.667  10.456  0.00  0.00    +0.000 HD
ATOM     24  H   UNL     1       5.756   9.835  11.293  0.00  0.00    +0.000 HD
ENDBRANCH  17  20
ENDBRANCH  13  14
ENDBRANCH   1  13
TORSDOF 7
