REMARK  Name = 
REMARK  7 active torsions:
REMARK  status: ('A' for Active; 'I' for Inactive)
REMARK    1  A    between atoms: C_1  and  O_2
REMARK    2  A    between atoms: O_2  and  C_3
REMARK    3  A    between atoms: C_5  and  C_6
REMARK    4  A    between atoms: C_11  and  O_12
REMARK    5  A    between atoms: O_12  and  C_13
REMARK    6  A    between atoms: C_13  and  C_14
REMARK    7  A    between atoms: C_18  and  C_19
REMARK                            x       y       z     vdW  Elec       q    Type
REMARK                         _______ _______ _______ _____ _____    ______ ____
ROOT
ATOM      1  O   UNL     1       4.675   1.450  -0.914  0.00  0.00    +0.000 OA
ENDROOT
BRANCH   1   7
ATOM      2  C   UNL     1       3.022   0.681   0.803  0.00  0.00    +0.000 A 
ATOM      3  C   UNL     1       2.760   0.596   2.178  0.00  0.00    +0.000 A 
ATOM      4  C   UNL     1       3.682   1.056   3.133  0.00  0.00    +0.000 A 
ATOM      5  C   UNL     1       4.887   1.609   2.701  0.00  0.00    +0.000 A 
ATOM      6  C   UNL     1       5.153   1.710   1.332  0.00  0.00    +0.000 A 
ATOM      7  C   UNL     1       4.234   1.256   0.373  0.00  0.00    +0.000 A 
BRANCH   4   8
ATOM      8  C   UNL     1       3.309   0.903   4.570  0.00  0.00    +0.000 C 
ATOM      9  N   UNL     1       4.196   1.301   5.529  0.00  0.00    +0.000 N 
ATOM     10  O   UNL     1       2.228   0.428   4.900  0.00  0.00    +0.000 OA
ATOM     11  H   UNL     1       5.114   1.676   5.360  0.00  0.00    +0.000 HD
ATOM     12  H   UNL     1       3.909   1.166   6.491  0.00  0.00    +0.000 HD
ENDBRANCH   4   8
BRANCH   2  14
ATOM     13  C   UNL     1       0.799   0.025   0.208  0.00  0.00    +0.000 C 
ATOM     14  O   UNL     1       2.171   0.167  -0.136  0.00  0.00    +0.000 OA
ENDBRANCH   2  14
ENDBRANCH   1   7
BRANCH   1  15
ATOM     15  C   UNL     1       3.791   1.107  -1.980  0.00  0.00    +0.000 C 
BRANCH  15  16
ATOM     16  C   UNL     1       4.386   1.442  -3.323  0.00  0.00    +0.000 A 
ATOM     17  C   UNL     1       4.023   0.693  -4.437  0.00  0.00    +0.000 A 
ATOM     18  N   UNL     1       4.449   0.947  -5.690  0.00  0.00    +0.000 NA
ATOM     19  C   UNL     1       5.280   2.006  -5.842  0.00  0.00    +0.000 A 
ATOM     20  C   UNL     1       5.724   2.840  -4.813  0.00  0.00    +0.000 A 
ATOM     21  C   UNL     1       5.237   2.533  -3.531  0.00  0.00    +0.000 A 
BRANCH  20  22
ATOM     22  C   UNL     1       6.660   3.960  -5.050  0.00  0.00    +0.000 A 
ATOM     23  C   UNL     1       6.589   5.151  -4.301  0.00  0.00    +0.000 A 
ATOM     24  C   UNL     1       7.503   6.195  -4.492  0.00  0.00    +0.000 A 
ATOM     25  C   UNL     1       8.504   6.074  -5.450  0.00  0.00    +0.000 A 
ATOM     26  C   UNL     1       8.577   4.915  -6.209  0.00  0.00    +0.000 A 
ATOM     27  F   UNL     1       9.536   4.793  -7.136  0.00  0.00    +0.000 F 
ATOM     28  C   UNL     1       7.676   3.869  -6.018  0.00  0.00    +0.000 A 
ENDBRANCH  20  22
ENDBRANCH  15  16
ENDBRANCH   1  15
TORSDOF 6
