REMARK  Name = 
REMARK  8 active torsions:
REMARK  status: ('A' for Active; 'I' for Inactive)
REMARK    1  A    between atoms: C_1  and  C_2
REMARK    2  A    between atoms: C_2  and  C_3
REMARK    3  A    between atoms: C_2  and  C_4
REMARK    4  A    between atoms: C_2  and  C_18
REMARK    5  A    between atoms: C_5  and  C_6
REMARK    6  A    between atoms: C_11  and  O_12
REMARK    7  A    between atoms: O_12  and  C_13
REMARK    8  A    between atoms: C_21  and  C_22
REMARK                            x       y       z     vdW  Elec       q    Type
REMARK                         _______ _______ _______ _____ _____    ______ ____
ROOT
ATOM      1  C   UNL     1       3.032   1.537  -0.017  0.00  0.00    +0.000 C 
ATOM      2  C   UNL     1       2.711   2.419  -0.978  0.00  0.00    +0.000 C 
ENDROOT
BRANCH   2   3
ATOM      3  C   UNL     1       3.233   3.782  -0.973  0.00  0.00    +0.000 A 
ATOM      4  C   UNL     1       4.456   4.045  -1.599  0.00  0.00    +0.000 A 
ATOM      5  C   UNL     1       4.966   5.339  -1.606  0.00  0.00    +0.000 A 
ATOM      6  C   UNL     1       4.263   6.362  -0.978  0.00  0.00    +0.000 A 
ATOM      7  F   UNL     1       4.797   7.590  -1.024  0.00  0.00    +0.000 F 
ATOM      8  C   UNL     1       3.050   6.114  -0.330  0.00  0.00    +0.000 A 
ATOM      9  C   UNL     1       2.529   4.816  -0.342  0.00  0.00    +0.000 A 
BRANCH   8  10
ATOM     10  O   UNL     1       2.294   7.061   0.328  0.00  0.00    +0.000 OA
BRANCH  10  11
ATOM     11  C   UNL     1       3.001   8.204   0.868  0.00  0.00    +0.000 C 
ATOM     12  C   UNL     1       3.941   7.937   2.067  0.00  0.00    +0.000 C 
ATOM     13  N   UNL     1       3.502   9.220   2.664  0.00  0.00    +0.000 NA
ATOM     14  C   UNL     1       2.250   9.109   1.868  0.00  0.00    +0.000 C 
ATOM     15  H   UNL     1       4.092  10.005   2.380  0.00  0.00    +0.000 HD
ENDBRANCH  10  11
ENDBRANCH   8  10
ENDBRANCH   2   3
BRANCH   1  17
ATOM     16  C   UNL     1       1.011   0.042   0.100  0.00  0.00    +0.000 C 
ATOM     17  C   UNL     1       2.551   0.083   0.042  0.00  0.00    +0.000 C 
ATOM     18  C   UNL     1       3.020  -0.654  -1.233  0.00  0.00    +0.000 C 
BRANCH  17  19
ATOM     19  C   UNL     1       3.095  -0.621   1.302  0.00  0.00    +0.000 A 
ATOM     20  N   UNL     1       3.844  -1.736   1.157  0.00  0.00    +0.000 NA
ATOM     21  C   UNL     1       4.344  -2.296   2.284  0.00  0.00    +0.000 A 
ATOM     22  C   UNL     1       4.140  -1.783   3.541  0.00  0.00    +0.000 A 
ATOM     23  C   UNL     1       3.340  -0.667   3.597  0.00  0.00    +0.000 A 
ATOM     24  N   UNL     1       2.814  -0.067   2.504  0.00  0.00    +0.000 NA
BRANCH  22  25
ATOM     25  C   UNL     1       4.751  -2.420   4.716  0.00  0.00    +0.000 C 
ATOM     26  N   UNL     1       4.966  -1.643   5.822  0.00  0.00    +0.000 N 
ATOM     27  O   UNL     1       5.095  -3.593   4.693  0.00  0.00    +0.000 OA
ATOM     28  H   UNL     1       4.930  -0.633   5.811  0.00  0.00    +0.000 HD
ATOM     29  H   UNL     1       5.485  -2.074   6.577  0.00  0.00    +0.000 HD
ENDBRANCH  22  25
ENDBRANCH  17  19
ENDBRANCH   1  17
TORSDOF 6
