REMARK  Name = 
REMARK  5 active torsions:
REMARK  status: ('A' for Active; 'I' for Inactive)
REMARK    1  A    between atoms: N_1  and  C_2
REMARK    2  A    between atoms: C_2  and  C_3
REMARK    3  A    between atoms: C_3  and  C_4
REMARK    4  A    between atoms: C_8  and  C_9
REMARK    5  A    between atoms: C_9  and  N_10
REMARK                            x       y       z     vdW  Elec       q    Type
REMARK                         _______ _______ _______ _____ _____    ______ ____
ROOT
ATOM      1  C   UNL     1       4.472  -1.112  -0.578  0.00  0.00    +0.000 A 
ATOM      2  C   UNL     1       5.271  -2.264  -0.657  0.00  0.00    +0.000 A 
ATOM      3  C   UNL     1       6.645  -2.174  -0.803  0.00  0.00    +0.000 A 
ATOM      4  C   UNL     1       7.259  -0.922  -0.851  0.00  0.00    +0.000 A 
ATOM      5  C   UNL     1       6.498   0.252  -0.745  0.00  0.00    +0.000 A 
ATOM      6  C   UNL     1       5.107   0.145  -0.618  0.00  0.00    +0.000 A 
ENDROOT
BRANCH   1   7
ATOM      7  C   UNL     1       2.976  -1.220  -0.468  0.00  0.00    +0.000 C 
BRANCH   7   8
ATOM      8  C   UNL     1       2.494  -1.391   0.977  0.00  0.00    +0.000 C 
BRANCH   8   9
ATOM      9  N   UNL     1       1.033  -1.462   1.029  0.00  0.00    +0.000 NA
ATOM     10  H   UNL     1       0.732  -1.593   1.994  0.00  0.00    +0.000 HD
ATOM     11  H   UNL     1       0.710  -2.282   0.516  0.00  0.00    +0.000 HD
ENDBRANCH   8   9
ENDBRANCH   7   8
ENDBRANCH   1   7
BRANCH   5  12
ATOM     12  C   UNL     1       7.163   1.608  -0.735  0.00  0.00    +0.000 C 
BRANCH  12  13
ATOM     13  N   UNL     1       7.167   2.255  -2.044  0.00  0.00    +0.000 N 
ATOM     14  C   UNL     1       7.894   1.803  -3.124  0.00  0.00    +0.000 A 
ATOM     15  C   UNL     1       7.727   2.701  -4.152  0.00  0.00    +0.000 A 
ATOM     16  C   UNL     1       7.251   3.892  -3.554  0.00  0.00    +0.000 A 
ATOM     17  C   UNL     1       7.243   5.242  -3.955  0.00  0.00    +0.000 A 
ATOM     18  C   UNL     1       6.680   6.182  -3.094  0.00  0.00    +0.000 A 
ATOM     19  F   UNL     1       6.798   7.485  -3.389  0.00  0.00    +0.000 F 
ATOM     20  C   UNL     1       6.030   5.805  -1.929  0.00  0.00    +0.000 A 
ATOM     21  C   UNL     1       6.008   4.463  -1.522  0.00  0.00    +0.000 A 
ATOM     22  C   UNL     1       6.733   3.546  -2.301  0.00  0.00    +0.000 A 
ENDBRANCH  12  13
ENDBRANCH   5  12
TORSDOF 5
