REMARK  Name = 
REMARK  7 active torsions:
REMARK  status: ('A' for Active; 'I' for Inactive)
REMARK    1  A    between atoms: C_1  and  C_2
REMARK    2  A    between atoms: C_2  and  C_3
REMARK    3  A    between atoms: C_2  and  O_4
REMARK    4  A    between atoms: C_2  and  C_15
REMARK    5  A    between atoms: O_4  and  C_5
REMARK    6  A    between atoms: C_8  and  C_9
REMARK    7  A    between atoms: C_12  and  O_13
REMARK                            x       y       z     vdW  Elec       q    Type
REMARK                         _______ _______ _______ _____ _____    ______ ____
ROOT
ATOM      1  C   UNL     1       3.999  -0.815   1.742  0.00  0.00    +0.000 A 
ATOM      2  C   UNL     1       5.176  -0.121   1.494  0.00  0.00    +0.000 A 
ATOM      3  C   UNL     1       6.199  -0.105   2.464  0.00  0.00    +0.000 A 
ATOM      4  C   UNL     1       6.070  -0.797   3.679  0.00  0.00    +0.000 A 
ATOM      5  C   UNL     1       4.903  -1.533   3.900  0.00  0.00    +0.000 A 
ATOM      6  C   UNL     1       3.892  -1.551   2.932  0.00  0.00    +0.000 A 
ENDROOT
BRANCH   4   7
ATOM      7  C   UNL     1       7.166  -0.644   4.670  0.00  0.00    +0.000 C 
ATOM      8  N   UNL     1       7.421  -1.687   5.528  0.00  0.00    +0.000 N 
ATOM      9  O   UNL     1       7.846   0.370   4.722  0.00  0.00    +0.000 OA
ATOM     10  H   UNL     1       7.177  -2.637   5.253  0.00  0.00    +0.000 HD
ATOM     11  H   UNL     1       8.271  -1.584   6.072  0.00  0.00    +0.000 HD
ENDBRANCH   4   7
BRANCH   5  12
ATOM     12  O   UNL     1       4.646  -2.221   5.055  0.00  0.00    +0.000 OA
ATOM     13  H   UNL     1       5.186  -1.834   5.770  0.00  0.00    +0.000 HD
ENDBRANCH   5  12
BRANCH   1  14
ATOM     14  O   UNL     1       2.920  -0.914   0.923  0.00  0.00    +0.000 OA
BRANCH  14  16
ATOM     15  C   UNL     1       0.926  -0.167  -0.035  0.00  0.00    +0.000 C 
ATOM     16  C   UNL     1       2.461   0.056  -0.048  0.00  0.00    +0.000 C 
ATOM     17  C   UNL     1       2.661   1.529   0.368  0.00  0.00    +0.000 C 
BRANCH  16  18
ATOM     18  C   UNL     1       3.059  -0.250  -1.470  0.00  0.00    +0.000 C 
ATOM     19  C   UNL     1       2.455   0.626  -2.595  0.00  0.00    +0.000 C 
ATOM     20  C   UNL     1       3.011   0.294  -3.979  0.00  0.00    +0.000 C 
ATOM     21  C   UNL     1       2.850  -1.184  -4.305  0.00  0.00    +0.000 C 
ATOM     22  C   UNL     1       3.508  -2.047  -3.238  0.00  0.00    +0.000 C 
ATOM     23  C   UNL     1       2.949  -1.746  -1.848  0.00  0.00    +0.000 C 
ENDBRANCH  16  18
ENDBRANCH  14  16
ENDBRANCH   1  14
TORSDOF 5
