REMARK  Name = 
REMARK  3 active torsions:
REMARK  status: ('A' for Active; 'I' for Inactive)
REMARK    1  A    between atoms: C_2  and  C_4
REMARK    2  A    between atoms: N_8  and  C_9
REMARK    3  A    between atoms: C_9  and  C_10
REMARK                            x       y       z     vdW  Elec       q    Type
REMARK                         _______ _______ _______ _____ _____    ______ ____
ROOT
ATOM      1  C   UNL     1       8.246   2.698  -1.011  0.00  0.00    +0.000 A 
ATOM      2  C   UNL     1       8.414   3.485  -2.145  0.00  0.00    +0.000 A 
ATOM      3  C   UNL     1       7.402   3.515  -3.104  0.00  0.00    +0.000 A 
ATOM      4  C   UNL     1       6.243   2.767  -2.925  0.00  0.00    +0.000 A 
ATOM      5  N   UNL     1       5.201   2.749  -3.857  0.00  0.00    +0.000 N 
ATOM      6  N   UNL     1       6.078   1.986  -1.836  0.00  0.00    +0.000 NA
ATOM      7  C   UNL     1       7.079   1.958  -0.912  0.00  0.00    +0.000 A 
ATOM      8  H   UNL     1       4.430   2.215  -3.464  0.00  0.00    +0.000 HD
ENDROOT
BRANCH   1  10
ATOM      9  N   UNL     1      10.101   3.678   0.216  0.00  0.00    +0.000 N 
ATOM     10  C   UNL     1       9.260   2.609   0.058  0.00  0.00    +0.000 C 
ATOM     11  O   UNL     1       9.325   1.639   0.798  0.00  0.00    +0.000 OA
ATOM     12  H   UNL     1      10.723   3.647   1.013  0.00  0.00    +0.000 HD
ATOM     13  H   UNL     1       9.923   4.582  -0.200  0.00  0.00    +0.000 HD
ENDBRANCH   1  10
BRANCH   5  14
ATOM     14  C   UNL     1       4.941   3.809  -4.840  0.00  0.00    +0.000 C 
ATOM     15  C   UNL     1       4.676   5.226  -4.361  0.00  0.00    +0.000 C 
ATOM     16  C   UNL     1       3.540   4.409  -4.881  0.00  0.00    +0.000 C 
BRANCH  14  17
ATOM     17  C   UNL     1       5.598   3.594  -6.204  0.00  0.00    +0.000 A 
ATOM     18  C   UNL     1       5.092   2.662  -7.120  0.00  0.00    +0.000 A 
ATOM     19  C   UNL     1       5.684   2.538  -8.370  0.00  0.00    +0.000 A 
ATOM     20  N   UNL     1       6.754   3.253  -8.769  0.00  0.00    +0.000 NA
ATOM     21  C   UNL     1       7.247   4.128  -7.875  0.00  0.00    +0.000 A 
ATOM     22  F   UNL     1       8.312   4.856  -8.237  0.00  0.00    +0.000 F 
ATOM     23  C   UNL     1       6.714   4.332  -6.615  0.00  0.00    +0.000 A 
ENDBRANCH  14  17
ENDBRANCH   5  14
TORSDOF 3
