REMARK  Name = 
REMARK  7 active torsions:
REMARK  status: ('A' for Active; 'I' for Inactive)
REMARK    1  A    between atoms: C_2  and  C_3
REMARK    2  A    between atoms: C_3  and  N_4
REMARK    3  A    between atoms: C_3  and  C_21
REMARK    4  A    between atoms: C_5  and  C_7
REMARK    5  A    between atoms: C_10  and  C_11
REMARK    6  A    between atoms: C_11  and  N_12
REMARK    7  A    between atoms: C_13  and  C_15
REMARK                            x       y       z     vdW  Elec       q    Type
REMARK                         _______ _______ _______ _____ _____    ______ ____
ROOT
ATOM      1  N   UNL     1       3.973  -1.248  -0.888  0.00  0.00    +0.000 N 
ATOM      2  C   UNL     1       3.937  -2.486  -0.268  0.00  0.00    +0.000 C 
ATOM      3  O   UNL     1       3.617  -2.607   0.915  0.00  0.00    +0.000 OA
ATOM      4  H   UNL     1       4.126  -1.185  -1.883  0.00  0.00    +0.000 HD
ENDROOT
BRANCH   2   5
ATOM      5  C   UNL     1       4.366  -3.687  -1.112  0.00  0.00    +0.000 C 
ATOM      6  C   UNL     1       3.538  -3.901  -2.373  0.00  0.00    +0.000 C 
ATOM      7  C   UNL     1       3.700  -5.384  -2.732  0.00  0.00    +0.000 C 
ATOM      8  C   UNL     1       4.231  -6.097  -1.473  0.00  0.00    +0.000 C 
ATOM      9  C   UNL     1       4.175  -5.022  -0.380  0.00  0.00    +0.000 C 
BRANCH   8  10
ATOM     10  C   UNL     1       5.652  -6.653  -1.674  0.00  0.00    +0.000 C 
BRANCH  10  11
ATOM     11  N   UNL     1       6.159  -7.342  -0.505  0.00  0.00    +0.000 N 
ATOM     12  C   UNL     1       7.414  -7.907  -0.503  0.00  0.00    +0.000 C 
ATOM     13  O   UNL     1       8.148  -7.889  -1.484  0.00  0.00    +0.000 OA
ATOM     14  H   UNL     1       5.665  -7.259   0.372  0.00  0.00    +0.000 HD
BRANCH  12  15
ATOM     15  C   UNL     1       7.807  -8.525   0.738  0.00  0.00    +0.000 A 
ATOM     16  C   UNL     1       7.188  -8.667   1.965  0.00  0.00    +0.000 A 
ATOM     17  C   UNL     1       8.096  -9.394   2.756  0.00  0.00    +0.000 A 
ATOM     18  N   UNL     1       9.216  -9.691   2.097  0.00  0.00    +0.000 NA
ATOM     19  N   UNL     1       9.013  -9.163   0.876  0.00  0.00    +0.000 N 
ATOM     20  H   UNL     1       9.726  -9.281   0.163  0.00  0.00    +0.000 HD
ENDBRANCH  12  15
ENDBRANCH  10  11
ENDBRANCH   8  10
ENDBRANCH   2   5
BRANCH   1  21
ATOM     21  C   UNL     1       3.586  -0.048  -0.129  0.00  0.00    +0.000 C 
BRANCH  21  22
ATOM     22  C   UNL     1       3.745   1.205  -0.968  0.00  0.00    +0.000 A 
ATOM     23  C   UNL     1       2.765   1.818  -1.741  0.00  0.00    +0.000 A 
ATOM     24  S   UNL     1       3.261   3.324  -2.396  0.00  0.00    +0.000 S 
ATOM     25  C   UNL     1       4.801   3.192  -1.686  0.00  0.00    +0.000 A 
ATOM     26  N   UNL     1       5.734   4.176  -1.810  0.00  0.00    +0.000 NA
ATOM     27  C   UNL     1       6.831   3.947  -1.167  0.00  0.00    +0.000 A 
ATOM     28  N   UNL     1       7.097   2.814  -0.438  0.00  0.00    +0.000 N 
ATOM     29  C   UNL     1       6.231   1.751  -0.385  0.00  0.00    +0.000 A 
ATOM     30  O   UNL     1       6.542   0.673   0.113  0.00  0.00    +0.000 OA
ATOM     31  C   UNL     1       4.946   2.002  -0.999  0.00  0.00    +0.000 A 
ATOM     32  H   UNL     1       7.996   2.679  -0.002  0.00  0.00    +0.000 HD
ENDBRANCH  21  22
BRANCH  21  34
ATOM     33  N   UNL     1       0.944  -0.305   0.701  0.00  0.00    +0.000 NA
ATOM     34  C   UNL     1       2.142  -0.188   0.325  0.00  0.00    +0.000 C 
ENDBRANCH  21  34
ENDBRANCH   1  21
TORSDOF 7
