REMARK  Name = 
REMARK  7 active torsions:
REMARK  status: ('A' for Active; 'I' for Inactive)
REMARK    1  A    between atoms: C_1  and  C_2
REMARK    2  A    between atoms: C_2  and  N_3
REMARK    3  A    between atoms: C_2  and  C_12
REMARK    4  A    between atoms: C_4  and  C_6
REMARK    5  A    between atoms: C_15  and  C_16
REMARK    6  A    between atoms: C_16  and  N_17
REMARK    7  A    between atoms: C_18  and  C_20
REMARK                            x       y       z     vdW  Elec       q    Type
REMARK                         _______ _______ _______ _____ _____    ______ ____
ROOT
ATOM      1  C   UNL     1       2.843  -1.135   0.790  0.00  0.00    +0.000 A 
ATOM      2  C   UNL     1       3.574  -0.976   1.972  0.00  0.00    +0.000 A 
ATOM      3  C   UNL     1       3.927  -2.092   2.734  0.00  0.00    +0.000 A 
ATOM      4  C   UNL     1       3.559  -3.360   2.287  0.00  0.00    +0.000 A 
ATOM      5  N   UNL     1       2.887  -3.544   1.124  0.00  0.00    +0.000 NA
ATOM      6  C   UNL     1       2.557  -2.441   0.410  0.00  0.00    +0.000 A 
ENDROOT
BRANCH   1   8
ATOM      7  C   UNL     1       3.459   0.467  -1.043  0.00  0.00    +0.000 C 
ATOM      8  C   UNL     1       2.395   0.061  -0.024  0.00  0.00    +0.000 C 
BRANCH   8   9
ATOM      9  N   UNL     1       1.127  -0.172  -0.700  0.00  0.00    +0.000 N 
ATOM     10  C   UNL     1      -0.100   0.021  -0.103  0.00  0.00    +0.000 C 
ATOM     11  O   UNL     1      -0.241   0.438   1.043  0.00  0.00    +0.000 OA
ATOM     12  H   UNL     1       1.102  -0.582  -1.629  0.00  0.00    +0.000 HD
BRANCH  10  13
ATOM     13  C   UNL     1      -1.302  -0.359  -0.998  0.00  0.00    +0.000 C 
ATOM     14  C   UNL     1      -1.721  -1.811  -0.748  0.00  0.00    +0.000 C 
ATOM     15  C   UNL     1      -2.863  -2.230  -1.675  0.00  0.00    +0.000 C 
ATOM     16  C   UNL     1      -2.528  -1.916  -3.130  0.00  0.00    +0.000 C 
ATOM     17  C   UNL     1      -2.082  -0.466  -3.293  0.00  0.00    +0.000 C 
ATOM     18  N   UNL     1      -0.938  -0.163  -2.429  0.00  0.00    +0.000 NA
ATOM     19  H   UNL     1      -0.690   0.821  -2.554  0.00  0.00    +0.000 HD
ENDBRANCH  10  13
ENDBRANCH   8   9
ENDBRANCH   1   8
BRANCH   4  20
ATOM     20  C   UNL     1       3.822  -4.584   3.137  0.00  0.00    +0.000 C 
BRANCH  20  21
ATOM     21  N   UNL     1       2.701  -4.860   4.012  0.00  0.00    +0.000 N 
ATOM     22  C   UNL     1       2.848  -5.450   5.240  0.00  0.00    +0.000 C 
ATOM     23  O   UNL     1       3.954  -5.730   5.698  0.00  0.00    +0.000 OA
ATOM     24  H   UNL     1       1.788  -4.862   3.562  0.00  0.00    +0.000 HD
BRANCH  22  25
ATOM     25  C   UNL     1       1.623  -5.665   6.020  0.00  0.00    +0.000 A 
ATOM     26  C   UNL     1       1.692  -5.734   7.404  0.00  0.00    +0.000 A 
ATOM     27  S   UNL     1       0.180  -5.973   8.157  0.00  0.00    +0.000 S 
ATOM     28  C   UNL     1      -0.618  -6.036   6.656  0.00  0.00    +0.000 A 
ATOM     29  N   UNL     1      -1.959  -6.262   6.582  0.00  0.00    +0.000 NA
ATOM     30  C   UNL     1      -2.427  -6.310   5.382  0.00  0.00    +0.000 A 
ATOM     31  N   UNL     1      -1.678  -6.144   4.245  0.00  0.00    +0.000 N 
ATOM     32  C   UNL     1      -0.329  -5.875   4.272  0.00  0.00    +0.000 A 
ATOM     33  O   UNL     1       0.296  -5.670   3.239  0.00  0.00    +0.000 OA
ATOM     34  C   UNL     1       0.253  -5.843   5.597  0.00  0.00    +0.000 A 
ATOM     35  H   UNL     1      -2.109  -6.171   3.333  0.00  0.00    +0.000 HD
ENDBRANCH  22  25
ENDBRANCH  20  21
ENDBRANCH   4  20
TORSDOF 6
