REMARK  Name = 
REMARK  7 active torsions:
REMARK  status: ('A' for Active; 'I' for Inactive)
REMARK    1  A    between atoms: N_1  and  C_2
REMARK    2  A    between atoms: C_2  and  C_3
REMARK    3  A    between atoms: C_3  and  N_4
REMARK    4  A    between atoms: C_3  and  C_17
REMARK    5  A    between atoms: C_5  and  C_7
REMARK    6  A    between atoms: C_20  and  C_21
REMARK    7  A    between atoms: C_21  and  N_22
REMARK                            x       y       z     vdW  Elec       q    Type
REMARK                         _______ _______ _______ _____ _____    ______ ____
ROOT
ATOM      1  C   UNL     1       2.949   1.066   0.708  0.00  0.00    +0.000 C 
ENDROOT
BRANCH   1   2
ATOM      2  C   UNL     1       4.466   1.136   0.790  0.00  0.00    +0.000 A 
ATOM      3  C   UNL     1       5.231   0.148   1.424  0.00  0.00    +0.000 A 
ATOM      4  C   UNL     1       6.620   0.260   1.475  0.00  0.00    +0.000 A 
ATOM      5  C   UNL     1       7.229   1.360   0.877  0.00  0.00    +0.000 A 
ATOM      6  N   UNL     1       6.507   2.335   0.265  0.00  0.00    +0.000 NA
ATOM      7  C   UNL     1       5.159   2.209   0.245  0.00  0.00    +0.000 A 
BRANCH   5   8
ATOM      8  C   UNL     1       8.743   1.484   0.851  0.00  0.00    +0.000 C 
BRANCH   8   9
ATOM      9  N   UNL     1       9.258   2.191   2.011  0.00  0.00    +0.000 N 
ATOM     10  C   UNL     1      10.614   2.428   2.140  0.00  0.00    +0.000 A 
ATOM     11  C   UNL     1      11.462   2.635   1.054  0.00  0.00    +0.000 A 
ATOM     12  C   UNL     1      12.809   2.923   1.270  0.00  0.00    +0.000 A 
ATOM     13  C   UNL     1      13.277   3.025   2.570  0.00  0.00    +0.000 A 
ATOM     14  C   UNL     1      12.373   2.822   3.595  0.00  0.00    +0.000 A 
ATOM     15  N   UNL     1      11.068   2.516   3.406  0.00  0.00    +0.000 NA
ATOM     16  H   UNL     1       8.875   1.934   2.914  0.00  0.00    +0.000 HD
ENDBRANCH   8   9
ENDBRANCH   5   8
ENDBRANCH   1   2
BRANCH   1  17
ATOM     17  N   UNL     1       2.415   1.132   2.064  0.00  0.00    +0.000 N 
ATOM     18  C   UNL     1       1.073   1.222   2.338  0.00  0.00    +0.000 C 
ATOM     19  O   UNL     1       0.209   1.110   1.478  0.00  0.00    +0.000 OA
ATOM     20  H   UNL     1       3.056   1.496   2.763  0.00  0.00    +0.000 HD
BRANCH  18  21
ATOM     21  C   UNL     1       0.717   1.405   3.751  0.00  0.00    +0.000 A 
ATOM     22  C   UNL     1      -0.484   0.915   4.234  0.00  0.00    +0.000 A 
ATOM     23  S   UNL     1      -0.729   1.230   5.893  0.00  0.00    +0.000 S 
ATOM     24  C   UNL     1       0.744   2.076   6.006  0.00  0.00    +0.000 A 
ATOM     25  N   UNL     1       1.130   2.666   7.172  0.00  0.00    +0.000 NA
ATOM     26  C   UNL     1       2.252   3.304   7.100  0.00  0.00    +0.000 A 
ATOM     27  N   UNL     1       3.031   3.392   5.974  0.00  0.00    +0.000 N 
ATOM     28  C   UNL     1       2.710   2.765   4.796  0.00  0.00    +0.000 A 
ATOM     29  O   UNL     1       3.472   2.771   3.838  0.00  0.00    +0.000 OA
ATOM     30  C   UNL     1       1.433   2.076   4.808  0.00  0.00    +0.000 A 
ATOM     31  H   UNL     1       3.914   3.881   5.998  0.00  0.00    +0.000 HD
ENDBRANCH  18  21
ENDBRANCH   1  17
BRANCH   1  32
ATOM     32  C   UNL     1       2.475  -0.207  -0.060  0.00  0.00    +0.000 C 
BRANCH  32  33
ATOM     33  N   UNL     1       2.995  -0.322  -1.430  0.00  0.00    +0.000 NA
ATOM     34  H   UNL     1       2.784  -1.256  -1.782  0.00  0.00    +0.000 HD
ATOM     35  H   UNL     1       4.011  -0.241  -1.426  0.00  0.00    +0.000 HD
ENDBRANCH  32  33
ENDBRANCH   1  32
TORSDOF 7
