REMARK  Name = 
REMARK  9 active torsions:
REMARK  status: ('A' for Active; 'I' for Inactive)
REMARK    1  A    between atoms: C_1  and  C_2
REMARK    2  A    between atoms: C_2  and  N_3
REMARK    3  A    between atoms: N_3  and  C_4
REMARK    4  A    between atoms: N_3  and  C_11
REMARK    5  A    between atoms: C_4  and  C_5
REMARK    6  A    between atoms: C_11  and  C_12
REMARK    7  A    between atoms: C_15  and  C_16
REMARK    8  A    between atoms: C_16  and  N_17
REMARK    9  A    between atoms: C_18  and  C_20
REMARK                            x       y       z     vdW  Elec       q    Type
REMARK                         _______ _______ _______ _____ _____    ______ ____
ROOT
ATOM      1  C   UNL     1       5.074   0.550  -2.682  0.00  0.00    +0.000 A 
ATOM      2  C   UNL     1       5.172   1.876  -3.111  0.00  0.00    +0.000 A 
ATOM      3  C   UNL     1       5.615   2.153  -4.401  0.00  0.00    +0.000 A 
ATOM      4  C   UNL     1       5.978   1.095  -5.230  0.00  0.00    +0.000 A 
ATOM      5  N   UNL     1       5.914  -0.201  -4.829  0.00  0.00    +0.000 NA
ATOM      6  C   UNL     1       5.467  -0.440  -3.575  0.00  0.00    +0.000 A 
ENDROOT
BRANCH   1   7
ATOM      7  C   UNL     1       4.513   0.202  -1.324  0.00  0.00    +0.000 C 
BRANCH   7   8
ATOM      8  N   UNL     1       3.114   0.665  -1.128  0.00  0.00    +0.000 NA
BRANCH   8  10
ATOM      9  C   UNL     1       0.772   0.433  -2.104  0.00  0.00    +0.000 C 
ATOM     10  C   UNL     1       2.235   0.007  -2.123  0.00  0.00    +0.000 C 
ENDBRANCH   8  10
BRANCH   8  11
ATOM     11  C   UNL     1       2.663   0.392   0.256  0.00  0.00    +0.000 C 
BRANCH  11  12
ATOM     12  C   UNL     1       3.512   1.055   1.323  0.00  0.00    +0.000 A 
ATOM     13  C   UNL     1       3.635   2.447   1.387  0.00  0.00    +0.000 A 
ATOM     14  C   UNL     1       4.481   2.998   2.338  0.00  0.00    +0.000 A 
ATOM     15  N   UNL     1       5.196   2.269   3.223  0.00  0.00    +0.000 NA
ATOM     16  C   UNL     1       5.047   0.930   3.161  0.00  0.00    +0.000 A 
ATOM     17  C   UNL     1       4.222   0.286   2.251  0.00  0.00    +0.000 A 
ENDBRANCH  11  12
ENDBRANCH   8  11
ENDBRANCH   7   8
ENDBRANCH   1   7
BRANCH   4  18
ATOM     18  C   UNL     1       6.433   1.361  -6.644  0.00  0.00    +0.000 C 
BRANCH  18  19
ATOM     19  N   UNL     1       5.337   1.338  -7.591  0.00  0.00    +0.000 N 
ATOM     20  C   UNL     1       4.723   2.477  -8.037  0.00  0.00    +0.000 C 
ATOM     21  O   UNL     1       5.052   3.592  -7.642  0.00  0.00    +0.000 OA
ATOM     22  H   UNL     1       4.903   0.432  -7.741  0.00  0.00    +0.000 HD
BRANCH  20  23
ATOM     23  C   UNL     1       3.694   2.306  -9.072  0.00  0.00    +0.000 A 
ATOM     24  C   UNL     1       3.384   3.368  -9.910  0.00  0.00    +0.000 A 
ATOM     25  S   UNL     1       2.208   2.993 -11.088  0.00  0.00    +0.000 S 
ATOM     26  C   UNL     1       2.034   1.411 -10.489  0.00  0.00    +0.000 A 
ATOM     27  N   UNL     1       1.141   0.548 -11.044  0.00  0.00    +0.000 NA
ATOM     28  C   UNL     1       1.087  -0.609 -10.470  0.00  0.00    +0.000 A 
ATOM     29  N   UNL     1       1.855  -0.980  -9.397  0.00  0.00    +0.000 N 
ATOM     30  C   UNL     1       2.806  -0.163  -8.838  0.00  0.00    +0.000 A 
ATOM     31  O   UNL     1       3.535  -0.560  -7.936  0.00  0.00    +0.000 OA
ATOM     32  C   UNL     1       2.880   1.161  -9.424  0.00  0.00    +0.000 A 
ATOM     33  H   UNL     1       1.778  -1.908  -9.003  0.00  0.00    +0.000 HD
ENDBRANCH  20  23
ENDBRANCH  18  19
ENDBRANCH   4  18
TORSDOF 8
