REMARK  Name = 
REMARK  8 active torsions:
REMARK  status: ('A' for Active; 'I' for Inactive)
REMARK    1  A    between atoms: C_1  and  C_2
REMARK    2  A    between atoms: C_2  and  C_3
REMARK    3  A    between atoms: C_2  and  C_18
REMARK    4  A    between atoms: C_3  and  O_4
REMARK    5  A    between atoms: O_4  and  C_5
REMARK    6  A    between atoms: C_8  and  C_9
REMARK    7  A    between atoms: C_12  and  C_13
REMARK    8  A    between atoms: C_22  and  C_23
REMARK                            x       y       z     vdW  Elec       q    Type
REMARK                         _______ _______ _______ _____ _____    ______ ____
ROOT
ATOM      1  C   UNL     1       3.218   2.909  -2.312  0.00  0.00    +0.000 A 
ATOM      2  C   UNL     1       2.461   3.656  -3.200  0.00  0.00    +0.000 A 
ATOM      3  N   UNL     1       2.888   4.809  -3.773  0.00  0.00    +0.000 NA
ATOM      4  C   UNL     1       4.164   5.221  -3.490  0.00  0.00    +0.000 A 
ATOM      5  C   UNL     1       5.007   4.543  -2.626  0.00  0.00    +0.000 A 
ATOM      6  C   UNL     1       4.507   3.358  -2.047  0.00  0.00    +0.000 A 
ENDROOT
BRANCH   4   7
ATOM      7  C   UNL     1       4.566   6.473  -4.210  0.00  0.00    +0.000 C 
ATOM      8  N   UNL     1       3.565   7.390  -4.394  0.00  0.00    +0.000 N 
ATOM      9  O   UNL     1       5.695   6.665  -4.635  0.00  0.00    +0.000 OA
ATOM     10  H   UNL     1       2.601   7.114  -4.249  0.00  0.00    +0.000 HD
ATOM     11  H   UNL     1       3.769   8.209  -4.950  0.00  0.00    +0.000 HD
ENDBRANCH   4   7
BRANCH   5  12
ATOM     12  C   UNL     1       6.380   4.971  -2.213  0.00  0.00    +0.000 C 
ATOM     13  F   UNL     1       6.822   6.189  -2.595  0.00  0.00    +0.000 F 
ATOM     14  F   UNL     1       6.475   4.992  -0.847  0.00  0.00    +0.000 F 
ATOM     15  F   UNL     1       7.327   4.072  -2.610  0.00  0.00    +0.000 F 
ENDBRANCH   5  12
BRANCH   1  16
ATOM     16  O   UNL     1       2.668   1.778  -1.781  0.00  0.00    +0.000 OA
BRANCH  16  17
ATOM     17  C   UNL     1       3.117   1.464  -0.456  0.00  0.00    +0.000 C 
BRANCH  17  19
ATOM     18  C   UNL     1       2.694  -1.068  -0.572  0.00  0.00    +0.000 C 
ATOM     19  C   UNL     1       2.380   0.258   0.044  0.00  0.00    +0.000 C 
BRANCH  19  20
ATOM     20  C   UNL     1       1.175   0.414   0.866  0.00  0.00    +0.000 A 
ATOM     21  C   UNL     1       0.876  -0.482   1.901  0.00  0.00    +0.000 A 
ATOM     22  C   UNL     1      -0.278  -0.319   2.672  0.00  0.00    +0.000 A 
ATOM     23  C   UNL     1      -1.146   0.741   2.416  0.00  0.00    +0.000 A 
ATOM     24  C   UNL     1      -0.860   1.638   1.388  0.00  0.00    +0.000 A 
ATOM     25  C   UNL     1       0.295   1.474   0.618  0.00  0.00    +0.000 A 
BRANCH  24  26
ATOM     26  C   UNL     1      -1.745   2.729   1.112  0.00  0.00    +0.000 C 
ATOM     27  N   UNL     1      -2.454   3.621   0.882  0.00  0.00    +0.000 NA
ENDBRANCH  24  26
ENDBRANCH  19  20
ENDBRANCH  17  19
ENDBRANCH  16  17
ENDBRANCH   1  16
TORSDOF 7
