REMARK  Name = 
REMARK  4 active torsions:
REMARK  status: ('A' for Active; 'I' for Inactive)
REMARK    1  A    between atoms: N_1  and  C_2
REMARK    2  A    between atoms: C_2  and  C_3
REMARK    3  A    between atoms: C_8  and  C_9
REMARK    4  A    between atoms: C_9  and  N_10
REMARK                            x       y       z     vdW  Elec       q    Type
REMARK                         _______ _______ _______ _____ _____    ______ ____
ROOT
ATOM      1  C   UNL     1       3.077  -0.260   1.292  0.00  0.00    +0.000 A 
ATOM      2  C   UNL     1       3.480   0.474   2.430  0.00  0.00    +0.000 A 
ATOM      3  C   UNL     1       3.611  -0.129   3.671  0.00  0.00    +0.000 A 
ATOM      4  C   UNL     1       3.335  -1.473   3.753  0.00  0.00    +0.000 A 
ATOM      5  N   UNL     1       2.968  -2.219   2.693  0.00  0.00    +0.000 NA
ATOM      6  C   UNL     1       2.831  -1.631   1.460  0.00  0.00    +0.000 A 
ENDROOT
BRANCH   1   7
ATOM      7  C   UNL     1       2.886   0.531   0.027  0.00  0.00    +0.000 C 
BRANCH   7   8
ATOM      8  N   UNL     1       1.514   0.998  -0.085  0.00  0.00    +0.000 NA
ATOM      9  H   UNL     1       1.327   1.272  -1.048  0.00  0.00    +0.000 HD
ATOM     10  H   UNL     1       1.385   1.826   0.491  0.00  0.00    +0.000 HD
ENDBRANCH   7   8
ENDBRANCH   1   7
BRANCH   6  11
ATOM     11  C   UNL     1       2.395  -2.660   0.444  0.00  0.00    +0.000 C 
BRANCH  11  12
ATOM     12  N   UNL     1       2.274  -2.306  -0.964  0.00  0.00    +0.000 N 
ATOM     13  C   UNL     1       3.291  -2.432  -1.883  0.00  0.00    +0.000 A 
ATOM     14  C   UNL     1       2.763  -2.219  -3.135  0.00  0.00    +0.000 A 
ATOM     15  C   UNL     1       1.366  -2.001  -2.985  0.00  0.00    +0.000 A 
ATOM     16  C   UNL     1       0.311  -1.782  -3.893  0.00  0.00    +0.000 A 
ATOM     17  C   UNL     1      -0.991  -1.611  -3.410  0.00  0.00    +0.000 A 
ATOM     18  C   UNL     1      -1.247  -1.634  -2.043  0.00  0.00    +0.000 A 
ATOM     19  C   UNL     1      -0.218  -1.847  -1.123  0.00  0.00    +0.000 A 
ATOM     20  C   UNL     1       1.083  -2.043  -1.617  0.00  0.00    +0.000 A 
ENDBRANCH  11  12
ENDBRANCH   6  11
TORSDOF 4
