REMARK  Name = 
REMARK  5 active torsions:
REMARK  status: ('A' for Active; 'I' for Inactive)
REMARK    1  A    between atoms: C_2  and  C_3
REMARK    2  A    between atoms: C_8  and  N_9
REMARK    3  A    between atoms: N_9  and  C_10
REMARK    4  A    between atoms: C_10  and  C_11
REMARK    5  A    between atoms: C_15  and  C_16
REMARK                            x       y       z     vdW  Elec       q    Type
REMARK                         _______ _______ _______ _____ _____    ______ ____
ROOT
ATOM      1  C   UNL     1      -2.365   4.017  -0.152  0.00  0.00    +0.000 A 
ATOM      2  C   UNL     1      -1.489   5.092  -0.115  0.00  0.00    +0.000 A 
ATOM      3  N   UNL     1      -1.886   6.382  -0.116  0.00  0.00    +0.000 NA
ATOM      4  C   UNL     1      -3.223   6.612  -0.157  0.00  0.00    +0.000 A 
ATOM      5  C   UNL     1      -4.211   5.626  -0.192  0.00  0.00    +0.000 A 
ATOM      6  C   UNL     1      -3.737   4.304  -0.179  0.00  0.00    +0.000 A 
ENDROOT
BRANCH   5   7
ATOM      7  C   UNL     1      -5.657   5.939  -0.260  0.00  0.00    +0.000 A 
ATOM      8  C   UNL     1      -6.139   7.084  -0.926  0.00  0.00    +0.000 A 
ATOM      9  C   UNL     1      -7.509   7.367  -1.005  0.00  0.00    +0.000 A 
ATOM     10  C   UNL     1      -8.432   6.503  -0.427  0.00  0.00    +0.000 A 
ATOM     11  C   UNL     1      -7.977   5.371   0.230  0.00  0.00    +0.000 A 
ATOM     12  F   UNL     1      -8.859   4.529   0.785  0.00  0.00    +0.000 F 
ATOM     13  C   UNL     1      -6.615   5.090   0.324  0.00  0.00    +0.000 A 
ENDBRANCH   5   7
BRANCH   1  14
ATOM     14  C   UNL     1      -1.866   2.599  -0.209  0.00  0.00    +0.000 C 
BRANCH  14  15
ATOM     15  N   UNL     1      -1.640   2.068   1.127  0.00  0.00    +0.000 N 
ATOM     16  H   UNL     1      -2.190   2.521   1.853  0.00  0.00    +0.000 HD
BRANCH  15  22
ATOM     17  C   UNL     1      -0.951  -0.270   0.476  0.00  0.00    +0.000 A 
ATOM     18  C   UNL     1      -0.542  -1.546   0.919  0.00  0.00    +0.000 A 
ATOM     19  C   UNL     1      -0.475  -1.848   2.274  0.00  0.00    +0.000 A 
ATOM     20  C   UNL     1      -0.822  -0.879   3.201  0.00  0.00    +0.000 A 
ATOM     21  C   UNL     1      -1.229   0.391   2.768  0.00  0.00    +0.000 A 
ATOM     22  C   UNL     1      -1.320   0.733   1.401  0.00  0.00    +0.000 A 
BRANCH  17  24
ATOM     23  N   UNL     1      -1.024   0.028  -2.101  0.00  0.00    +0.000 NA
ATOM     24  C   UNL     1      -0.984  -0.095  -0.948  0.00  0.00    +0.000 C 
ENDBRANCH  17  24
ENDBRANCH  15  22
ENDBRANCH  14  15
ENDBRANCH   1  14
TORSDOF 5
