REMARK  Name = 
REMARK  5 active torsions:
REMARK  status: ('A' for Active; 'I' for Inactive)
REMARK    1  A    between atoms: C_2  and  C_4
REMARK    2  A    between atoms: C_7  and  C_8
REMARK    3  A    between atoms: C_8  and  C_9
REMARK    4  A    between atoms: C_9  and  C_10
REMARK    5  A    between atoms: C_14  and  C_15
REMARK                            x       y       z     vdW  Elec       q    Type
REMARK                         _______ _______ _______ _____ _____    ______ ____
ROOT
ATOM      1  C   UNL     1       4.968   1.578   5.790  0.00  0.00    +0.000 C 
ATOM      2  C   UNL     1       4.648   0.199   6.370  0.00  0.00    +0.000 C 
ATOM      3  C   UNL     1       3.532   1.146   6.073  0.00  0.00    +0.000 C 
ENDROOT
BRANCH   1   4
ATOM      4  C   UNL     1       5.623   2.553   6.768  0.00  0.00    +0.000 A 
ATOM      5  C   UNL     1       4.923   3.639   7.314  0.00  0.00    +0.000 A 
ATOM      6  C   UNL     1       5.475   4.416   8.330  0.00  0.00    +0.000 A 
ATOM      7  C   UNL     1       6.753   4.131   8.809  0.00  0.00    +0.000 A 
ATOM      8  C   UNL     1       7.507   3.073   8.277  0.00  0.00    +0.000 A 
ATOM      9  C   UNL     1       6.927   2.317   7.244  0.00  0.00    +0.000 A 
BRANCH   8  10
ATOM     10  C   UNL     1       8.820   2.703   8.834  0.00  0.00    +0.000 A 
ATOM     11  C   UNL     1       9.058   2.715  10.216  0.00  0.00    +0.000 A 
ATOM     12  C   UNL     1      10.285   2.299  10.731  0.00  0.00    +0.000 A 
ATOM     13  C   UNL     1      11.257   1.871   9.845  0.00  0.00    +0.000 A 
ATOM     14  N   UNL     1      11.088   1.844   8.507  0.00  0.00    +0.000 NA
ATOM     15  C   UNL     1       9.882   2.261   8.041  0.00  0.00    +0.000 A 
ENDBRANCH   8  10
ENDBRANCH   1   4
BRANCH   1  16
ATOM     16  C   UNL     1       5.522   1.535   4.375  0.00  0.00    +0.000 C 
BRANCH  16  20
ATOM     17  C   UNL     1       5.144   5.025   1.863  0.00  0.00    +0.000 A 
ATOM     18  C   UNL     1       6.271   4.865   2.676  0.00  0.00    +0.000 A 
ATOM     19  C   UNL     1       6.368   3.761   3.527  0.00  0.00    +0.000 A 
ATOM     20  C   UNL     1       5.345   2.802   3.576  0.00  0.00    +0.000 A 
ATOM     21  C   UNL     1       4.197   2.996   2.796  0.00  0.00    +0.000 A 
ATOM     22  C   UNL     1       4.096   4.101   1.945  0.00  0.00    +0.000 A 
BRANCH  17  24
ATOM     23  N   UNL     1       6.180   6.693   0.415  0.00  0.00    +0.000 N 
ATOM     24  C   UNL     1       5.025   6.160   0.904  0.00  0.00    +0.000 C 
ATOM     25  O   UNL     1       3.927   6.571   0.535  0.00  0.00    +0.000 OA
ATOM     26  H   UNL     1       6.074   7.380  -0.317  0.00  0.00    +0.000 HD
ATOM     27  H   UNL     1       7.063   6.216   0.485  0.00  0.00    +0.000 HD
ENDBRANCH  17  24
ENDBRANCH  16  20
ENDBRANCH   1  16
TORSDOF 5
