REMARK  Name = 
REMARK  7 active torsions:
REMARK  status: ('A' for Active; 'I' for Inactive)
REMARK    1  A    between atoms: C_2  and  O_3
REMARK    2  A    between atoms: C_2  and  C_25
REMARK    3  A    between atoms: O_3  and  C_4
REMARK    4  A    between atoms: C_4  and  C_5
REMARK    5  A    between atoms: C_8  and  C_9
REMARK    6  A    between atoms: C_9  and  N_10
REMARK    7  A    between atoms: C_11  and  C_13
REMARK                            x       y       z     vdW  Elec       q    Type
REMARK                         _______ _______ _______ _____ _____    ______ ____
ROOT
ATOM      1  C   UNL     1       4.766  -0.885  -2.491  0.00  0.00    +0.000 A 
ATOM      2  C   UNL     1       5.417  -0.013  -3.374  0.00  0.00    +0.000 A 
ATOM      3  C   UNL     1       5.862  -0.461  -4.622  0.00  0.00    +0.000 A 
ATOM      4  C   UNL     1       5.652  -1.789  -5.017  0.00  0.00    +0.000 A 
ATOM      5  C   UNL     1       5.058  -2.675  -4.108  0.00  0.00    +0.000 A 
ATOM      6  C   UNL     1       4.613  -2.227  -2.861  0.00  0.00    +0.000 A 
ENDROOT
BRANCH   1   7
ATOM      7  C   UNL     1       4.221  -0.387  -1.175  0.00  0.00    +0.000 C 
BRANCH   7   8
ATOM      8  O   UNL     1       2.801  -0.596  -1.095  0.00  0.00    +0.000 OA
BRANCH   8  10
ATOM      9  O   UNL     1       2.476   1.393  -2.200  0.00  0.00    +0.000 OA
ATOM     10  C   UNL     1       2.047   0.383  -1.658  0.00  0.00    +0.000 C 
BRANCH  10  11
ATOM     11  C   UNL     1       0.594   0.098  -1.543  0.00  0.00    +0.000 A 
ATOM     12  C   UNL     1      -0.293   0.957  -2.183  0.00  0.00    +0.000 A 
ATOM     13  N   UNL     1      -1.641   0.801  -2.120  0.00  0.00    +0.000 NA
ATOM     14  C   UNL     1      -2.066  -0.252  -1.388  0.00  0.00    +0.000 A 
ATOM     15  C   UNL     1      -1.183  -1.114  -0.748  0.00  0.00    +0.000 A 
ATOM     16  N   UNL     1       0.163  -0.964  -0.807  0.00  0.00    +0.000 NA
ENDBRANCH  10  11
ENDBRANCH   8  10
ENDBRANCH   7   8
ENDBRANCH   1   7
BRANCH   4  17
ATOM     17  C   UNL     1       6.081  -2.267  -6.381  0.00  0.00    +0.000 C 
BRANCH  17  18
ATOM     18  N   UNL     1       7.437  -2.746  -6.352  0.00  0.00    +0.000 N 
ATOM     19  C   UNL     1       8.073  -3.196  -7.480  0.00  0.00    +0.000 C 
ATOM     20  O   UNL     1       7.552  -3.155  -8.591  0.00  0.00    +0.000 OA
ATOM     21  H   UNL     1       7.790  -3.023  -5.444  0.00  0.00    +0.000 HD
BRANCH  19  22
ATOM     22  C   UNL     1       9.450  -3.668  -7.289  0.00  0.00    +0.000 A 
ATOM     23  C   UNL     1      10.346  -3.661  -8.350  0.00  0.00    +0.000 A 
ATOM     24  S   UNL     1      11.923  -4.146  -7.913  0.00  0.00    +0.000 S 
ATOM     25  C   UNL     1      11.448  -4.439  -6.305  0.00  0.00    +0.000 A 
ATOM     26  N   UNL     1      12.339  -4.883  -5.377  0.00  0.00    +0.000 NA
ATOM     27  C   UNL     1      11.833  -5.087  -4.207  0.00  0.00    +0.000 A 
ATOM     28  N   UNL     1      10.517  -4.892  -3.879  0.00  0.00    +0.000 N 
ATOM     29  C   UNL     1       9.585  -4.435  -4.778  0.00  0.00    +0.000 A 
ATOM     30  O   UNL     1       8.417  -4.263  -4.447  0.00  0.00    +0.000 OA
ATOM     31  C   UNL     1      10.106  -4.173  -6.106  0.00  0.00    +0.000 A 
ATOM     32  H   UNL     1      10.181  -5.074  -2.945  0.00  0.00    +0.000 HD
ENDBRANCH  19  22
ENDBRANCH  17  18
ENDBRANCH   4  17
TORSDOF 7
