REMARK  Name = 
REMARK  6 active torsions:
REMARK  status: ('A' for Active; 'I' for Inactive)
REMARK    1  A    between atoms: C_1  and  C_2
REMARK    2  A    between atoms: C_6  and  C_7
REMARK    3  A    between atoms: C_7  and  C_8
REMARK    4  A    between atoms: C_11  and  C_12
REMARK    5  A    between atoms: C_12  and  N_13
REMARK    6  A    between atoms: C_14  and  C_16
REMARK                            x       y       z     vdW  Elec       q    Type
REMARK                         _______ _______ _______ _____ _____    ______ ____
ROOT
ATOM      1  C   UNL     1      -7.564  -1.613  -0.093  0.00  0.00    +0.000 C 
ENDROOT
BRANCH   1   5
ATOM      2  C   UNL     1      -3.344  -2.260  -0.035  0.00  0.00    +0.000 A 
ATOM      3  C   UNL     1      -3.923  -1.620  -1.133  0.00  0.00    +0.000 A 
ATOM      4  C   UNL     1      -5.298  -1.404  -1.163  0.00  0.00    +0.000 A 
ATOM      5  C   UNL     1      -6.074  -1.853  -0.099  0.00  0.00    +0.000 A 
ATOM      6  N   UNL     1      -5.538  -2.484   0.977  0.00  0.00    +0.000 NA
ATOM      7  C   UNL     1      -4.196  -2.663   0.987  0.00  0.00    +0.000 A 
BRANCH   2   8
ATOM      8  C   UNL     1      -1.857  -2.465   0.057  0.00  0.00    +0.000 C 
BRANCH   8  14
ATOM      9  C   UNL     1      -0.064  -0.370   4.276  0.00  0.00    +0.000 C 
ATOM     10  C   UNL     1      -0.263  -0.315   2.790  0.00  0.00    +0.000 A 
ATOM     11  C   UNL     1       0.203   0.769   2.041  0.00  0.00    +0.000 A 
ATOM     12  C   UNL     1      -0.006   0.815   0.663  0.00  0.00    +0.000 A 
ATOM     13  C   UNL     1      -0.677  -0.227   0.021  0.00  0.00    +0.000 A 
ATOM     14  C   UNL     1      -1.134  -1.333   0.749  0.00  0.00    +0.000 A 
ATOM     15  C   UNL     1      -0.930  -1.361   2.137  0.00  0.00    +0.000 A 
ENDBRANCH   8  14
ENDBRANCH   2   8
ENDBRANCH   1   5
BRANCH   1  16
ATOM     16  N   UNL     1      -7.918  -0.375   0.564  0.00  0.00    +0.000 N 
ATOM     17  C   UNL     1      -8.155   0.788  -0.114  0.00  0.00    +0.000 C 
ATOM     18  O   UNL     1      -8.079   0.859  -1.338  0.00  0.00    +0.000 OA
ATOM     19  H   UNL     1      -7.735  -0.348   1.563  0.00  0.00    +0.000 HD
BRANCH  17  20
ATOM     20  C   UNL     1      -8.591   1.937   0.695  0.00  0.00    +0.000 A 
ATOM     21  C   UNL     1      -9.306   2.966   0.099  0.00  0.00    +0.000 A 
ATOM     22  S   UNL     1      -9.800   4.180   1.190  0.00  0.00    +0.000 S 
ATOM     23  C   UNL     1      -9.028   3.401   2.492  0.00  0.00    +0.000 A 
ATOM     24  N   UNL     1      -9.052   3.936   3.744  0.00  0.00    +0.000 NA
ATOM     25  C   UNL     1      -8.398   3.258   4.625  0.00  0.00    +0.000 A 
ATOM     26  N   UNL     1      -7.723   2.094   4.372  0.00  0.00    +0.000 N 
ATOM     27  C   UNL     1      -7.720   1.486   3.139  0.00  0.00    +0.000 A 
ATOM     28  O   UNL     1      -7.186   0.397   2.971  0.00  0.00    +0.000 OA
ATOM     29  C   UNL     1      -8.419   2.222   2.101  0.00  0.00    +0.000 A 
ATOM     30  H   UNL     1      -7.242   1.601   5.109  0.00  0.00    +0.000 HD
ENDBRANCH  17  20
ENDBRANCH   1  16
TORSDOF 5
