REMARK  Name = 
REMARK  9 active torsions:
REMARK  status: ('A' for Active; 'I' for Inactive)
REMARK    1  A    between atoms: C_1  and  O_2
REMARK    2  A    between atoms: O_2  and  C_3
REMARK    3  A    between atoms: C_10  and  C_11
REMARK    4  A    between atoms: N_13  and  C_14
REMARK    5  A    between atoms: C_14  and  C_15
REMARK    6  A    between atoms: C_18  and  N_19
REMARK    7  A    between atoms: N_19  and  C_20
REMARK    8  A    between atoms: C_20  and  C_21
REMARK    9  A    between atoms: C_21  and  O_22
REMARK                            x       y       z     vdW  Elec       q    Type
REMARK                         _______ _______ _______ _____ _____    ______ ____
ROOT
ATOM      1  C   UNL     1       2.903   0.253  -3.473  0.00  0.00    +0.000 C 
ENDROOT
BRANCH   1   2
ATOM      2  C   UNL     1       1.686  -0.619  -3.293  0.00  0.00    +0.000 A 
ATOM      3  C   UNL     1       1.817  -2.010  -3.329  0.00  0.00    +0.000 A 
ATOM      4  C   UNL     1       0.713  -2.838  -3.110  0.00  0.00    +0.000 A 
ATOM      5  C   UNL     1      -0.544  -2.304  -2.811  0.00  0.00    +0.000 A 
ATOM      6  C   UNL     1      -0.693  -0.914  -2.885  0.00  0.00    +0.000 A 
ATOM      7  C   UNL     1       0.409  -0.077  -3.111  0.00  0.00    +0.000 A 
BRANCH   5   8
ATOM      8  N   UNL     1      -1.703  -3.096  -2.625  0.00  0.00    +0.000 N 
ATOM      9  H   UNL     1      -2.076  -3.247  -3.572  0.00  0.00    +0.000 HD
BRANCH   8  10
ATOM     10  C   UNL     1      -1.520  -4.368  -1.921  0.00  0.00    +0.000 C 
BRANCH  10  11
ATOM     11  C   UNL     1      -1.655  -4.159  -0.408  0.00  0.00    +0.000 C 
BRANCH  11  12
ATOM     12  O   UNL     1      -2.911  -3.623  -0.032  0.00  0.00    +0.000 OA
ATOM     13  C   UNL     1      -3.082  -3.361   1.339  0.00  0.00    +0.000 C 
ATOM     14  C   UNL     1      -4.556  -3.579   1.613  0.00  0.00    +0.000 C 
ATOM     15  O   UNL     1      -5.134  -4.043   0.393  0.00  0.00    +0.000 OA
ATOM     16  C   UNL     1      -4.052  -4.307  -0.483  0.00  0.00    +0.000 C 
ENDBRANCH  11  12
ENDBRANCH  10  11
ENDBRANCH   8  10
ENDBRANCH   5   8
ENDBRANCH   1   2
BRANCH   1  19
ATOM     17  C   UNL     1       4.007  -0.235  -5.626  0.00  0.00    +0.000 C 
ATOM     18  O   UNL     1       4.564  -1.229  -5.161  0.00  0.00    +0.000 OA
ATOM     19  N   UNL     1       3.174   0.536  -4.860  0.00  0.00    +0.000 N 
ATOM     20  H   UNL     1       2.727   1.345  -5.266  0.00  0.00    +0.000 HD
BRANCH  17  28
ATOM     21  C   UNL     1       2.847   2.397  -7.532  0.00  0.00    +0.000 A 
ATOM     22  N   UNL     1       2.496   3.256  -8.511  0.00  0.00    +0.000 NA
ATOM     23  C   UNL     1       2.970   3.041  -9.740  0.00  0.00    +0.000 A 
ATOM     24  N   UNL     1       3.772   2.055 -10.125  0.00  0.00    +0.000 NA
ATOM     25  C   UNL     1       4.090   1.215  -9.128  0.00  0.00    +0.000 A 
ATOM     26  S   UNL     1       5.119  -0.098  -9.441  0.00  0.00    +0.000 S 
ATOM     27  C   UNL     1       5.014  -0.625  -7.830  0.00  0.00    +0.000 A 
ATOM     28  C   UNL     1       4.198   0.163  -7.028  0.00  0.00    +0.000 A 
ATOM     29  C   UNL     1       3.667   1.284  -7.803  0.00  0.00    +0.000 A 
BRANCH  21  31
ATOM     30  C   UNL     1       1.657   3.860  -6.132  0.00  0.00    +0.000 C 
ATOM     31  O   UNL     1       2.372   2.631  -6.255  0.00  0.00    +0.000 OA
ENDBRANCH  21  31
ENDBRANCH  17  28
ENDBRANCH   1  19
TORSDOF 8
