REMARK  Name = 
REMARK  9 active torsions:
REMARK  status: ('A' for Active; 'I' for Inactive)
REMARK    1  A    between atoms: N_1  and  C_2
REMARK    2  A    between atoms: C_2  and  C_3
REMARK    3  A    between atoms: C_3  and  N_4
REMARK    4  A    between atoms: C_3  and  C_26
REMARK    5  A    between atoms: N_4  and  C_5
REMARK    6  A    between atoms: C_5  and  C_6
REMARK    7  A    between atoms: C_9  and  C_10
REMARK    8  A    between atoms: C_10  and  N_11
REMARK    9  A    between atoms: C_12  and  C_14
REMARK                            x       y       z     vdW  Elec       q    Type
REMARK                         _______ _______ _______ _____ _____    ______ ____
ROOT
ATOM      1  C   UNL     1       0.592  -0.556  -3.770  0.00  0.00    +0.000 A 
ATOM      2  N   UNL     1       0.161  -1.626  -4.473  0.00  0.00    +0.000 NA
ATOM      3  C   UNL     1      -0.276  -1.387  -5.723  0.00  0.00    +0.000 A 
ATOM      4  C   UNL     1      -0.302  -0.135  -6.302  0.00  0.00    +0.000 A 
ATOM      5  C   UNL     1       0.123   0.892  -5.485  0.00  0.00    +0.000 A 
ATOM      6  N   UNL     1       0.572   0.715  -4.228  0.00  0.00    +0.000 NA
ENDROOT
BRANCH   1   7
ATOM      7  C   UNL     1       1.092  -0.793  -2.352  0.00  0.00    +0.000 C 
BRANCH   7   8
ATOM      8  N   UNL     1       2.226  -1.743  -2.279  0.00  0.00    +0.000 NA
ATOM      9  H   UNL     1       1.846  -2.646  -2.581  0.00  0.00    +0.000 HD
BRANCH   8  10
ATOM     10  C   UNL     1       2.713  -1.928  -0.887  0.00  0.00    +0.000 C 
BRANCH  10  11
ATOM     11  C   UNL     1       3.283  -0.656  -0.260  0.00  0.00    +0.000 A 
ATOM     12  C   UNL     1       4.282   0.056  -0.927  0.00  0.00    +0.000 A 
ATOM     13  C   UNL     1       4.773   1.227  -0.361  0.00  0.00    +0.000 A 
ATOM     14  C   UNL     1       4.268   1.658   0.859  0.00  0.00    +0.000 A 
ATOM     15  C   UNL     1       3.285   0.896   1.465  0.00  0.00    +0.000 A 
ATOM     16  N   UNL     1       2.785  -0.243   0.935  0.00  0.00    +0.000 NA
ENDBRANCH  10  11
BRANCH  10  17
ATOM     17  C   UNL     1       1.666  -2.625   0.036  0.00  0.00    +0.000 C 
BRANCH  17  18
ATOM     18  N   UNL     1       1.127  -3.873  -0.536  0.00  0.00    +0.000 NA
ATOM     19  H   UNL     1       0.426  -4.239   0.109  0.00  0.00    +0.000 HD
ATOM     20  H   UNL     1       1.872  -4.570  -0.557  0.00  0.00    +0.000 HD
ENDBRANCH  17  18
ENDBRANCH  10  17
ENDBRANCH   8  10
ENDBRANCH   7   8
ENDBRANCH   1   7
BRANCH   4  21
ATOM     21  C   UNL     1      -0.781   0.083  -7.696  0.00  0.00    +0.000 C 
BRANCH  21  22
ATOM     22  N   UNL     1      -2.208   0.260  -7.758  0.00  0.00    +0.000 N 
ATOM     23  C   UNL     1      -2.829   0.543  -8.950  0.00  0.00    +0.000 C 
ATOM     24  O   UNL     1      -2.191   0.645  -9.995  0.00  0.00    +0.000 OA
ATOM     25  H   UNL     1      -2.765  -0.068  -6.972  0.00  0.00    +0.000 HD
BRANCH  23  26
ATOM     26  C   UNL     1      -4.272   0.808  -8.902  0.00  0.00    +0.000 A 
ATOM     27  C   UNL     1      -4.949   1.191 -10.052  0.00  0.00    +0.000 A 
ATOM     28  S   UNL     1      -6.534   1.752  -9.748  0.00  0.00    +0.000 S 
ATOM     29  C   UNL     1      -6.379   1.440  -8.082  0.00  0.00    +0.000 A 
ATOM     30  N   UNL     1      -7.349   1.797  -7.198  0.00  0.00    +0.000 NA
ATOM     31  C   UNL     1      -7.110   1.452  -5.976  0.00  0.00    +0.000 A 
ATOM     32  N   UNL     1      -6.012   0.738  -5.565  0.00  0.00    +0.000 N 
ATOM     33  C   UNL     1      -5.029   0.328  -6.430  0.00  0.00    +0.000 A 
ATOM     34  O   UNL     1      -4.111  -0.401  -6.067  0.00  0.00    +0.000 OA
ATOM     35  C   UNL     1      -5.188   0.803  -7.789  0.00  0.00    +0.000 A 
ATOM     36  H   UNL     1      -5.924   0.429  -4.609  0.00  0.00    +0.000 HD
ENDBRANCH  23  26
ENDBRANCH  21  22
ENDBRANCH   4  21
TORSDOF 9
