REMARK  Name = 
REMARK  6 active torsions:
REMARK  status: ('A' for Active; 'I' for Inactive)
REMARK    1  A    between atoms: C_1  and  O_2
REMARK    2  A    between atoms: O_2  and  C_3
REMARK    3  A    between atoms: C_3  and  C_5
REMARK    4  A    between atoms: C_8  and  O_9
REMARK    5  A    between atoms: O_9  and  C_10
REMARK    6  A    between atoms: C_10  and  C_11
REMARK                            x       y       z     vdW  Elec       q    Type
REMARK                         _______ _______ _______ _____ _____    ______ ____
ROOT
ATOM      1  C   UNL     1       4.636  -0.224  -1.313  0.00  0.00    +0.000 A 
ATOM      2  C   UNL     1       5.304  -0.931  -0.315  0.00  0.00    +0.000 A 
ATOM      3  C   UNL     1       6.708  -1.027  -0.318  0.00  0.00    +0.000 A 
ATOM      4  C   UNL     1       7.438  -0.390  -1.348  0.00  0.00    +0.000 A 
ATOM      5  C   UNL     1       6.750   0.334  -2.310  0.00  0.00    +0.000 A 
ATOM      6  C   UNL     1       5.375   0.426  -2.314  0.00  0.00    +0.000 A 
ENDROOT
BRANCH   1   7
ATOM      7  C   UNL     1       3.158  -0.097  -1.346  0.00  0.00    +0.000 C 
ATOM      8  O   UNL     1       2.571   0.845  -1.835  0.00  0.00    +0.000 OA
BRANCH   7  10
ATOM      9  C   UNL     1       1.167  -1.177  -0.797  0.00  0.00    +0.000 C 
ATOM     10  O   UNL     1       2.594  -1.212  -0.811  0.00  0.00    +0.000 OA
ENDBRANCH   7  10
ENDBRANCH   1   7
BRANCH   4  11
ATOM     11  O   UNL     1       8.814  -0.481  -1.394  0.00  0.00    +0.000 OA
BRANCH  11  12
ATOM     12  C   UNL     1       9.346  -0.347  -2.734  0.00  0.00    +0.000 C 
BRANCH  12  13
ATOM     13  C   UNL     1      10.663  -1.068  -2.846  0.00  0.00    +0.000 A 
ATOM     14  C   UNL     1      10.733  -2.442  -2.570  0.00  0.00    +0.000 A 
ATOM     15  C   UNL     1      11.930  -3.134  -2.744  0.00  0.00    +0.000 A 
ATOM     16  C   UNL     1      13.054  -2.457  -3.194  0.00  0.00    +0.000 A 
ATOM     17  F   UNL     1      14.200  -3.127  -3.381  0.00  0.00    +0.000 F 
ATOM     18  C   UNL     1      13.009  -1.094  -3.464  0.00  0.00    +0.000 A 
ATOM     19  C   UNL     1      11.812  -0.398  -3.290  0.00  0.00    +0.000 A 
ENDBRANCH  12  13
ENDBRANCH  11  12
ENDBRANCH   4  11
TORSDOF 5
