REMARK  Name = 
REMARK  5 active torsions:
REMARK  status: ('A' for Active; 'I' for Inactive)
REMARK    1  A    between atoms: C_2  and  C_4
REMARK    2  A    between atoms: C_7  and  N_8
REMARK    3  A    between atoms: N_8  and  C_9
REMARK    4  A    between atoms: C_9  and  C_10
REMARK    5  A    between atoms: C_14  and  C_15
REMARK                            x       y       z     vdW  Elec       q    Type
REMARK                         _______ _______ _______ _____ _____    ______ ____
ROOT
ATOM      1  N   UNL     1       7.155   3.085  -2.406  0.00  0.00    +0.000 N 
ATOM      2  H   UNL     1       8.130   3.339  -2.258  0.00  0.00    +0.000 HD
ENDROOT
BRANCH   1   6
ATOM      3  C   UNL     1       5.820   0.090   0.088  0.00  0.00    +0.000 A 
ATOM      4  N   UNL     1       5.307   0.097  -1.165  0.00  0.00    +0.000 NA
ATOM      5  C   UNL     1       5.770   1.080  -1.973  0.00  0.00    +0.000 A 
ATOM      6  C   UNL     1       6.727   2.021  -1.624  0.00  0.00    +0.000 A 
ATOM      7  C   UNL     1       7.146   1.900  -0.304  0.00  0.00    +0.000 A 
ATOM      8  N   UNL     1       6.729   0.956   0.566  0.00  0.00    +0.000 NA
BRANCH   3  10
ATOM      9  N   UNL     1       4.418  -1.880   0.477  0.00  0.00    +0.000 N 
ATOM     10  C   UNL     1       5.314  -0.988   1.022  0.00  0.00    +0.000 C 
ATOM     11  O   UNL     1       5.655  -1.096   2.195  0.00  0.00    +0.000 OA
ATOM     12  H   UNL     1       4.053  -2.621   1.058  0.00  0.00    +0.000 HD
ATOM     13  H   UNL     1       4.138  -1.796  -0.493  0.00  0.00    +0.000 HD
ENDBRANCH   3  10
ENDBRANCH   1   6
BRANCH   1  14
ATOM     14  C   UNL     1       6.706   3.258  -3.779  0.00  0.00    +0.000 C 
BRANCH  14  15
ATOM     15  C   UNL     1       7.366   4.482  -4.371  0.00  0.00    +0.000 A 
ATOM     16  C   UNL     1       6.759   5.739  -4.257  0.00  0.00    +0.000 A 
ATOM     17  C   UNL     1       7.369   6.867  -4.800  0.00  0.00    +0.000 A 
ATOM     18  C   UNL     1       8.611   6.757  -5.426  0.00  0.00    +0.000 A 
ATOM     19  C   UNL     1       9.281   5.522  -5.512  0.00  0.00    +0.000 A 
ATOM     20  C   UNL     1       8.623   4.388  -5.000  0.00  0.00    +0.000 A 
BRANCH  19  21
ATOM     21  C   UNL     1      10.640   5.433  -6.080  0.00  0.00    +0.000 A 
ATOM     22  C   UNL     1      11.594   6.436  -5.909  0.00  0.00    +0.000 A 
ATOM     23  N   UNL     1      12.851   6.380  -6.417  0.00  0.00    +0.000 NA
ATOM     24  C   UNL     1      13.132   5.260  -7.112  0.00  0.00    +0.000 A 
ATOM     25  C   UNL     1      12.207   4.245  -7.283  0.00  0.00    +0.000 A 
ATOM     26  N   UNL     1      10.952   4.301  -6.771  0.00  0.00    +0.000 NA
ENDBRANCH  19  21
ENDBRANCH  14  15
ENDBRANCH   1  14
TORSDOF 5
