REMARK  Name = 
REMARK  5 active torsions:
REMARK  status: ('A' for Active; 'I' for Inactive)
REMARK    1  A    between atoms: C_1  and  C_2
REMARK    2  A    between atoms: C_2  and  C_3
REMARK    3  A    between atoms: C_2  and  C_14
REMARK    4  A    between atoms: C_3  and  N_4
REMARK    5  A    between atoms: C_8  and  C_9
REMARK                            x       y       z     vdW  Elec       q    Type
REMARK                         _______ _______ _______ _____ _____    ______ ____
ROOT
ATOM      1  N   UNL     1       3.057   2.177  -0.847  0.00  0.00    +0.000 N 
ATOM      2  C   UNL     1       3.707   3.401  -0.695  0.00  0.00    +0.000 A 
ATOM      3  N   UNL     1       4.756   3.497   0.139  0.00  0.00    +0.000 NA
ATOM      4  C   UNL     1       5.322   4.711   0.298  0.00  0.00    +0.000 A 
ATOM      5  C   UNL     1       4.894   5.835  -0.362  0.00  0.00    +0.000 A 
ATOM      6  C   UNL     1       3.817   5.643  -1.195  0.00  0.00    +0.000 A 
ATOM      7  N   UNL     1       3.210   4.445  -1.376  0.00  0.00    +0.000 NA
ATOM      8  H   UNL     1       2.133   2.398  -1.194  0.00  0.00    +0.000 HD
ENDROOT
BRANCH   5   9
ATOM      9  C   UNL     1       5.554   7.122  -0.109  0.00  0.00    +0.000 C 
ATOM     10  N   UNL     1       5.479   8.090  -1.070  0.00  0.00    +0.000 N 
ATOM     11  O   UNL     1       6.186   7.311   0.923  0.00  0.00    +0.000 OA
ATOM     12  H   UNL     1       5.189   7.917  -2.022  0.00  0.00    +0.000 HD
ATOM     13  H   UNL     1       6.037   8.920  -0.903  0.00  0.00    +0.000 HD
ENDBRANCH   5   9
BRANCH   1  14
ATOM     14  C   UNL     1       3.107   1.388   0.366  0.00  0.00    +0.000 C 
BRANCH  14  16
ATOM     15  C   UNL     1       0.954   0.089  -0.221  0.00  0.00    +0.000 C 
ATOM     16  C   UNL     1       2.402   0.069   0.179  0.00  0.00    +0.000 C 
BRANCH  16  17
ATOM     17  C   UNL     1       2.901  -1.061   1.078  0.00  0.00    +0.000 C 
ATOM     18  C   UNL     1       2.706  -2.463   0.471  0.00  0.00    +0.000 C 
ATOM     19  C   UNL     1       3.097  -3.578   1.441  0.00  0.00    +0.000 C 
ATOM     20  C   UNL     1       2.373  -3.434   2.774  0.00  0.00    +0.000 C 
ATOM     21  C   UNL     1       2.672  -2.082   3.407  0.00  0.00    +0.000 C 
ATOM     22  C   UNL     1       2.272  -0.940   2.479  0.00  0.00    +0.000 C 
ENDBRANCH  16  17
ENDBRANCH  14  16
ENDBRANCH   1  14
TORSDOF 4
