REMARK  Name = 
REMARK  6 active torsions:
REMARK  status: ('A' for Active; 'I' for Inactive)
REMARK    1  A    between atoms: C_1  and  O_2
REMARK    2  A    between atoms: O_2  and  C_3
REMARK    3  A    between atoms: C_6  and  C_7
REMARK    4  A    between atoms: C_7  and  N_8
REMARK    5  A    between atoms: N_8  and  C_9
REMARK    6  A    between atoms: C_12  and  C_13
REMARK                            x       y       z     vdW  Elec       q    Type
REMARK                         _______ _______ _______ _____ _____    ______ ____
ROOT
ATOM      1  N   UNL     1       4.951  -5.596   1.457  0.00  0.00    +0.000 N 
ATOM      2  H   UNL     1       4.647  -5.614   0.484  0.00  0.00    +0.000 HD
ENDROOT
BRANCH   1   3
ATOM      3  C   UNL     1       5.587  -6.780   1.847  0.00  0.00    +0.000 A 
ATOM      4  C   UNL     1       6.401  -6.885   2.979  0.00  0.00    +0.000 A 
ATOM      5  C   UNL     1       6.920  -8.120   3.374  0.00  0.00    +0.000 A 
ATOM      6  C   UNL     1       6.589  -9.243   2.631  0.00  0.00    +0.000 A 
ATOM      7  N   UNL     1       5.784  -9.209   1.536  0.00  0.00    +0.000 NA
ATOM      8  C   UNL     1       5.299  -7.986   1.195  0.00  0.00    +0.000 A 
BRANCH   6   9
ATOM      9  C   UNL     1       7.105 -10.587   3.047  0.00  0.00    +0.000 C 
ATOM     10  N   UNL     1       6.707 -11.634   2.259  0.00  0.00    +0.000 N 
ATOM     11  O   UNL     1       7.822 -10.750   4.025  0.00  0.00    +0.000 OA
ATOM     12  H   UNL     1       6.086 -11.459   1.476  0.00  0.00    +0.000 HD
ATOM     13  H   UNL     1       6.987 -12.574   2.496  0.00  0.00    +0.000 HD
ENDBRANCH   6   9
ENDBRANCH   1   3
BRANCH   1  14
ATOM     14  C   UNL     1       5.558  -4.314   1.804  0.00  0.00    +0.000 C 
BRANCH  14  18
ATOM     15  C   UNL     1       3.183  -0.981   0.377  0.00  0.00    +0.000 A 
ATOM     16  C   UNL     1       2.646  -1.884   1.293  0.00  0.00    +0.000 A 
ATOM     17  C   UNL     1       3.407  -2.973   1.737  0.00  0.00    +0.000 A 
ATOM     18  C   UNL     1       4.717  -3.173   1.276  0.00  0.00    +0.000 A 
ATOM     19  C   UNL     1       5.247  -2.262   0.354  0.00  0.00    +0.000 A 
ATOM     20  C   UNL     1       4.484  -1.177  -0.088  0.00  0.00    +0.000 A 
BRANCH  15  22
ATOM     21  C   UNL     1       1.219   0.357   0.294  0.00  0.00    +0.000 C 
ATOM     22  O   UNL     1       2.553   0.120  -0.135  0.00  0.00    +0.000 OA
ENDBRANCH  15  22
ENDBRANCH  14  18
ENDBRANCH   1  14
TORSDOF 5
