REMARK  Name = 
REMARK  7 active torsions:
REMARK  status: ('A' for Active; 'I' for Inactive)
REMARK    1  A    between atoms: C_1  and  C_2
REMARK    2  A    between atoms: C_2  and  C_3
REMARK    3  A    between atoms: C_2  and  C_4
REMARK    4  A    between atoms: C_2  and  C_5
REMARK    5  A    between atoms: C_8  and  C_9
REMARK    6  A    between atoms: N_16  and  C_17
REMARK    7  A    between atoms: C_17  and  C_18
REMARK                            x       y       z     vdW  Elec       q    Type
REMARK                         _______ _______ _______ _____ _____    ______ ____
ROOT
ATOM      1  C   UNL     1       2.881  -0.833  -1.029  0.00  0.00    +0.000 A 
ATOM      2  N   UNL     1       2.814  -2.138  -1.183  0.00  0.00    +0.000 NA
ATOM      3  C   UNL     1       3.314  -2.437  -2.427  0.00  0.00    +0.000 A 
ATOM      4  C   UNL     1       3.353  -3.656  -3.101  0.00  0.00    +0.000 A 
ATOM      5  C   UNL     1       3.881  -3.612  -4.381  0.00  0.00    +0.000 A 
ATOM      6  N   UNL     1       4.356  -2.488  -4.982  0.00  0.00    +0.000 NA
ATOM      7  C   UNL     1       4.329  -1.313  -4.308  0.00  0.00    +0.000 A 
ATOM      8  C   UNL     1       3.801  -1.289  -3.023  0.00  0.00    +0.000 A 
ATOM      9  N   UNL     1       3.603  -0.271  -2.084  0.00  0.00    +0.000 N 
ENDROOT
BRANCH   4  10
ATOM     10  C   UNL     1       2.845  -4.916  -2.535  0.00  0.00    +0.000 C 
ATOM     11  N   UNL     1       2.295  -4.870  -1.286  0.00  0.00    +0.000 N 
ATOM     12  O   UNL     1       2.911  -5.965  -3.163  0.00  0.00    +0.000 OA
ATOM     13  H   UNL     1       2.237  -3.997  -0.763  0.00  0.00    +0.000 HD
ATOM     14  H   UNL     1       1.936  -5.720  -0.872  0.00  0.00    +0.000 HD
ENDBRANCH   4  10
BRANCH   1  16
ATOM     15  C   UNL     1       3.189  -0.206   1.388  0.00  0.00    +0.000 C 
ATOM     16  C   UNL     1       2.211  -0.197   0.201  0.00  0.00    +0.000 C 
ATOM     17  C   UNL     1       0.999  -1.082   0.626  0.00  0.00    +0.000 C 
ATOM     18  C   UNL     1       1.640   1.202  -0.039  0.00  0.00    +0.000 C 
ENDBRANCH   1  16
BRANCH   9  19
ATOM     19  C   UNL     1       3.968   1.114  -2.379  0.00  0.00    +0.000 C 
BRANCH  19  20
ATOM     20  C   UNL     1       5.348   1.574  -1.962  0.00  0.00    +0.000 A 
ATOM     21  C   UNL     1       6.279   0.822  -1.243  0.00  0.00    +0.000 A 
ATOM     22  C   UNL     1       7.429   1.439  -0.739  0.00  0.00    +0.000 A 
ATOM     23  C   UNL     1       7.635   2.783  -0.999  0.00  0.00    +0.000 A 
ATOM     24  N   UNL     1       6.819   3.515  -1.781  0.00  0.00    +0.000 NA
ATOM     25  C   UNL     1       5.712   2.895  -2.250  0.00  0.00    +0.000 A 
ENDBRANCH  19  20
ENDBRANCH   9  19
TORSDOF 4
