REMARK  Name = 
REMARK  9 active torsions:
REMARK  status: ('A' for Active; 'I' for Inactive)
REMARK    1  A    between atoms: C_1  and  C_2
REMARK    2  A    between atoms: C_2  and  N_3
REMARK    3  A    between atoms: C_2  and  C_10
REMARK    4  A    between atoms: N_3  and  C_4
REMARK    5  A    between atoms: N_7  and  C_8
REMARK    6  A    between atoms: C_13  and  N_14
REMARK    7  A    between atoms: N_14  and  C_15
REMARK    8  A    between atoms: C_15  and  C_16
REMARK    9  A    between atoms: C_15  and  C_17
REMARK                            x       y       z     vdW  Elec       q    Type
REMARK                         _______ _______ _______ _____ _____    ______ ____
ROOT
ATOM      1  C   UNL     1       3.237   1.321   0.408  0.00  0.00    +0.000 A 
ATOM      2  C   UNL     1       3.341   2.462  -0.403  0.00  0.00    +0.000 A 
ATOM      3  C   UNL     1       3.650   3.714   0.151  0.00  0.00    +0.000 A 
ATOM      4  C   UNL     1       3.882   3.869   1.518  0.00  0.00    +0.000 A 
ATOM      5  C   UNL     1       3.961   2.710   2.288  0.00  0.00    +0.000 A 
ATOM      6  C   UNL     1       3.659   1.454   1.742  0.00  0.00    +0.000 A 
ENDROOT
BRANCH   1   8
ATOM      7  C   UNL     1       2.213  -0.948   1.010  0.00  0.00    +0.000 C 
ATOM      8  C   UNL     1       2.465   0.086  -0.101  0.00  0.00    +0.000 C 
BRANCH   8   9
ATOM      9  N   UNL     1       3.058  -0.526  -1.305  0.00  0.00    +0.000 NA
ATOM     10  H   UNL     1       3.128   0.187  -2.030  0.00  0.00    +0.000 HD
BRANCH   9  11
ATOM     11  C   UNL     1       2.317  -1.677  -1.871  0.00  0.00    +0.000 C 
ATOM     12  C   UNL     1       3.050  -2.218  -3.108  0.00  0.00    +0.000 C 
ATOM     13  C   UNL     1       1.952  -2.644  -4.068  0.00  0.00    +0.000 C 
ATOM     14  N   UNL     1       0.894  -1.666  -3.821  0.00  0.00    +0.000 NA
ATOM     15  C   UNL     1      -0.378  -2.110  -4.383  0.00  0.00    +0.000 C 
ATOM     16  C   UNL     1       0.857  -1.476  -2.364  0.00  0.00    +0.000 C 
ENDBRANCH   9  11
ENDBRANCH   8   9
ENDBRANCH   1   8
BRANCH   4  17
ATOM     17  N   UNL     1       3.941   5.100   2.138  0.00  0.00    +0.000 N 
ATOM     18  H   UNL     1       4.351   5.149   3.071  0.00  0.00    +0.000 HD
BRANCH  17  19
ATOM     19  C   UNL     1       3.150   6.265   1.749  0.00  0.00    +0.000 C 
ATOM     20  C   UNL     1       2.165   6.616   2.871  0.00  0.00    +0.000 C 
BRANCH  19  21
ATOM     21  C   UNL     1       3.983   7.471   1.377  0.00  0.00    +0.000 A 
ATOM     22  C   UNL     1       3.612   8.404   0.422  0.00  0.00    +0.000 A 
ATOM     23  S   UNL     1       4.823   9.571   0.122  0.00  0.00    +0.000 S 
ATOM     24  C   UNL     1       5.869   8.873   1.269  0.00  0.00    +0.000 A 
ATOM     25  N   UNL     1       7.130   9.353   1.466  0.00  0.00    +0.000 NA
ATOM     26  C   UNL     1       7.808   8.691   2.352  0.00  0.00    +0.000 A 
ATOM     27  N   UNL     1       7.330   7.630   3.079  0.00  0.00    +0.000 N 
ATOM     28  C   UNL     1       6.033   7.187   2.990  0.00  0.00    +0.000 A 
ATOM     29  O   UNL     1       5.588   6.372   3.800  0.00  0.00    +0.000 OA
ATOM     30  C   UNL     1       5.273   7.808   1.925  0.00  0.00    +0.000 A 
ATOM     31  H   UNL     1       7.895   7.220   3.797  0.00  0.00    +0.000 HD
ENDBRANCH  19  21
ENDBRANCH  17  19
ENDBRANCH   4  17
TORSDOF 6
