REMARK  Name = 
REMARK  11 active torsions:
REMARK  status: ('A' for Active; 'I' for Inactive)
REMARK    1  A    between atoms: N_1  and  C_2
REMARK    2  A    between atoms: C_2  and  C_3
REMARK    3  A    between atoms: C_3  and  N_4
REMARK    4  A    between atoms: N_4  and  C_5
REMARK    5  A    between atoms: C_5  and  C_6
REMARK    6  A    between atoms: C_8  and  C_9
REMARK    7  A    between atoms: C_9  and  N_10
REMARK    8  A    between atoms: C_13  and  N_14
REMARK    9  A    between atoms: C_19  and  C_20
REMARK   10  A    between atoms: C_20  and  N_21
REMARK   11  A    between atoms: C_22  and  C_24
REMARK                            x       y       z     vdW  Elec       q    Type
REMARK                         _______ _______ _______ _____ _____    ______ ____
ROOT
ATOM      1  C   UNL     1       6.431  -1.082  -2.058  0.00  0.00    +0.000 A 
ATOM      2  C   UNL     1       7.100  -1.404  -3.264  0.00  0.00    +0.000 A 
ATOM      3  C   UNL     1       8.491  -1.385  -3.398  0.00  0.00    +0.000 A 
ATOM      4  C   UNL     1       9.235  -1.025  -2.272  0.00  0.00    +0.000 A 
ATOM      5  C   UNL     1       8.599  -0.802  -1.037  0.00  0.00    +0.000 A 
ATOM      6  C   UNL     1       7.195  -0.878  -0.892  0.00  0.00    +0.000 A 
ENDROOT
BRANCH   1   7
ATOM      7  C   UNL     1       4.921  -1.040  -2.155  0.00  0.00    +0.000 C 
BRANCH   7   8
ATOM      8  N   UNL     1       4.218  -0.019  -1.380  0.00  0.00    +0.000 NA
ATOM      9  H   UNL     1       3.222  -0.116  -1.572  0.00  0.00    +0.000 HD
BRANCH   8  10
ATOM     10  C   UNL     1       4.626   1.358  -1.687  0.00  0.00    +0.000 C 
BRANCH  10  11
ATOM     11  C   UNL     1       3.770   2.326  -0.843  0.00  0.00    +0.000 C 
BRANCH  11  12
ATOM     12  N   UNL     1       4.124   3.727  -1.055  0.00  0.00    +0.000 NA
ATOM     13  H   UNL     1       3.417   4.316  -0.616  0.00  0.00    +0.000 HD
ATOM     14  H   UNL     1       4.110   3.947  -2.049  0.00  0.00    +0.000 HD
ENDBRANCH  11  12
ENDBRANCH  10  11
ENDBRANCH   8  10
ENDBRANCH   7   8
ENDBRANCH   1   7
BRANCH   3  15
ATOM     15  C   UNL     1       9.134  -1.886  -4.677  0.00  0.00    +0.000 C 
BRANCH  15  16
ATOM     16  N   UNL     1       9.290  -1.004  -5.832  0.00  0.00    +0.000 NA
ATOM     17  C   UNL     1      10.211   0.111  -5.716  0.00  0.00    +0.000 C 
ATOM     18  C   UNL     1       9.575   1.390  -5.181  0.00  0.00    +0.000 C 
ATOM     19  C   UNL     1       8.218   1.751  -5.807  0.00  0.00    +0.000 C 
ATOM     20  C   UNL     1       7.343   0.537  -6.137  0.00  0.00    +0.000 C 
ATOM     21  C   UNL     1       8.117  -0.680  -6.630  0.00  0.00    +0.000 C 
BRANCH  19  22
ATOM     22  N   UNL     1       8.376   2.594  -6.999  0.00  0.00    +0.000 NA
ATOM     23  H   UNL     1       8.977   2.136  -7.681  0.00  0.00    +0.000 HD
ATOM     24  H   UNL     1       8.847   3.459  -6.734  0.00  0.00    +0.000 HD
ENDBRANCH  19  22
ENDBRANCH  15  16
ENDBRANCH   3  15
BRANCH   6  25
ATOM     25  C   UNL     1       6.608  -0.755   0.504  0.00  0.00    +0.000 C 
BRANCH  25  26
ATOM     26  N   UNL     1       6.489  -2.026   1.208  0.00  0.00    +0.000 N 
ATOM     27  C   UNL     1       7.420  -2.419   2.138  0.00  0.00    +0.000 C 
ATOM     28  O   UNL     1       8.475  -1.794   2.283  0.00  0.00    +0.000 OA
ATOM     29  H   UNL     1       5.609  -2.526   1.123  0.00  0.00    +0.000 HD
BRANCH  27  30
ATOM     30  C   UNL     1       7.138  -3.591   2.989  0.00  0.00    +0.000 A 
ATOM     31  C   UNL     1       8.152  -4.062   3.819  0.00  0.00    +0.000 A 
ATOM     32  S   UNL     1       7.710  -5.385   4.792  0.00  0.00    +0.000 S 
ATOM     33  C   UNL     1       6.132  -5.379   4.165  0.00  0.00    +0.000 A 
ATOM     34  N   UNL     1       5.210  -6.268   4.629  0.00  0.00    +0.000 NA
ATOM     35  C   UNL     1       4.039  -6.143   4.097  0.00  0.00    +0.000 A 
ATOM     36  N   UNL     1       3.719  -5.218   3.132  0.00  0.00    +0.000 N 
ATOM     37  C   UNL     1       4.629  -4.324   2.612  0.00  0.00    +0.000 A 
ATOM     38  O   UNL     1       4.321  -3.549   1.713  0.00  0.00    +0.000 OA
ATOM     39  C   UNL     1       5.954  -4.398   3.202  0.00  0.00    +0.000 A 
ATOM     40  H   UNL     1       2.791  -5.189   2.747  0.00  0.00    +0.000 HD
ENDBRANCH  27  30
ENDBRANCH  25  26
ENDBRANCH   6  25
TORSDOF 11
