REMARK  Name = 
REMARK  11 active torsions:
REMARK  status: ('A' for Active; 'I' for Inactive)
REMARK    1  A    between atoms: C_1  and  C_2
REMARK    2  A    between atoms: C_2  and  C_3
REMARK    3  A    between atoms: C_3  and  N_4
REMARK    4  A    between atoms: C_3  and  C_21
REMARK    5  A    between atoms: N_4  and  C_5
REMARK    6  A    between atoms: C_5  and  C_6
REMARK    7  A    between atoms: C_9  and  C_10
REMARK    8  A    between atoms: C_10  and  O_11
REMARK    9  A    between atoms: C_10  and  C_12
REMARK   10  A    between atoms: C_12  and  N_13
REMARK   11  A    between atoms: N_13  and  C_14
REMARK                            x       y       z     vdW  Elec       q    Type
REMARK                         _______ _______ _______ _____ _____    ______ ____
ROOT
ATOM      1  C   UNL     1      -6.036   4.095   5.727  0.00  0.00    +0.000 A 
ATOM      2  C   UNL     1      -4.755   3.676   5.365  0.00  0.00    +0.000 A 
ATOM      3  C   UNL     1      -3.773   3.558   6.338  0.00  0.00    +0.000 A 
ATOM      4  C   UNL     1      -4.098   3.877   7.655  0.00  0.00    +0.000 A 
ATOM      5  N   UNL     1      -5.325   4.330   8.030  0.00  0.00    +0.000 NA
ATOM      6  C   UNL     1      -6.259   4.423   7.059  0.00  0.00    +0.000 A 
ENDROOT
BRANCH   1   7
ATOM      7  C   UNL     1      -7.114   4.245   4.694  0.00  0.00    +0.000 C 
BRANCH   7   8
ATOM      8  N   UNL     1      -7.352   2.992   3.962  0.00  0.00    +0.000 NA
ATOM      9  H   UNL     1      -7.622   2.281   4.647  0.00  0.00    +0.000 HD
BRANCH   8  10
ATOM     10  C   UNL     1      -8.440   3.117   2.974  0.00  0.00    +0.000 C 
BRANCH  10  11
ATOM     11  C   UNL     1      -8.628   1.771   2.274  0.00  0.00    +0.000 A 
ATOM     12  C   UNL     1      -7.617   1.039   1.665  0.00  0.00    +0.000 A 
ATOM     13  S   UNL     1      -8.148  -0.437   0.984  0.00  0.00    +0.000 S 
ATOM     14  C   UNL     1      -9.754  -0.163   1.496  0.00  0.00    +0.000 A 
ATOM     15  N   UNL     1     -10.730  -1.081   1.265  0.00  0.00    +0.000 NA
ATOM     16  C   UNL     1     -11.890  -0.749   1.749  0.00  0.00    +0.000 A 
ATOM     17  N   UNL     1     -12.155   0.437   2.388  0.00  0.00    +0.000 N 
ATOM     18  C   UNL     1     -11.227   1.448   2.504  0.00  0.00    +0.000 A 
ATOM     19  O   UNL     1     -11.554   2.581   2.838  0.00  0.00    +0.000 OA
ATOM     20  C   UNL     1      -9.880   1.068   2.120  0.00  0.00    +0.000 A 
ATOM     21  H   UNL     1     -13.098   0.664   2.659  0.00  0.00    +0.000 HD
ENDBRANCH  10  11
BRANCH  10  23
ATOM     22  C   UNL     1      -7.056   4.260   1.057  0.00  0.00    +0.000 C 
ATOM     23  C   UNL     1      -8.268   4.292   1.984  0.00  0.00    +0.000 C 
ENDBRANCH  10  23
ENDBRANCH   8  10
ENDBRANCH   7   8
ENDBRANCH   1   7
BRANCH   4  24
ATOM     24  C   UNL     1      -3.079   3.695   8.757  0.00  0.00    +0.000 C 
BRANCH  24  25
ATOM     25  O   UNL     1      -3.300   4.668   9.793  0.00  0.00    +0.000 OA
ATOM     26  H   UNL     1      -4.236   4.934   9.680  0.00  0.00    +0.000 HD
ENDBRANCH  24  25
BRANCH  24  27
ATOM     27  C   UNL     1      -3.189   2.301   9.401  0.00  0.00    +0.000 C 
BRANCH  27  28
ATOM     28  N   UNL     1      -2.898   1.190   8.490  0.00  0.00    +0.000 NA
ATOM     29  H   UNL     1      -1.980   1.284   8.072  0.00  0.00    +0.000 HD
BRANCH  28  30
ATOM     30  C   UNL     1      -3.047  -0.110   9.108  0.00  0.00    +0.000 C 
ATOM     31  C   UNL     1      -2.788  -1.230   8.109  0.00  0.00    +0.000 C 
ATOM     32  C   UNL     1      -1.272  -1.291   8.023  0.00  0.00    +0.000 C 
ATOM     33  C   UNL     1      -0.804  -0.826   9.393  0.00  0.00    +0.000 C 
ATOM     34  N   UNL     1      -1.984  -0.308  10.074  0.00  0.00    +0.000 NA
ATOM     35  H   UNL     1      -1.772   0.546  10.579  0.00  0.00    +0.000 HD
ENDBRANCH  28  30
ENDBRANCH  27  28
ENDBRANCH  24  27
ENDBRANCH   4  24
TORSDOF 10
