REMARK  Name = 
REMARK  9 active torsions:
REMARK  status: ('A' for Active; 'I' for Inactive)
REMARK    1  A    between atoms: C_1  and  O_2
REMARK    2  A    between atoms: O_2  and  C_3
REMARK    3  A    between atoms: C_10  and  C_11
REMARK    4  A    between atoms: N_13  and  C_14
REMARK    5  A    between atoms: C_14  and  C_15
REMARK    6  A    between atoms: C_18  and  C_19
REMARK    7  A    between atoms: C_19  and  C_20
REMARK    8  A    between atoms: C_20  and  N_21
REMARK    9  A    between atoms: N_21  and  C_22
REMARK                            x       y       z     vdW  Elec       q    Type
REMARK                         _______ _______ _______ _____ _____    ______ ____
ROOT
ATOM      1  C   UNL     1       1.731  -2.182  -2.534  0.00  0.00    +0.000 A 
ATOM      2  C   UNL     1       1.823  -3.573  -2.426  0.00  0.00    +0.000 A 
ATOM      3  C   UNL     1       0.777  -4.314  -1.870  0.00  0.00    +0.000 A 
ATOM      4  C   UNL     1      -0.393  -3.688  -1.411  0.00  0.00    +0.000 A 
ATOM      5  C   UNL     1      -0.499  -2.298  -1.568  0.00  0.00    +0.000 A 
ATOM      6  C   UNL     1       0.546  -1.556  -2.132  0.00  0.00    +0.000 A 
ENDROOT
BRANCH   1   7
ATOM      7  C   UNL     1       2.886  -1.383  -3.075  0.00  0.00    +0.000 C 
BRANCH   7  10
ATOM      8  C   UNL     1       3.808  -0.615  -5.209  0.00  0.00    +0.000 C 
ATOM      9  O   UNL     1       4.771  -0.105  -4.634  0.00  0.00    +0.000 OA
ATOM     10  N   UNL     1       2.829  -1.264  -4.508  0.00  0.00    +0.000 N 
ATOM     11  H   UNL     1       2.014  -1.630  -4.985  0.00  0.00    +0.000 HD
BRANCH   8  19
ATOM     12  C   UNL     1       1.503  -1.875  -7.449  0.00  0.00    +0.000 A 
ATOM     13  N   UNL     1       0.817  -2.293  -8.536  0.00  0.00    +0.000 NA
ATOM     14  C   UNL     1       1.270  -1.951  -9.741  0.00  0.00    +0.000 A 
ATOM     15  N   UNL     1       2.349  -1.225 -10.012  0.00  0.00    +0.000 NA
ATOM     16  C   UNL     1       3.015  -0.840  -8.909  0.00  0.00    +0.000 A 
ATOM     17  S   UNL     1       4.415   0.103  -9.073  0.00  0.00    +0.000 S 
ATOM     18  C   UNL     1       4.644   0.140  -7.391  0.00  0.00    +0.000 A 
ATOM     19  C   UNL     1       3.676  -0.554  -6.674  0.00  0.00    +0.000 A 
ATOM     20  C   UNL     1       2.684  -1.122  -7.586  0.00  0.00    +0.000 A 
BRANCH  12  22
ATOM     21  C   UNL     1      -0.223  -2.925  -6.252  0.00  0.00    +0.000 C 
ATOM     22  O   UNL     1       0.996  -2.182  -6.201  0.00  0.00    +0.000 OA
ENDBRANCH  12  22
ENDBRANCH   8  19
ENDBRANCH   7  10
ENDBRANCH   1   7
BRANCH   4  23
ATOM     23  C   UNL     1      -1.529  -4.438  -0.735  0.00  0.00    +0.000 C 
BRANCH  23  24
ATOM     24  C   UNL     1      -1.293  -5.944  -0.564  0.00  0.00    +0.000 C 
BRANCH  24  25
ATOM     25  N   UNL     1      -2.400  -6.612   0.126  0.00  0.00    +0.000 N 
ATOM     26  H   UNL     1      -3.315  -6.334  -0.218  0.00  0.00    +0.000 HD
BRANCH  25  27
ATOM     27  C   UNL     1      -2.284  -8.011   0.258  0.00  0.00    +0.000 A 
ATOM     28  C   UNL     1      -1.052  -8.652   0.469  0.00  0.00    +0.000 A 
ATOM     29  C   UNL     1      -0.968 -10.030   0.698  0.00  0.00    +0.000 A 
ATOM     30  C   UNL     1      -2.127 -10.794   0.733  0.00  0.00    +0.000 A 
ATOM     31  C   UNL     1      -3.352 -10.172   0.535  0.00  0.00    +0.000 A 
ATOM     32  F   UNL     1      -4.472 -10.907   0.569  0.00  0.00    +0.000 F 
ATOM     33  C   UNL     1      -3.441  -8.797   0.312  0.00  0.00    +0.000 A 
ENDBRANCH  25  27
ENDBRANCH  24  25
ENDBRANCH  23  24
ENDBRANCH   4  23
TORSDOF 8
