REMARK  Name = 
REMARK  5 active torsions:
REMARK  status: ('A' for Active; 'I' for Inactive)
REMARK    1  A    between atoms: C_2  and  C_4
REMARK    2  A    between atoms: C_7  and  O_8
REMARK    3  A    between atoms: O_8  and  C_9
REMARK    4  A    between atoms: C_9  and  C_10
REMARK    5  A    between atoms: C_14  and  C_15
REMARK                            x       y       z     vdW  Elec       q    Type
REMARK                         _______ _______ _______ _____ _____    ______ ____
ROOT
ATOM      1  C   UNL     1       5.006   4.001   4.214  0.00  0.00    +0.000 C 
ENDROOT
BRANCH   1   2
ATOM      2  C   UNL     1       5.920   4.987   4.907  0.00  0.00    +0.000 A 
ATOM      3  C   UNL     1       5.733   6.359   4.691  0.00  0.00    +0.000 A 
ATOM      4  C   UNL     1       6.492   7.292   5.389  0.00  0.00    +0.000 A 
ATOM      5  C   UNL     1       7.438   6.864   6.323  0.00  0.00    +0.000 A 
ATOM      6  C   UNL     1       7.639   5.498   6.588  0.00  0.00    +0.000 A 
ATOM      7  C   UNL     1       6.868   4.573   5.857  0.00  0.00    +0.000 A 
BRANCH   6   8
ATOM      8  C   UNL     1       8.592   5.048   7.620  0.00  0.00    +0.000 A 
ATOM      9  C   UNL     1       8.752   5.736   8.831  0.00  0.00    +0.000 A 
ATOM     10  N   UNL     1       9.595   5.378   9.834  0.00  0.00    +0.000 NA
ATOM     11  C   UNL     1      10.322   4.260   9.630  0.00  0.00    +0.000 A 
ATOM     12  C   UNL     1      10.242   3.501   8.479  0.00  0.00    +0.000 A 
ATOM     13  F   UNL     1      10.983   2.395   8.338  0.00  0.00    +0.000 F 
ATOM     14  C   UNL     1       9.377   3.896   7.466  0.00  0.00    +0.000 A 
ENDBRANCH   6   8
ENDBRANCH   1   2
BRANCH   1  15
ATOM     15  O   UNL     1       5.666   2.760   3.937  0.00  0.00    +0.000 OA
BRANCH  15  19
ATOM     16  C   UNL     1       3.151   0.038   2.133  0.00  0.00    +0.000 A 
ATOM     17  C   UNL     1       4.476  -0.318   2.398  0.00  0.00    +0.000 A 
ATOM     18  C   UNL     1       5.322   0.611   3.010  0.00  0.00    +0.000 A 
ATOM     19  C   UNL     1       4.808   1.857   3.335  0.00  0.00    +0.000 A 
ATOM     20  N   UNL     1       3.533   2.226   3.088  0.00  0.00    +0.000 NA
ATOM     21  C   UNL     1       2.735   1.314   2.484  0.00  0.00    +0.000 A 
BRANCH  16  23
ATOM     22  N   UNL     1       2.357  -2.201   1.617  0.00  0.00    +0.000 N 
ATOM     23  C   UNL     1       2.174  -0.855   1.477  0.00  0.00    +0.000 C 
ATOM     24  O   UNL     1       1.215  -0.408   0.864  0.00  0.00    +0.000 OA
ATOM     25  H   UNL     1       1.613  -2.789   1.258  0.00  0.00    +0.000 HD
ATOM     26  H   UNL     1       2.967  -2.600   2.316  0.00  0.00    +0.000 HD
ENDBRANCH  16  23
ENDBRANCH  15  19
ENDBRANCH   1  15
TORSDOF 5
