REMARK  Name = 
REMARK  6 active torsions:
REMARK  status: ('A' for Active; 'I' for Inactive)
REMARK    1  A    between atoms: C_1  and  C_2
REMARK    2  A    between atoms: C_2  and  C_3
REMARK    3  A    between atoms: C_2  and  C_15
REMARK    4  A    between atoms: C_3  and  N_4
REMARK    5  A    between atoms: C_8  and  C_9
REMARK    6  A    between atoms: C_12  and  N_13
REMARK                            x       y       z     vdW  Elec       q    Type
REMARK                         _______ _______ _______ _____ _____    ______ ____
ROOT
ATOM      1  N   UNL     1       2.721  -0.979  -2.287  0.00  0.00    +0.000 N 
ATOM      2  C   UNL     1       3.223  -0.908  -3.576  0.00  0.00    +0.000 A 
ATOM      3  N   UNL     1       4.388  -0.295  -3.814  0.00  0.00    +0.000 NA
ATOM      4  C   UNL     1       4.842  -0.328  -5.083  0.00  0.00    +0.000 A 
ATOM      5  C   UNL     1       4.185  -0.942  -6.125  0.00  0.00    +0.000 A 
ATOM      6  C   UNL     1       2.963  -1.506  -5.787  0.00  0.00    +0.000 A 
ATOM      7  N   UNL     1       2.485  -1.495  -4.525  0.00  0.00    +0.000 NA
ATOM      8  H   UNL     1       1.725  -1.151  -2.385  0.00  0.00    +0.000 HD
ENDROOT
BRANCH   5   9
ATOM      9  C   UNL     1       4.768  -1.073  -7.484  0.00  0.00    +0.000 C 
ATOM     10  N   UNL     1       5.993  -0.519  -7.742  0.00  0.00    +0.000 N 
ATOM     11  O   UNL     1       4.210  -1.714  -8.370  0.00  0.00    +0.000 OA
ATOM     12  H   UNL     1       6.602  -0.070  -7.077  0.00  0.00    +0.000 HD
ATOM     13  H   UNL     1       6.373  -0.693  -8.666  0.00  0.00    +0.000 HD
ENDBRANCH   5   9
BRANCH   6  14
ATOM     14  N   UNL     1       2.080  -2.009  -6.740  0.00  0.00    +0.000 N 
ATOM     15  H   UNL     1       2.545  -2.469  -7.523  0.00  0.00    +0.000 HD
ATOM     16  H   UNL     1       1.326  -2.530  -6.308  0.00  0.00    +0.000 HD
ENDBRANCH   6  14
BRANCH   1  17
ATOM     17  C   UNL     1       3.082   0.126  -1.408  0.00  0.00    +0.000 C 
BRANCH  17  19
ATOM     18  C   UNL     1       3.194  -1.290   0.704  0.00  0.00    +0.000 C 
ATOM     19  C   UNL     1       2.529  -0.085   0.022  0.00  0.00    +0.000 C 
BRANCH  19  20
ATOM     20  C   UNL     1       1.005  -0.121   0.041  0.00  0.00    +0.000 A 
ATOM     21  C   UNL     1       0.283  -1.330   0.013  0.00  0.00    +0.000 A 
ATOM     22  C   UNL     1      -1.115  -1.329  -0.010  0.00  0.00    +0.000 A 
ATOM     23  C   UNL     1      -1.802  -0.123  -0.011  0.00  0.00    +0.000 A 
ATOM     24  F   UNL     1      -3.142  -0.129  -0.043  0.00  0.00    +0.000 F 
ATOM     25  C   UNL     1      -1.107   1.078   0.016  0.00  0.00    +0.000 A 
ATOM     26  F   UNL     1      -1.770   2.242   0.009  0.00  0.00    +0.000 F 
ATOM     27  C   UNL     1       0.286   1.087   0.041  0.00  0.00    +0.000 A 
ENDBRANCH  19  20
ENDBRANCH  17  19
ENDBRANCH   1  17
TORSDOF 5
