REMARK  Name = 
REMARK  9 active torsions:
REMARK  status: ('A' for Active; 'I' for Inactive)
REMARK    1  A    between atoms: N_1  and  C_2
REMARK    2  A    between atoms: C_2  and  C_3
REMARK    3  A    between atoms: C_2  and  C_21
REMARK    4  A    between atoms: C_3  and  C_4
REMARK    5  A    between atoms: C_7  and  C_8
REMARK    6  A    between atoms: N_10  and  CA_11
REMARK    7  A    between atoms: CA_11  and  C_12
REMARK    8  A    between atoms: CA_11  and  C_14
REMARK    9  A    between atoms: C_12  and  O_13
REMARK                            x       y       z     vdW  Elec       q    Type
REMARK                         _______ _______ _______ _____ _____    ______ ____
ROOT
ATOM      1  C   UNL     1       0.445  -1.349   0.649  0.00  0.00    +0.000 A 
ATOM      2  C   UNL     1       1.306  -2.273   1.256  0.00  0.00    +0.000 A 
ATOM      3  C   UNL     1       0.862  -3.564   1.555  0.00  0.00    +0.000 A 
ATOM      4  C   UNL     1      -0.456  -3.942   1.268  0.00  0.00    +0.000 A 
ATOM      5  C   UNL     1      -1.350  -2.982   0.776  0.00  0.00    +0.000 A 
ATOM      6  C   UNL     1      -0.900  -1.696   0.464  0.00  0.00    +0.000 A 
ENDROOT
BRANCH   4   7
ATOM      7  C   UNL     1      -0.931  -5.343   1.444  0.00  0.00    +0.000 C 
ATOM      8  O   UNL     1      -2.125  -5.604   1.575  0.00  0.00    +0.000 OA
ATOM      9  N   UNL     1       0.027  -6.329   1.373  0.00  0.00    +0.000 N 
ATOM     10  H   UNL     1       0.938  -6.102   0.996  0.00  0.00    +0.000 HD
BRANCH   9  11
ATOM     11  CA  UNL     1      -0.306  -7.744   1.510  0.00  0.00    +0.000 C 
BRANCH  11  12
ATOM     12  C   UNL     1       0.893  -8.454   2.066  0.00  0.00    +0.000 A 
ATOM     13  C   UNL     1       0.991  -9.174   3.243  0.00  0.00    +0.000 A 
ATOM     14  N   UNL     1       2.225  -9.733   3.510  0.00  0.00    +0.000 NA
ATOM     15  C   UNL     1       3.058  -9.424   2.543  0.00  0.00    +0.000 A 
ATOM     16  S   UNL     1       2.422  -8.467   1.272  0.00  0.00    +0.000 S 
ENDBRANCH  11  12
BRANCH  11  17
ATOM     17  C   UNL     1      -0.803  -8.385   0.191  0.00  0.00    +0.000 C 
BRANCH  17  18
ATOM     18  O   UNL     1      -2.001  -7.800  -0.319  0.00  0.00    +0.000 OA
ATOM     19  H   UNL     1      -2.287  -7.090   0.293  0.00  0.00    +0.000 HD
ENDBRANCH  17  18
ENDBRANCH  11  17
ENDBRANCH   9  11
ENDBRANCH   4   7
BRANCH   1  20
ATOM     20  C   UNL     1       0.979  -0.036   0.110  0.00  0.00    +0.000 C 
BRANCH  20  21
ATOM     21  C   UNL     1       2.019  -0.233  -1.030  0.00  0.00    +0.000 C 
BRANCH  21  22
ATOM     22  C   UNL     1       2.562   1.078  -1.560  0.00  0.00    +0.000 A 
ATOM     23  C   UNL     1       3.883   1.465  -1.391  0.00  0.00    +0.000 A 
ATOM     24  S   UNL     1       4.199   3.049  -1.942  0.00  0.00    +0.000 S 
ATOM     25  C   UNL     1       2.604   3.235  -2.505  0.00  0.00    +0.000 A 
ATOM     26  N   UNL     1       2.195   4.390  -3.095  0.00  0.00    +0.000 NA
ATOM     27  C   UNL     1       0.987   4.354  -3.551  0.00  0.00    +0.000 A 
ATOM     28  N   UNL     1       0.151   3.269  -3.470  0.00  0.00    +0.000 N 
ATOM     29  C   UNL     1       0.506   2.092  -2.852  0.00  0.00    +0.000 A 
ATOM     30  O   UNL     1      -0.258   1.133  -2.809  0.00  0.00    +0.000 OA
ATOM     31  C   UNL     1       1.852   2.092  -2.305  0.00  0.00    +0.000 A 
ATOM     32  H   UNL     1      -0.768   3.294  -3.886  0.00  0.00    +0.000 HD
ENDBRANCH  21  22
BRANCH  21  33
ATOM     33  N   UNL     1       1.511  -1.025  -2.150  0.00  0.00    +0.000 NA
ATOM     34  H   UNL     1       2.181  -1.028  -2.913  0.00  0.00    +0.000 HD
ATOM     35  H   UNL     1       0.654  -0.587  -2.504  0.00  0.00    +0.000 HD
ENDBRANCH  21  33
ENDBRANCH  20  21
ENDBRANCH   1  20
TORSDOF 9
