REMARK  Name = 
REMARK  4 active torsions:
REMARK  status: ('A' for Active; 'I' for Inactive)
REMARK    1  A    between atoms: N_1  and  C_2
REMARK    2  A    between atoms: C_2  and  C_3
REMARK    3  A    between atoms: C_6  and  C_7
REMARK    4  A    between atoms: C_7  and  N_8
REMARK                            x       y       z     vdW  Elec       q    Type
REMARK                         _______ _______ _______ _____ _____    ______ ____
ROOT
ATOM      1  C   UNL     1       3.071  -1.233   0.564  0.00  0.00    +0.000 C 
ATOM      2  C   UNL     1       2.690  -2.302  -0.475  0.00  0.00    +0.000 C 
ATOM      3  C   UNL     1       2.979  -3.720   0.019  0.00  0.00    +0.000 C 
ATOM      4  C   UNL     1       2.291  -4.045   1.357  0.00  0.00    +0.000 C 
ATOM      5  C   UNL     1       2.577  -2.948   2.400  0.00  0.00    +0.000 C 
ATOM      6  C   UNL     1       2.336  -1.529   1.883  0.00  0.00    +0.000 C 
ENDROOT
BRANCH   1   7
ATOM      7  C   UNL     1       4.608  -1.132   0.686  0.00  0.00    +0.000 C 
BRANCH   7   8
ATOM      8  N   UNL     1       5.052  -0.108   1.626  0.00  0.00    +0.000 NA
ATOM      9  H   UNL     1       6.071  -0.067   1.611  0.00  0.00    +0.000 HD
ATOM     10  H   UNL     1       4.803  -0.385   2.574  0.00  0.00    +0.000 HD
ENDBRANCH   7   8
ENDBRANCH   1   7
BRANCH   4  11
ATOM     11  C   UNL     1       0.772  -4.311   1.202  0.00  0.00    +0.000 C 
BRANCH  11  12
ATOM     12  N   UNL     1       0.469  -5.423   0.314  0.00  0.00    +0.000 N 
ATOM     13  C   UNL     1       0.912  -6.715   0.485  0.00  0.00    +0.000 A 
ATOM     14  C   UNL     1       0.578  -7.432  -0.643  0.00  0.00    +0.000 A 
ATOM     15  C   UNL     1      -0.178  -6.576  -1.487  0.00  0.00    +0.000 A 
ATOM     16  C   UNL     1      -0.814  -6.710  -2.732  0.00  0.00    +0.000 A 
ATOM     17  C   UNL     1      -1.529  -5.615  -3.215  0.00  0.00    +0.000 A 
ATOM     18  C   UNL     1      -1.561  -4.449  -2.462  0.00  0.00    +0.000 A 
ATOM     19  N   UNL     1      -0.930  -4.251  -1.281  0.00  0.00    +0.000 NA
ATOM     20  C   UNL     1      -0.265  -5.342  -0.846  0.00  0.00    +0.000 A 
ENDBRANCH  11  12
ENDBRANCH   4  11
TORSDOF 4
