REMARK  Name = 
REMARK  4 active torsions:
REMARK  status: ('A' for Active; 'I' for Inactive)
REMARK    1  A    between atoms: C_2  and  C_4
REMARK    2  A    between atoms: C_7  and  O_8
REMARK    3  A    between atoms: O_8  and  C_9
REMARK    4  A    between atoms: C_9  and  C_10
REMARK                            x       y       z     vdW  Elec       q    Type
REMARK                         _______ _______ _______ _____ _____    ______ ____
ROOT
ATOM      1  C   UNL     1       3.261  -0.843  -0.900  0.00  0.00    +0.000 A 
ATOM      2  C   UNL     1       2.607  -1.532  -1.913  0.00  0.00    +0.000 A 
ATOM      3  N   UNL     1       3.251  -2.392  -2.748  0.00  0.00    +0.000 NA
ATOM      4  C   UNL     1       4.575  -2.537  -2.513  0.00  0.00    +0.000 A 
ATOM      5  C   UNL     1       5.223  -1.871  -1.478  0.00  0.00    +0.000 A 
ATOM      6  N   UNL     1       4.595  -0.995  -0.652  0.00  0.00    +0.000 NA
ENDROOT
BRANCH   1   8
ATOM      7  N   UNL     1       3.245   0.825   0.858  0.00  0.00    +0.000 N 
ATOM      8  C   UNL     1       2.506   0.122  -0.054  0.00  0.00    +0.000 C 
ATOM      9  O   UNL     1       1.298   0.291  -0.176  0.00  0.00    +0.000 OA
ATOM     10  H   UNL     1       2.792   1.518   1.436  0.00  0.00    +0.000 HD
ATOM     11  H   UNL     1       4.248   0.689   0.915  0.00  0.00    +0.000 HD
ENDBRANCH   1   8
BRANCH   4  12
ATOM     12  O   UNL     1       5.318  -3.403  -3.284  0.00  0.00    +0.000 OA
BRANCH  12  13
ATOM     13  C   UNL     1       4.776  -3.557  -4.596  0.00  0.00    +0.000 C 
BRANCH  13  14
ATOM     14  C   UNL     1       5.681  -4.493  -5.367  0.00  0.00    +0.000 A 
ATOM     15  C   UNL     1       5.407  -5.873  -5.336  0.00  0.00    +0.000 A 
ATOM     16  C   UNL     1       6.220  -6.781  -6.018  0.00  0.00    +0.000 A 
ATOM     17  C   UNL     1       7.322  -6.320  -6.732  0.00  0.00    +0.000 A 
ATOM     18 CL   UNL     1       8.323  -7.439  -7.572  0.00  0.00    +0.000 Cl
ATOM     19  C   UNL     1       7.621  -4.961  -6.767  0.00  0.00    +0.000 A 
ATOM     20  C   UNL     1       6.807  -4.052  -6.082  0.00  0.00    +0.000 A 
ATOM     21 CL   UNL     1       7.246  -2.382  -6.152  0.00  0.00    +0.000 Cl
ENDBRANCH  13  14
ENDBRANCH  12  13
ENDBRANCH   4  12
TORSDOF 4
