REMARK  Name = 
REMARK  6 active torsions:
REMARK  status: ('A' for Active; 'I' for Inactive)
REMARK    1  A    between atoms: C_2  and  C_4
REMARK    2  A    between atoms: N_8  and  C_9
REMARK    3  A    between atoms: C_9  and  C_10
REMARK    4  A    between atoms: C_15  and  C_16
REMARK    5  A    between atoms: C_20  and  O_21
REMARK    6  A    between atoms: O_21  and  C_22
REMARK                            x       y       z     vdW  Elec       q    Type
REMARK                         _______ _______ _______ _____ _____    ______ ____
ROOT
ATOM      1  C   UNL     1       6.937  -5.591  -3.346  0.00  0.00    +0.000 A 
ATOM      2  C   UNL     1       7.640  -5.227  -4.499  0.00  0.00    +0.000 A 
ATOM      3  C   UNL     1       8.004  -6.198  -5.426  0.00  0.00    +0.000 A 
ATOM      4  C   UNL     1       7.671  -7.535  -5.207  0.00  0.00    +0.000 A 
ATOM      5  F   UNL     1       8.021  -8.423  -6.150  0.00  0.00    +0.000 F 
ATOM      6  C   UNL     1       6.984  -7.953  -4.054  0.00  0.00    +0.000 A 
ATOM      7  C   UNL     1       6.642  -6.950  -3.124  0.00  0.00    +0.000 A 
ENDROOT
BRANCH   6   8
ATOM      8  C   UNL     1       6.634  -9.371  -3.806  0.00  0.00    +0.000 A 
ATOM      9  C   UNL     1       7.457 -10.429  -4.197  0.00  0.00    +0.000 A 
ATOM     10  N   UNL     1       7.194 -11.740  -3.978  0.00  0.00    +0.000 NA
ATOM     11  C   UNL     1       6.056 -12.022  -3.311  0.00  0.00    +0.000 A 
ATOM     12  C   UNL     1       5.170 -11.065  -2.840  0.00  0.00    +0.000 A 
ATOM     13  C   UNL     1       5.447  -9.732  -3.140  0.00  0.00    +0.000 A 
BRANCH  12  14
ATOM     14  O   UNL     1       4.075 -11.525  -2.181  0.00  0.00    +0.000 OA
BRANCH  14  15
ATOM     15  C   UNL     1       3.535 -10.755  -1.114  0.00  0.00    +0.000 C 
ATOM     16  F   UNL     1       4.243  -9.646  -0.815  0.00  0.00    +0.000 F 
ATOM     17  F   UNL     1       2.273 -10.391  -1.429  0.00  0.00    +0.000 F 
ATOM     18  F   UNL     1       3.488 -11.527  -0.005  0.00  0.00    +0.000 F 
ENDBRANCH  14  15
ENDBRANCH  12  14
ENDBRANCH   6   8
BRANCH   1  19
ATOM     19  C   UNL     1       6.520  -4.547  -2.336  0.00  0.00    +0.000 C 
BRANCH  19  24
ATOM     20  C   UNL     1       7.048  -1.584   1.591  0.00  0.00    +0.000 A 
ATOM     21  C   UNL     1       6.067  -1.845   0.669  0.00  0.00    +0.000 A 
ATOM     22  N   UNL     1       6.167  -2.799  -0.285  0.00  0.00    +0.000 NA
ATOM     23  C   UNL     1       7.314  -3.496  -0.335  0.00  0.00    +0.000 A 
ATOM     24  N   UNL     1       7.459  -4.525  -1.244  0.00  0.00    +0.000 N 
ATOM     25  N   UNL     1       8.352  -3.271   0.479  0.00  0.00    +0.000 NA
ATOM     26  C   UNL     1       8.197  -2.326   1.438  0.00  0.00    +0.000 A 
ATOM     27  H   UNL     1       8.441  -4.642  -1.460  0.00  0.00    +0.000 HD
BRANCH  20  29
ATOM     28  N   UNL     1       5.665  -0.254   3.080  0.00  0.00    +0.000 N 
ATOM     29  C   UNL     1       6.922  -0.590   2.666  0.00  0.00    +0.000 C 
ATOM     30  O   UNL     1       7.916  -0.094   3.181  0.00  0.00    +0.000 OA
ATOM     31  H   UNL     1       5.613   0.361   3.885  0.00  0.00    +0.000 HD
ATOM     32  H   UNL     1       4.844  -0.804   2.875  0.00  0.00    +0.000 HD
ENDBRANCH  20  29
ENDBRANCH  19  24
ENDBRANCH   1  19
TORSDOF 6
