REMARK  Name = 
REMARK  4 active torsions:
REMARK  status: ('A' for Active; 'I' for Inactive)
REMARK    1  A    between atoms: C_2  and  C_4
REMARK    2  A    between atoms: N_8  and  C_9
REMARK    3  A    between atoms: C_9  and  C_10
REMARK    4  A    between atoms: C_14  and  C_15
REMARK                            x       y       z     vdW  Elec       q    Type
REMARK                         _______ _______ _______ _____ _____    ______ ____
ROOT
ATOM      1  C   UNL     1       5.201  -5.428  -2.521  0.00  0.00    +0.000 C 
ATOM      2  C   UNL     1       5.278  -5.213  -4.024  0.00  0.00    +0.000 C 
ATOM      3  C   UNL     1       3.993  -5.650  -3.408  0.00  0.00    +0.000 C 
ENDROOT
BRANCH   1   8
ATOM      4  C   UNL     1       3.332  -2.869   1.615  0.00  0.00    +0.000 A 
ATOM      5  C   UNL     1       2.625  -3.537   0.623  0.00  0.00    +0.000 A 
ATOM      6  C   UNL     1       3.308  -4.033  -0.489  0.00  0.00    +0.000 A 
ATOM      7  C   UNL     1       4.680  -3.847  -0.591  0.00  0.00    +0.000 A 
ATOM      8  N   UNL     1       5.419  -4.204  -1.725  0.00  0.00    +0.000 N 
ATOM      9  N   UNL     1       5.379  -3.207   0.368  0.00  0.00    +0.000 NA
ATOM     10  C   UNL     1       4.700  -2.727   1.445  0.00  0.00    +0.000 A 
ATOM     11  H   UNL     1       6.389  -4.020  -1.472  0.00  0.00    +0.000 HD
BRANCH   4  13
ATOM     12  N   UNL     1       1.501  -2.805   3.210  0.00  0.00    +0.000 N 
ATOM     13  C   UNL     1       2.689  -2.267   2.801  0.00  0.00    +0.000 C 
ATOM     14  O   UNL     1       3.206  -1.339   3.408  0.00  0.00    +0.000 OA
ATOM     15  H   UNL     1       1.111  -2.440   4.070  0.00  0.00    +0.000 HD
ATOM     16  H   UNL     1       1.169  -3.705   2.892  0.00  0.00    +0.000 HD
ENDBRANCH   4  13
ENDBRANCH   1   8
BRANCH   1  17
ATOM     17  C   UNL     1       5.866  -6.651  -1.899  0.00  0.00    +0.000 A 
ATOM     18  C   UNL     1       7.166  -7.053  -2.240  0.00  0.00    +0.000 A 
ATOM     19  C   UNL     1       7.814  -8.069  -1.538  0.00  0.00    +0.000 A 
ATOM     20  C   UNL     1       7.181  -8.684  -0.457  0.00  0.00    +0.000 A 
ATOM     21  C   UNL     1       5.884  -8.313  -0.072  0.00  0.00    +0.000 A 
ATOM     22  C   UNL     1       5.233  -7.332  -0.842  0.00  0.00    +0.000 A 
BRANCH  21  23
ATOM     23  C   UNL     1       5.267  -8.812   1.169  0.00  0.00    +0.000 A 
ATOM     24  C   UNL     1       3.904  -9.116   1.272  0.00  0.00    +0.000 A 
ATOM     25  N   UNL     1       3.268  -9.466   2.420  0.00  0.00    +0.000 NA
ATOM     26  C   UNL     1       4.030  -9.529   3.535  0.00  0.00    +0.000 A 
ATOM     27  C   UNL     1       5.386  -9.268   3.542  0.00  0.00    +0.000 A 
ATOM     28  F   UNL     1       6.091  -9.336   4.678  0.00  0.00    +0.000 F 
ATOM     29  C   UNL     1       6.011  -8.912   2.355  0.00  0.00    +0.000 A 
ENDBRANCH  21  23
ENDBRANCH   1  17
TORSDOF 4
