REMARK  Name = 
REMARK  8 active torsions:
REMARK  status: ('A' for Active; 'I' for Inactive)
REMARK    1  A    between atoms: C_1  and  C_2
REMARK    2  A    between atoms: C_4  and  C_5
REMARK    3  A    between atoms: C_10  and  C_11
REMARK    4  A    between atoms: C_11  and  C_12
REMARK    5  A    between atoms: C_15  and  C_16
REMARK    6  A    between atoms: C_16  and  C_17
REMARK    7  A    between atoms: C_16  and  C_18
REMARK    8  A    between atoms: C_16  and  C_19
REMARK                            x       y       z     vdW  Elec       q    Type
REMARK                         _______ _______ _______ _____ _____    ______ ____
ROOT
ATOM      1  C   UNL     1      -0.713   2.383   0.082  0.00  0.00    +0.000 C 
ATOM      2  C   UNL     1      -1.615   2.920   1.198  0.00  0.00    +0.000 C 
ATOM      3  C   UNL     1      -2.167   2.840  -0.181  0.00  0.00    +0.000 C 
ENDROOT
BRANCH   1  10
ATOM      4  C   UNL     1       0.769   0.880   2.317  0.00  0.00    +0.000 C 
ATOM      5  C   UNL     1       0.173   0.170   1.131  0.00  0.00    +0.000 A 
ATOM      6  C   UNL     1       0.217  -1.232   1.092  0.00  0.00    +0.000 A 
ATOM      7  C   UNL     1      -0.312  -1.886  -0.011  0.00  0.00    +0.000 A 
ATOM      8  N   UNL     1      -0.847  -1.248  -1.083  0.00  0.00    +0.000 NA
ATOM      9  C   UNL     1      -0.889   0.099  -1.004  0.00  0.00    +0.000 A 
ATOM     10  C   UNL     1      -0.441   0.878   0.073  0.00  0.00    +0.000 A 
BRANCH   7  11
ATOM     11  C   UNL     1      -0.347  -3.384  -0.061  0.00  0.00    +0.000 C 
ATOM     12  N   UNL     1      -0.900  -3.903  -1.199  0.00  0.00    +0.000 N 
ATOM     13  O   UNL     1       0.053  -4.096   0.848  0.00  0.00    +0.000 OA
ATOM     14  H   UNL     1      -1.253  -3.266  -1.911  0.00  0.00    +0.000 HD
ATOM     15  H   UNL     1      -1.008  -4.897  -1.309  0.00  0.00    +0.000 HD
ENDBRANCH   7  11
ENDBRANCH   1  10
BRANCH   1  16
ATOM     16  C   UNL     1       0.285   3.322  -0.592  0.00  0.00    +0.000 A 
ATOM     17  C   UNL     1       0.301   3.467  -1.984  0.00  0.00    +0.000 A 
ATOM     18  C   UNL     1       0.795   4.630  -2.567  0.00  0.00    +0.000 A 
ATOM     19  C   UNL     1       1.301   5.630  -1.745  0.00  0.00    +0.000 A 
ATOM     20  N   UNL     1       1.512   5.406  -0.422  0.00  0.00    +0.000 NA
ATOM     21  C   UNL     1       1.012   4.271   0.117  0.00  0.00    +0.000 A 
BRANCH  19  22
ATOM     22  C   UNL     1       1.460   7.079  -2.214  0.00  0.00    +0.000 C 
ATOM     23  C   UNL     1       1.156   7.297  -3.710  0.00  0.00    +0.000 C 
ATOM     24  C   UNL     1       0.459   7.945  -1.412  0.00  0.00    +0.000 C 
ATOM     25  C   UNL     1       2.890   7.562  -1.931  0.00  0.00    +0.000 C 
ENDBRANCH  19  22
ENDBRANCH   1  16
TORSDOF 4
