REMARK  Name = 
REMARK  9 active torsions:
REMARK  status: ('A' for Active; 'I' for Inactive)
REMARK    1  A    between atoms: N_1  and  C_2
REMARK    2  A    between atoms: C_2  and  C_3
REMARK    3  A    between atoms: C_3  and  N_4
REMARK    4  A    between atoms: C_3  and  C_27
REMARK    5  A    between atoms: C_5  and  C_7
REMARK    6  A    between atoms: C_10  and  C_11
REMARK    7  A    between atoms: C_11  and  N_12
REMARK    8  A    between atoms: C_13  and  C_15
REMARK    9  A    between atoms: N_29  and  O_30
REMARK                            x       y       z     vdW  Elec       q    Type
REMARK                         _______ _______ _______ _____ _____    ______ ____
ROOT
ATOM      1  C   UNL     1       0.538  -1.571  -3.660  0.00  0.00    +0.000 A 
ATOM      2  C   UNL     1       1.171  -2.436  -4.545  0.00  0.00    +0.000 A 
ATOM      3  C   UNL     1       0.735  -2.474  -5.865  0.00  0.00    +0.000 A 
ATOM      4  C   UNL     1      -0.321  -1.653  -6.270  0.00  0.00    +0.000 A 
ATOM      5  C   UNL     1      -0.868  -0.795  -5.316  0.00  0.00    +0.000 A 
ATOM      6  N   UNL     1      -0.479  -0.738  -4.018  0.00  0.00    +0.000 NA
ENDROOT
BRANCH   1   8
ATOM      7  N   UNL     1       0.275  -0.714  -1.383  0.00  0.00    +0.000 N 
ATOM      8  C   UNL     1       1.008  -1.510  -2.236  0.00  0.00    +0.000 C 
ATOM      9  O   UNL     1       2.014  -2.109  -1.862  0.00  0.00    +0.000 OA
ATOM     10  H   UNL     1      -0.554  -0.258  -1.756  0.00  0.00    +0.000 HD
BRANCH   7  11
ATOM     11  C   UNL     1       0.670  -0.490   0.009  0.00  0.00    +0.000 C 
BRANCH  11  12
ATOM     12  C   UNL     1       1.760   0.594   0.118  0.00  0.00    +0.000 C 
ATOM     13  O   UNL     1       1.676   1.592   0.836  0.00  0.00    +0.000 OA
ATOM     14  N   UNL     1       2.917   0.330  -0.581  0.00  0.00    +0.000 N 
ATOM     15  H   UNL     1       3.146  -0.612  -0.904  0.00  0.00    +0.000 HD
BRANCH  14  16
ATOM     16  O   UNL     1       3.983   1.231  -0.363  0.00  0.00    +0.000 OA
ATOM     17  H   UNL     1       3.571   1.902   0.227  0.00  0.00    +0.000 HD
ENDBRANCH  14  16
ENDBRANCH  11  12
BRANCH  11  18
ATOM     18  C   UNL     1      -0.520  -0.095   0.908  0.00  0.00    +0.000 C 
BRANCH  18  19
ATOM     19  N   UNL     1      -1.619  -1.070   0.897  0.00  0.00    +0.000 NA
ATOM     20  H   UNL     1      -2.207  -0.908   1.715  0.00  0.00    +0.000 HD
ATOM     21  H   UNL     1      -1.246  -2.014   0.999  0.00  0.00    +0.000 HD
ENDBRANCH  18  19
ENDBRANCH  11  18
ENDBRANCH   7  11
ENDBRANCH   1   8
BRANCH   4  22
ATOM     22  C   UNL     1      -0.840  -1.702  -7.678  0.00  0.00    +0.000 C 
BRANCH  22  23
ATOM     23  N   UNL     1      -0.158  -0.777  -8.546  0.00  0.00    +0.000 N 
ATOM     24  C   UNL     1       0.861  -1.154  -9.381  0.00  0.00    +0.000 C 
ATOM     25  O   UNL     1       1.295  -2.303  -9.408  0.00  0.00    +0.000 OA
ATOM     26  H   UNL     1      -0.369   0.209  -8.431  0.00  0.00    +0.000 HD
BRANCH  24  27
ATOM     27  C   UNL     1       1.359  -0.128 -10.307  0.00  0.00    +0.000 A 
ATOM     28  C   UNL     1       1.993  -0.509 -11.481  0.00  0.00    +0.000 A 
ATOM     29  S   UNL     1       2.467   0.803 -12.463  0.00  0.00    +0.000 S 
ATOM     30  C   UNL     1       1.884   1.932 -11.330  0.00  0.00    +0.000 A 
ATOM     31  N   UNL     1       2.007   3.267 -11.549  0.00  0.00    +0.000 NA
ATOM     32  C   UNL     1       1.559   4.010 -10.591  0.00  0.00    +0.000 A 
ATOM     33  N   UNL     1       0.985   3.532  -9.441  0.00  0.00    +0.000 N 
ATOM     34  C   UNL     1       0.776   2.195  -9.208  0.00  0.00    +0.000 A 
ATOM     35  O   UNL     1       0.149   1.807  -8.228  0.00  0.00    +0.000 OA
ATOM     36  C   UNL     1       1.308   1.317 -10.232  0.00  0.00    +0.000 A 
ATOM     37  H   UNL     1       0.629   4.171  -8.742  0.00  0.00    +0.000 HD
ENDBRANCH  24  27
ENDBRANCH  22  23
ENDBRANCH   4  22
TORSDOF 9
