REMARK  Name = 
REMARK  8 active torsions:
REMARK  status: ('A' for Active; 'I' for Inactive)
REMARK    1  A    between atoms: C_1  and  O_2
REMARK    2  A    between atoms: O_2  and  C_3
REMARK    3  A    between atoms: C_6  and  C_7
REMARK    4  A    between atoms: N_9  and  C_10
REMARK    5  A    between atoms: C_10  and  C_11
REMARK    6  A    between atoms: C_14  and  C_15
REMARK    7  A    between atoms: C_15  and  N_16
REMARK    8  A    between atoms: C_17  and  C_19
REMARK                            x       y       z     vdW  Elec       q    Type
REMARK                         _______ _______ _______ _____ _____    ______ ____
ROOT
ATOM      1  C   UNL     1       5.697  -6.613   4.905  0.00  0.00    +0.000 A 
ATOM      2  C   UNL     1       6.567  -7.678   4.678  0.00  0.00    +0.000 A 
ATOM      3  C   UNL     1       6.089  -8.980   4.818  0.00  0.00    +0.000 A 
ATOM      4  C   UNL     1       4.757  -9.195   5.174  0.00  0.00    +0.000 A 
ATOM      5  C   UNL     1       3.975  -8.072   5.416  0.00  0.00    +0.000 A 
ATOM      6  N   UNL     1       4.413  -6.796   5.301  0.00  0.00    +0.000 NA
ENDROOT
BRANCH   1   7
ATOM      7  C   UNL     1       6.185  -5.191   4.772  0.00  0.00    +0.000 C 
BRANCH   7  10
ATOM      8  C   UNL     1       7.690  -3.711   6.018  0.00  0.00    +0.000 C 
ATOM      9  O   UNL     1       8.189  -3.264   4.990  0.00  0.00    +0.000 OA
ATOM     10  N   UNL     1       6.731  -4.693   6.020  0.00  0.00    +0.000 N 
ATOM     11  H   UNL     1       6.317  -5.040   6.875  0.00  0.00    +0.000 HD
BRANCH   8  15
ATOM     12  C   UNL     1       9.238  -2.157   9.614  0.00  0.00    +0.000 A 
ATOM     13  C   UNL     1       7.922  -2.603   9.643  0.00  0.00    +0.000 A 
ATOM     14  C   UNL     1       7.372  -3.143   8.476  0.00  0.00    +0.000 A 
ATOM     15  C   UNL     1       8.159  -3.210   7.326  0.00  0.00    +0.000 A 
ATOM     16  C   UNL     1       9.463  -2.735   7.400  0.00  0.00    +0.000 A 
ATOM     17  N   UNL     1      10.023  -2.225   8.522  0.00  0.00    +0.000 NA
BRANCH  12  19
ATOM     18  C   UNL     1      11.085  -1.165  10.639  0.00  0.00    +0.000 C 
ATOM     19  O   UNL     1       9.734  -1.603  10.776  0.00  0.00    +0.000 OA
ENDBRANCH  12  19
ENDBRANCH   8  15
ENDBRANCH   7  10
ENDBRANCH   1   7
BRANCH   4  20
ATOM     20  C   UNL     1       4.192 -10.575   5.337  0.00  0.00    +0.000 C 
BRANCH  20  21
ATOM     21  N   UNL     1       4.340 -11.047   6.691  0.00  0.00    +0.000 N 
ATOM     22  C   UNL     1       3.965 -12.319   7.044  0.00  0.00    +0.000 C 
ATOM     23  O   UNL     1       3.532 -13.119   6.219  0.00  0.00    +0.000 OA
ATOM     24  H   UNL     1       4.474 -10.350   7.417  0.00  0.00    +0.000 HD
BRANCH  22  25
ATOM     25  C   UNL     1       4.163 -12.694   8.449  0.00  0.00    +0.000 A 
ATOM     26  C   UNL     1       4.282 -14.034   8.792  0.00  0.00    +0.000 A 
ATOM     27  S   UNL     1       4.561 -14.294  10.454  0.00  0.00    +0.000 S 
ATOM     28  C   UNL     1       4.477 -12.628  10.784  0.00  0.00    +0.000 A 
ATOM     29  N   UNL     1       4.609 -12.161  12.055  0.00  0.00    +0.000 NA
ATOM     30  C   UNL     1       4.489 -10.879  12.165  0.00  0.00    +0.000 A 
ATOM     31  N   UNL     1       4.255 -10.023  11.123  0.00  0.00    +0.000 N 
ATOM     32  C   UNL     1       4.152 -10.446   9.816  0.00  0.00    +0.000 A 
ATOM     33  O   UNL     1       4.001  -9.648   8.898  0.00  0.00    +0.000 OA
ATOM     34  C   UNL     1       4.261 -11.881   9.640  0.00  0.00    +0.000 A 
ATOM     35  H   UNL     1       4.182  -9.029  11.279  0.00  0.00    +0.000 HD
ENDBRANCH  22  25
ENDBRANCH  20  21
ENDBRANCH   4  20
TORSDOF 7
