REMARK  Name = 
REMARK  8 active torsions:
REMARK  status: ('A' for Active; 'I' for Inactive)
REMARK    1  A    between atoms: C_1  and  O_2
REMARK    2  A    between atoms: O_2  and  C_3
REMARK    3  A    between atoms: C_3  and  C_4
REMARK    4  A    between atoms: C_4  and  N_5
REMARK    5  A    between atoms: C_4  and  C_18
REMARK    6  A    between atoms: C_6  and  C_8
REMARK    7  A    between atoms: C_21  and  O_22
REMARK    8  A    between atoms: O_22  and  C_23
REMARK                            x       y       z     vdW  Elec       q    Type
REMARK                         _______ _______ _______ _____ _____    ______ ____
ROOT
ATOM      1  C   UNL     1       4.329   0.570  -1.067  0.00  0.00    +0.000 C 
ENDROOT
BRANCH   1   2
ATOM      2  C   UNL     1       4.865   1.425  -2.207  0.00  0.00    +0.000 A 
ATOM      3  C   UNL     1       5.084   2.788  -1.974  0.00  0.00    +0.000 A 
ATOM      4  C   UNL     1       5.476   3.637  -3.010  0.00  0.00    +0.000 A 
ATOM      5  C   UNL     1       5.708   3.128  -4.288  0.00  0.00    +0.000 A 
ATOM      6  C   UNL     1       5.481   1.777  -4.540  0.00  0.00    +0.000 A 
ATOM      7  C   UNL     1       5.058   0.932  -3.508  0.00  0.00    +0.000 A 
BRANCH   5   8
ATOM      8  O   UNL     1       6.075   3.902  -5.367  0.00  0.00    +0.000 OA
BRANCH   8   9
ATOM      9  C   UNL     1       6.931   4.973  -5.144  0.00  0.00    +0.000 A 
ATOM     10  C   UNL     1       6.845   6.033  -6.032  0.00  0.00    +0.000 A 
ATOM     11  C   UNL     1       7.672   7.134  -5.822  0.00  0.00    +0.000 A 
ATOM     12  C   UNL     1       8.550   7.133  -4.743  0.00  0.00    +0.000 A 
ATOM     13  C   UNL     1       8.582   6.017  -3.924  0.00  0.00    +0.000 A 
ATOM     14  N   UNL     1       7.806   4.932  -4.112  0.00  0.00    +0.000 NA
ENDBRANCH   8   9
ENDBRANCH   5   8
ENDBRANCH   1   2
BRANCH   1  15
ATOM     15  N   UNL     1       4.818  -0.798  -1.125  0.00  0.00    +0.000 N 
ATOM     16  C   UNL     1       5.909  -1.242  -0.433  0.00  0.00    +0.000 C 
ATOM     17  O   UNL     1       6.561  -0.523   0.319  0.00  0.00    +0.000 OA
ATOM     18  H   UNL     1       4.348  -1.415  -1.775  0.00  0.00    +0.000 HD
BRANCH  16  19
ATOM     19  C   UNL     1       6.245  -2.661  -0.610  0.00  0.00    +0.000 A 
ATOM     20  C   UNL     1       6.999  -3.320   0.351  0.00  0.00    +0.000 A 
ATOM     21  S   UNL     1       7.324  -4.950  -0.033  0.00  0.00    +0.000 S 
ATOM     22  C   UNL     1       6.508  -4.820  -1.521  0.00  0.00    +0.000 A 
ATOM     23  N   UNL     1       6.462  -5.866  -2.390  0.00  0.00    +0.000 NA
ATOM     24  C   UNL     1       5.854  -5.611  -3.500  0.00  0.00    +0.000 A 
ATOM     25  N   UNL     1       5.264  -4.414  -3.810  0.00  0.00    +0.000 N 
ATOM     26  C   UNL     1       5.177  -3.375  -2.913  0.00  0.00    +0.000 A 
ATOM     27  O   UNL     1       4.461  -2.408  -3.143  0.00  0.00    +0.000 OA
ATOM     28  C   UNL     1       5.938  -3.570  -1.692  0.00  0.00    +0.000 A 
ATOM     29  H   UNL     1       4.750  -4.301  -4.670  0.00  0.00    +0.000 HD
ENDBRANCH  16  19
ENDBRANCH   1  15
BRANCH   1  30
ATOM     30  C   UNL     1       2.783   0.605  -1.102  0.00  0.00    +0.000 C 
BRANCH  30  32
ATOM     31  C   UNL     1       0.820   0.010   0.061  0.00  0.00    +0.000 C 
ATOM     32  O   UNL     1       2.239  -0.072   0.038  0.00  0.00    +0.000 OA
ENDBRANCH  30  32
ENDBRANCH   1  30
TORSDOF 7
