REMARK  Name = 
REMARK  9 active torsions:
REMARK  status: ('A' for Active; 'I' for Inactive)
REMARK    1  A    between atoms: C_1  and  O_2
REMARK    2  A    between atoms: O_2  and  C_3
REMARK    3  A    between atoms: C_10  and  C_11
REMARK    4  A    between atoms: N_13  and  C_14
REMARK    5  A    between atoms: C_14  and  C_15
REMARK    6  A    between atoms: C_18  and  C_19
REMARK    7  A    between atoms: C_19  and  O_20
REMARK    8  A    between atoms: O_20  and  C_21
REMARK    9  A    between atoms: C_21  and  C_22
REMARK                            x       y       z     vdW  Elec       q    Type
REMARK                         _______ _______ _______ _____ _____    ______ ____
ROOT
ATOM      1  C   UNL     1       2.913  -3.124  -1.294  0.00  0.00    +0.000 C 
ENDROOT
BRANCH   1   2
ATOM      2  C   UNL     1       1.784  -3.397  -0.334  0.00  0.00    +0.000 A 
ATOM      3  C   UNL     1       1.503  -4.684   0.148  0.00  0.00    +0.000 A 
ATOM      4  C   UNL     1       0.485  -4.885   1.093  0.00  0.00    +0.000 A 
ATOM      5  C   UNL     1      -0.252  -3.799   1.594  0.00  0.00    +0.000 A 
ATOM      6  C   UNL     1       0.015  -2.523   1.086  0.00  0.00    +0.000 A 
ATOM      7  C   UNL     1       0.992  -2.332   0.109  0.00  0.00    +0.000 A 
BRANCH   5   8
ATOM      8  C   UNL     1      -1.336  -3.971   2.630  0.00  0.00    +0.000 C 
BRANCH   8   9
ATOM      9  O   UNL     1      -0.790  -4.558   3.802  0.00  0.00    +0.000 OA
BRANCH   9  10
ATOM     10  C   UNL     1      -1.776  -4.696   4.831  0.00  0.00    +0.000 C 
BRANCH  10  11
ATOM     11  C   UNL     1      -1.159  -5.332   6.056  0.00  0.00    +0.000 A 
ATOM     12  N   UNL     1      -0.626  -4.516   6.991  0.00  0.00    +0.000 NA
ATOM     13  C   UNL     1      -0.052  -5.114   8.050  0.00  0.00    +0.000 A 
ATOM     14  C   UNL     1      -0.000  -6.477   8.217  0.00  0.00    +0.000 A 
ATOM     15  C   UNL     1      -0.576  -7.220   7.215  0.00  0.00    +0.000 A 
ATOM     16  N   UNL     1      -1.165  -6.680   6.132  0.00  0.00    +0.000 NA
ENDBRANCH  10  11
ENDBRANCH   9  10
ENDBRANCH   8   9
ENDBRANCH   5   8
ENDBRANCH   1   2
BRANCH   1  19
ATOM     17  C   UNL     1       3.340  -2.922  -3.707  0.00  0.00    +0.000 C 
ATOM     18  O   UNL     1       4.520  -2.631  -3.503  0.00  0.00    +0.000 OA
ATOM     19  N   UNL     1       2.475  -3.172  -2.675  0.00  0.00    +0.000 N 
ATOM     20  H   UNL     1       1.504  -3.390  -2.854  0.00  0.00    +0.000 HD
BRANCH  17  28
ATOM     21  C   UNL     1       0.238  -3.737  -5.054  0.00  0.00    +0.000 A 
ATOM     22  N   UNL     1      -0.826  -3.998  -5.845  0.00  0.00    +0.000 NA
ATOM     23  C   UNL     1      -0.688  -3.873  -7.164  0.00  0.00    +0.000 A 
ATOM     24  N   UNL     1       0.414  -3.521  -7.813  0.00  0.00    +0.000 NA
ATOM     25  C   UNL     1       1.456  -3.285  -6.996  0.00  0.00    +0.000 A 
ATOM     26  S   UNL     1       2.946  -2.837  -7.671  0.00  0.00    +0.000 S 
ATOM     27  C   UNL     1       3.662  -2.722  -6.137  0.00  0.00    +0.000 A 
ATOM     28  C   UNL     1       2.799  -3.014  -5.079  0.00  0.00    +0.000 A 
ATOM     29  C   UNL     1       1.477  -3.362  -5.604  0.00  0.00    +0.000 A 
BRANCH  21  31
ATOM     30  C   UNL     1      -1.309  -3.682  -3.326  0.00  0.00    +0.000 C 
ATOM     31  O   UNL     1       0.062  -3.872  -3.690  0.00  0.00    +0.000 OA
ENDBRANCH  21  31
ENDBRANCH  17  28
ENDBRANCH   1  19
TORSDOF 8
