REMARK  Name = 
REMARK  10 active torsions:
REMARK  status: ('A' for Active; 'I' for Inactive)
REMARK    1  A    between atoms: C_1  and  C_2
REMARK    2  A    between atoms: C_2  and  N_3
REMARK    3  A    between atoms: C_2  and  C_19
REMARK    4  A    between atoms: N_3  and  C_4
REMARK    5  A    between atoms: C_4  and  C_5
REMARK    6  A    between atoms: C_8  and  C_9
REMARK    7  A    between atoms: C_9  and  O_10
REMARK    8  A    between atoms: C_9  and  C_11
REMARK    9  A    between atoms: C_11  and  N_12
REMARK   10  A    between atoms: C_19  and  C_21
REMARK                            x       y       z     vdW  Elec       q    Type
REMARK                         _______ _______ _______ _____ _____    ______ ____
ROOT
ATOM      1  N   UNL     1       1.012  -0.952  -2.525  0.00  0.00    +0.000 NA
ATOM      2  H   UNL     1       0.695  -0.207  -3.153  0.00  0.00    +0.000 HD
ENDROOT
BRANCH   1   4
ATOM      3  C   UNL     1       2.934  -1.370  -3.941  0.00  0.00    +0.000 C 
ATOM      4  C   UNL     1       2.490  -0.970  -2.536  0.00  0.00    +0.000 C 
BRANCH   4   5
ATOM      5  C   UNL     1       3.052   0.426  -2.172  0.00  0.00    +0.000 C 
ATOM      6  O   UNL     1       2.554   1.446  -2.650  0.00  0.00    +0.000 OA
BRANCH   5   7
ATOM      7  C   UNL     1       4.189   0.505  -1.248  0.00  0.00    +0.000 A 
ATOM      8  C   UNL     1       5.198  -0.442  -1.203  0.00  0.00    +0.000 A 
ATOM      9  S   UNL     1       6.461  -0.022  -0.131  0.00  0.00    +0.000 S 
ATOM     10  C   UNL     1       5.687   1.429   0.309  0.00  0.00    +0.000 A 
ATOM     11  N   UNL     1       6.266   2.304   1.172  0.00  0.00    +0.000 NA
ATOM     12  C   UNL     1       5.570   3.370   1.394  0.00  0.00    +0.000 A 
ATOM     13  N   UNL     1       4.331   3.624   0.861  0.00  0.00    +0.000 N 
ATOM     14  C   UNL     1       3.644   2.696   0.103  0.00  0.00    +0.000 A 
ATOM     15  O   UNL     1       2.441   2.802  -0.102  0.00  0.00    +0.000 OA
ATOM     16  C   UNL     1       4.453   1.557  -0.299  0.00  0.00    +0.000 A 
ATOM     17  H   UNL     1       3.802   4.430   1.156  0.00  0.00    +0.000 HD
ENDBRANCH   5   7
ENDBRANCH   4   5
ENDBRANCH   1   4
BRANCH   1  18
ATOM     18  C   UNL     1       0.484  -0.671  -1.190  0.00  0.00    +0.000 C 
BRANCH  18  19
ATOM     19  C   UNL     1      -1.014  -0.688  -1.210  0.00  0.00    +0.000 A 
ATOM     20  C   UNL     1      -1.724  -1.840  -1.555  0.00  0.00    +0.000 A 
ATOM     21  C   UNL     1      -3.112  -1.824  -1.538  0.00  0.00    +0.000 A 
ATOM     22  C   UNL     1      -3.763  -0.650  -1.164  0.00  0.00    +0.000 A 
ATOM     23  N   UNL     1      -3.098   0.485  -0.825  0.00  0.00    +0.000 NA
ATOM     24  C   UNL     1      -1.748   0.439  -0.866  0.00  0.00    +0.000 A 
BRANCH  22  25
ATOM     25  C   UNL     1      -5.271  -0.628  -1.017  0.00  0.00    +0.000 C 
BRANCH  25  26
ATOM     26  O   UNL     1      -5.570  -0.284   0.344  0.00  0.00    +0.000 OA
ATOM     27  H   UNL     1      -4.982   0.470   0.540  0.00  0.00    +0.000 HD
ENDBRANCH  25  26
BRANCH  25  28
ATOM     28  C   UNL     1      -5.924   0.391  -1.987  0.00  0.00    +0.000 C 
BRANCH  28  29
ATOM     29  N   UNL     1      -7.394   0.456  -1.869  0.00  0.00    +0.000 NA
ATOM     30  C   UNL     1      -8.079  -0.790  -2.221  0.00  0.00    +0.000 C 
ATOM     31  C   UNL     1      -8.922  -0.475  -3.439  0.00  0.00    +0.000 C 
ATOM     32  C   UNL     1      -9.244   0.992  -3.267  0.00  0.00    +0.000 C 
ATOM     33  C   UNL     1      -7.980   1.557  -2.641  0.00  0.00    +0.000 C 
ENDBRANCH  28  29
ENDBRANCH  25  28
ENDBRANCH  22  25
ENDBRANCH  18  19
ENDBRANCH   1  18
TORSDOF 9
