REMARK  Name = 
REMARK  8 active torsions:
REMARK  status: ('A' for Active; 'I' for Inactive)
REMARK    1  A    between atoms: C_1  and  C_2
REMARK    2  A    between atoms: C_2  and  C_3
REMARK    3  A    between atoms: C_7  and  C_8
REMARK    4  A    between atoms: C_8  and  C_9
REMARK    5  A    between atoms: C_9  and  N_10
REMARK    6  A    between atoms: N_10  and  C_11
REMARK    7  A    between atoms: C_14  and  C_15
REMARK    8  A    between atoms: C_23  and  O_24
REMARK                            x       y       z     vdW  Elec       q    Type
REMARK                         _______ _______ _______ _____ _____    ______ ____
ROOT
ATOM      1  C   UNL     1       2.882   0.422   1.309  0.00  0.00    +0.000 A 
ATOM      2  C   UNL     1       2.616   1.690   1.843  0.00  0.00    +0.000 A 
ATOM      3  C   UNL     1       2.929   1.996   3.171  0.00  0.00    +0.000 A 
ATOM      4  C   UNL     1       3.506   1.033   4.001  0.00  0.00    +0.000 A 
ATOM      5  C   UNL     1       3.795  -0.239   3.501  0.00  0.00    +0.000 A 
ATOM      6  C   UNL     1       3.504  -0.502   2.152  0.00  0.00    +0.000 A 
ENDROOT
BRANCH   1   8
ATOM      7  C   UNL     1       0.867   0.116  -0.089  0.00  0.00    +0.000 C 
ATOM      8  C   UNL     1       2.412   0.026  -0.107  0.00  0.00    +0.000 C 
ATOM      9  C   UNL     1       3.016   1.005  -1.145  0.00  0.00    +0.000 C 
ATOM     10  C   UNL     1       2.701   0.635  -2.598  0.00  0.00    +0.000 C 
ATOM     11  C   UNL     1       3.081  -0.803  -2.943  0.00  0.00    +0.000 C 
ATOM     12  C   UNL     1       2.488  -1.800  -1.954  0.00  0.00    +0.000 C 
ATOM     13  C   UNL     1       2.815  -1.430  -0.507  0.00  0.00    +0.000 C 
BRANCH  11  14
ATOM     14  O   UNL     1       4.500  -0.940  -2.982  0.00  0.00    +0.000 OA
ATOM     15  H   UNL     1       4.870  -0.679  -2.126  0.00  0.00    +0.000 HD
ENDBRANCH  11  14
ENDBRANCH   1   8
BRANCH   5  16
ATOM     16  C   UNL     1       4.348  -1.321   4.413  0.00  0.00    +0.000 C 
BRANCH  16  17
ATOM     17  C   UNL     1       4.597  -2.653   3.690  0.00  0.00    +0.000 C 
BRANCH  17  18
ATOM     18  N   UNL     1       5.062  -3.704   4.574  0.00  0.00    +0.000 N 
ATOM     19  H   UNL     1       5.712  -3.410   5.296  0.00  0.00    +0.000 HD
BRANCH  18  20
ATOM     20  C   UNL     1       5.393  -4.943   4.015  0.00  0.00    +0.000 A 
ATOM     21  C   UNL     1       5.198  -5.286   2.667  0.00  0.00    +0.000 A 
ATOM     22  C   UNL     1       5.451  -6.580   2.199  0.00  0.00    +0.000 A 
ATOM     23  C   UNL     1       5.883  -7.573   3.079  0.00  0.00    +0.000 A 
ATOM     24  C   UNL     1       6.062  -7.254   4.428  0.00  0.00    +0.000 A 
ATOM     25  C   UNL     1       5.816  -5.955   4.883  0.00  0.00    +0.000 A 
BRANCH  23  26
ATOM     26  C   UNL     1       6.080  -8.948   2.557  0.00  0.00    +0.000 C 
ATOM     27  N   UNL     1       6.960  -9.757   3.219  0.00  0.00    +0.000 N 
ATOM     28  O   UNL     1       5.494  -9.343   1.558  0.00  0.00    +0.000 OA
ATOM     29  H   UNL     1       7.550  -9.452   3.979  0.00  0.00    +0.000 HD
ATOM     30  H   UNL     1       7.128 -10.671   2.818  0.00  0.00    +0.000 HD
ENDBRANCH  23  26
ENDBRANCH  18  20
ENDBRANCH  17  18
ENDBRANCH  16  17
ENDBRANCH   5  16
TORSDOF 7
