REMARK  Name = 
REMARK  3 active torsions:
REMARK  status: ('A' for Active; 'I' for Inactive)
REMARK    1  A    between atoms: C_2  and  C_4
REMARK    2  A    between atoms: N_8  and  C_9
REMARK    3  A    between atoms: C_9  and  C_10
REMARK                            x       y       z     vdW  Elec       q    Type
REMARK                         _______ _______ _______ _____ _____    ______ ____
ROOT
ATOM      1  C   UNL     1       4.949   4.097   4.577  0.00  0.00    +0.000 C 
ENDROOT
BRANCH   1   2
ATOM      2  C   UNL     1       5.943   5.101   5.108  0.00  0.00    +0.000 A 
ATOM      3  C   UNL     1       7.082   4.688   5.797  0.00  0.00    +0.000 A 
ATOM      4  C   UNL     1       7.904   5.654   6.363  0.00  0.00    +0.000 A 
ATOM      5  N   UNL     1       7.682   6.986   6.286  0.00  0.00    +0.000 NA
ATOM      6  C   UNL     1       6.596   7.394   5.603  0.00  0.00    +0.000 A 
ATOM      7  N   UNL     1       6.289   8.748   5.464  0.00  0.00    +0.000 N 
ATOM      8  C   UNL     1       6.917   9.678   6.409  0.00  0.00    +0.000 C 
ATOM      9  C   UNL     1       6.212  11.055   6.271  0.00  0.00    +0.000 C 
ATOM     10  N   UNL     1       6.206  11.602   4.892  0.00  0.00    +0.000 NA
ATOM     11  C   UNL     1       5.659  10.581   3.967  0.00  0.00    +0.000 C 
ATOM     12  C   UNL     1       6.376   9.219   4.070  0.00  0.00    +0.000 C 
ATOM     13  C   UNL     1       5.707   6.474   5.039  0.00  0.00    +0.000 A 
ATOM     14  H   UNL     1       7.173  11.775   4.623  0.00  0.00    +0.000 HD
ENDBRANCH   1   2
BRANCH   1  19
ATOM     15  C   UNL     1       5.750   4.350  -0.485  0.00  0.00    +0.000 A 
ATOM     16  C   UNL     1       6.106   3.342   0.405  0.00  0.00    +0.000 A 
ATOM     17  C   UNL     1       5.637   3.395   1.715  0.00  0.00    +0.000 A 
ATOM     18  C   UNL     1       4.837   4.456   2.124  0.00  0.00    +0.000 A 
ATOM     19  N   UNL     1       4.254   4.519   3.371  0.00  0.00    +0.000 N 
ATOM     20  N   UNL     1       4.507   5.452   1.277  0.00  0.00    +0.000 NA
ATOM     21  C   UNL     1       4.972   5.389   0.000  0.00  0.00    +0.000 A 
ATOM     22  H   UNL     1       3.748   5.398   3.441  0.00  0.00    +0.000 HD
BRANCH  15  24
ATOM     23  N   UNL     1       6.447   3.137  -2.469  0.00  0.00    +0.000 N 
ATOM     24  C   UNL     1       6.175   4.351  -1.900  0.00  0.00    +0.000 C 
ATOM     25  O   UNL     1       6.247   5.387  -2.547  0.00  0.00    +0.000 OA
ATOM     26  H   UNL     1       6.644   3.135  -3.462  0.00  0.00    +0.000 HD
ATOM     27  H   UNL     1       6.161   2.262  -2.052  0.00  0.00    +0.000 HD
ENDBRANCH  15  24
ENDBRANCH   1  19
TORSDOF 3
