REMARK  Name = 
REMARK  4 active torsions:
REMARK  status: ('A' for Active; 'I' for Inactive)
REMARK    1  A    between atoms: C_2  and  C_4
REMARK    2  A    between atoms: N_8  and  C_9
REMARK    3  A    between atoms: C_9  and  C_10
REMARK    4  A    between atoms: C_12  and  C_13
REMARK                            x       y       z     vdW  Elec       q    Type
REMARK                         _______ _______ _______ _____ _____    ______ ____
ROOT
ATOM      1  C   UNL     1       5.162  -4.204  -4.123  0.00  0.00    +0.000 C 
ATOM      2  C   UNL     1       5.226  -3.350  -5.377  0.00  0.00    +0.000 C 
ATOM      3  C   UNL     1       3.920  -3.951  -4.971  0.00  0.00    +0.000 C 
ENDROOT
BRANCH   1   8
ATOM      4  C   UNL     1       8.454  -1.204  -1.538  0.00  0.00    +0.000 A 
ATOM      5  C   UNL     1       8.697  -2.175  -2.506  0.00  0.00    +0.000 A 
ATOM      6  C   UNL     1       7.642  -2.982  -2.940  0.00  0.00    +0.000 A 
ATOM      7  C   UNL     1       6.367  -2.792  -2.412  0.00  0.00    +0.000 A 
ATOM      8  N   UNL     1       5.258  -3.541  -2.810  0.00  0.00    +0.000 N 
ATOM      9  N   UNL     1       6.128  -1.872  -1.453  0.00  0.00    +0.000 NA
ATOM     10  C   UNL     1       7.168  -1.109  -1.030  0.00  0.00    +0.000 A 
ATOM     11  H   UNL     1       4.431  -3.136  -2.384  0.00  0.00    +0.000 HD
BRANCH   4  13
ATOM     12  N   UNL     1      10.533   0.009  -1.862  0.00  0.00    +0.000 N 
ATOM     13  C   UNL     1       9.495  -0.291  -1.024  0.00  0.00    +0.000 C 
ATOM     14  O   UNL     1       9.414   0.211   0.089  0.00  0.00    +0.000 OA
ATOM     15  H   UNL     1      11.180   0.719  -1.542  0.00  0.00    +0.000 HD
ATOM     16  H   UNL     1      10.504  -0.181  -2.854  0.00  0.00    +0.000 HD
ENDBRANCH   4  13
ENDBRANCH   1   8
BRANCH   1  17
ATOM     17  C   UNL     1       5.664  -5.658  -4.151  0.00  0.00    +0.000 A 
ATOM     18  C   UNL     1       5.161  -6.584  -3.228  0.00  0.00    +0.000 A 
ATOM     19  C   UNL     1       5.535  -7.935  -3.275  0.00  0.00    +0.000 A 
ATOM     20  C   UNL     1       6.416  -8.309  -4.293  0.00  0.00    +0.000 A 
ATOM     21  C   UNL     1       6.892  -7.346  -5.164  0.00  0.00    +0.000 A 
ATOM     22  N   UNL     1       6.550  -6.042  -5.106  0.00  0.00    +0.000 NA
BRANCH  19  23
ATOM     23  C   UNL     1       5.006  -8.931  -2.321  0.00  0.00    +0.000 A 
ATOM     24  C   UNL     1       4.634  -8.613  -1.013  0.00  0.00    +0.000 A 
ATOM     25  C   UNL     1       4.130  -9.612  -0.182  0.00  0.00    +0.000 A 
ATOM     26  C   UNL     1       4.009 -10.906  -0.668  0.00  0.00    +0.000 A 
ATOM     27  C   UNL     1       4.405 -11.148  -1.971  0.00  0.00    +0.000 A 
ATOM     28  N   UNL     1       4.900 -10.199  -2.796  0.00  0.00    +0.000 NA
ENDBRANCH  19  23
ENDBRANCH   1  17
TORSDOF 4
