REMARK  Name = 
REMARK  7 active torsions:
REMARK  status: ('A' for Active; 'I' for Inactive)
REMARK    1  A    between atoms: C_1  and  N_2
REMARK    2  A    between atoms: N_2  and  C_3
REMARK    3  A    between atoms: C_3  and  C_4
REMARK    4  A    between atoms: C_7  and  C_8
REMARK    5  A    between atoms: C_8  and  N_9
REMARK    6  A    between atoms: C_10  and  C_12
REMARK    7  A    between atoms: C_21  and  C_23
REMARK                            x       y       z     vdW  Elec       q    Type
REMARK                         _______ _______ _______ _____ _____    ______ ____
ROOT
ATOM      1  C   UNL     1       2.096   0.143   2.453  0.00  0.00    +0.000 A 
ATOM      2  C   UNL     1       1.674  -1.094   2.968  0.00  0.00    +0.000 A 
ATOM      3  C   UNL     1       0.767  -1.148   4.027  0.00  0.00    +0.000 A 
ATOM      4  C   UNL     1       0.281   0.035   4.599  0.00  0.00    +0.000 A 
ATOM      5  C   UNL     1       0.722   1.259   4.088  0.00  0.00    +0.000 A 
ATOM      6  F   UNL     1       0.253   2.404   4.605  0.00  0.00    +0.000 F 
ATOM      7  C   UNL     1       1.618   1.324   3.030  0.00  0.00    +0.000 A 
ENDROOT
BRANCH   1   8
ATOM      8  C   UNL     1       3.001   0.202   1.251  0.00  0.00    +0.000 C 
BRANCH   8  10
ATOM      9  C   UNL     1       0.897   0.244  -0.169  0.00  0.00    +0.000 C 
ATOM     10  N   UNL     1       2.350   0.330  -0.058  0.00  0.00    +0.000 N 
ATOM     11  C   UNL     1       3.016   0.780  -1.213  0.00  0.00    +0.000 C 
ATOM     12  O   UNL     1       2.393   1.050  -2.238  0.00  0.00    +0.000 OA
BRANCH  11  13
ATOM     13  C   UNL     1       4.481   0.891  -1.209  0.00  0.00    +0.000 A 
ATOM     14  C   UNL     1       5.341  -0.059  -0.683  0.00  0.00    +0.000 A 
ATOM     15  S   UNL     1       6.992   0.316  -0.898  0.00  0.00    +0.000 S 
ATOM     16  C   UNL     1       6.612   1.685  -1.831  0.00  0.00    +0.000 A 
ATOM     17  N   UNL     1       7.585   2.412  -2.433  0.00  0.00    +0.000 NA
ATOM     18  C   UNL     1       7.146   3.377  -3.171  0.00  0.00    +0.000 A 
ATOM     19  N   UNL     1       5.820   3.705  -3.323  0.00  0.00    +0.000 N 
ATOM     20  C   UNL     1       4.813   3.088  -2.615  0.00  0.00    +0.000 A 
ATOM     21  O   UNL     1       3.684   3.567  -2.576  0.00  0.00    +0.000 OA
ATOM     22  C   UNL     1       5.248   1.912  -1.884  0.00  0.00    +0.000 A 
ATOM     23  H   UNL     1       5.549   4.516  -3.857  0.00  0.00    +0.000 HD
ENDBRANCH  11  13
ENDBRANCH   8  10
ENDBRANCH   1   8
BRANCH   4  24
ATOM     24  C   UNL     1      -0.744  -0.012   5.690  0.00  0.00    +0.000 C 
BRANCH  24  25
ATOM     25  N   UNL     1      -2.077  -0.026   5.136  0.00  0.00    +0.000 N 
ATOM     26  C   UNL     1      -3.132  -0.592   5.803  0.00  0.00    +0.000 C 
ATOM     27  O   UNL     1      -2.989  -1.211   6.854  0.00  0.00    +0.000 OA
ATOM     28  H   UNL     1      -2.265   0.579   4.346  0.00  0.00    +0.000 HD
BRANCH  26  29
ATOM     29  C   UNL     1      -4.429  -0.419   5.209  0.00  0.00    +0.000 A 
ATOM     30  N   UNL     1      -5.565  -0.947   5.784  0.00  0.00    +0.000 N 
ATOM     31  C   UNL     1      -6.633  -0.618   5.007  0.00  0.00    +0.000 A 
ATOM     32  N   UNL     1      -6.263   0.084   3.964  0.00  0.00    +0.000 NA
ATOM     33  C   UNL     1      -4.897   0.215   4.073  0.00  0.00    +0.000 A 
ATOM     34 CL   UNL     1      -4.003   1.073   2.902  0.00  0.00    +0.000 Cl
ATOM     35  H   UNL     1      -5.579  -1.486   6.641  0.00  0.00    +0.000 HD
ENDBRANCH  26  29
ENDBRANCH  24  25
ENDBRANCH   4  24
TORSDOF 6
