REMARK  Name = 
REMARK  7 active torsions:
REMARK  status: ('A' for Active; 'I' for Inactive)
REMARK    1  A    between atoms: C_2  and  C_20
REMARK    2  A    between atoms: N_3  and  C_4
REMARK    3  A    between atoms: C_4  and  C_5
REMARK    4  A    between atoms: C_8  and  C_9
REMARK    5  A    between atoms: C_9  and  C_10
REMARK    6  A    between atoms: C_10  and  O_11
REMARK    7  A    between atoms: C_10  and  C_12
REMARK                            x       y       z     vdW  Elec       q    Type
REMARK                         _______ _______ _______ _____ _____    ______ ____
ROOT
ATOM      1  C   UNL     1       2.013   0.787   2.411  0.00  0.00    +0.000 C 
ENDROOT
BRANCH   1   2
ATOM      2  C   UNL     1       2.955   0.909   3.593  0.00  0.00    +0.000 A 
ATOM      3  N   UNL     1       3.280   2.145   4.020  0.00  0.00    +0.000 NA
ATOM      4  C   UNL     1       4.220   2.222   4.984  0.00  0.00    +0.000 A 
ATOM      5  C   UNL     1       4.851   1.129   5.536  0.00  0.00    +0.000 A 
ATOM      6  C   UNL     1       4.451  -0.088   5.019  0.00  0.00    +0.000 A 
ATOM      7  N   UNL     1       3.539  -0.226   4.036  0.00  0.00    +0.000 NA
BRANCH   5   8
ATOM      8  C   UNL     1       5.847   1.238   6.656  0.00  0.00    +0.000 C 
BRANCH   8   9
ATOM      9  C   UNL     1       5.167   1.161   8.038  0.00  0.00    +0.000 C 
BRANCH   9  10
ATOM     10  C   UNL     1       6.086   1.340   9.233  0.00  0.00    +0.000 A 
ATOM     11  C   UNL     1       5.575   1.938  10.399  0.00  0.00    +0.000 A 
ATOM     12  C   UNL     1       6.351   2.048  11.554  0.00  0.00    +0.000 A 
ATOM     13  C   UNL     1       7.655   1.557  11.565  0.00  0.00    +0.000 A 
ATOM     14  C   UNL     1       8.176   0.958  10.420  0.00  0.00    +0.000 A 
ATOM     15  C   UNL     1       7.399   0.847   9.264  0.00  0.00    +0.000 A 
ENDBRANCH   9  10
BRANCH   9  16
ATOM     16  O   UNL     1       4.531  -0.112   8.162  0.00  0.00    +0.000 OA
ATOM     17  H   UNL     1       5.147  -0.710   8.619  0.00  0.00    +0.000 HD
ENDBRANCH   9  16
ENDBRANCH   8   9
ENDBRANCH   5   8
ENDBRANCH   1   2
BRANCH   1  20
ATOM     18  O   UNL     1       1.048   0.843  -0.306  0.00  0.00    +0.000 OA
ATOM     19  C   UNL     1       2.213   0.558  -0.054  0.00  0.00    +0.000 C 
ATOM     20  N   UNL     1       2.770   0.587   1.196  0.00  0.00    +0.000 N 
ATOM     21  H   UNL     1       3.653   0.111   1.338  0.00  0.00    +0.000 HD
BRANCH  19  22
ATOM     22  C   UNL     1       3.121  -0.063  -1.008  0.00  0.00    +0.000 A 
ATOM     23  C   UNL     1       2.723  -1.050  -1.886  0.00  0.00    +0.000 A 
ATOM     24  S   UNL     1       4.059  -1.971  -2.450  0.00  0.00    +0.000 S 
ATOM     25  C   UNL     1       5.170  -0.966  -1.633  0.00  0.00    +0.000 A 
ATOM     26  N   UNL     1       6.496  -1.252  -1.550  0.00  0.00    +0.000 NA
ATOM     27  C   UNL     1       7.194  -0.352  -0.935  0.00  0.00    +0.000 A 
ATOM     28  N   UNL     1       6.698   0.832  -0.445  0.00  0.00    +0.000 N 
ATOM     29  C   UNL     1       5.369   1.174  -0.523  0.00  0.00    +0.000 A 
ATOM     30  O   UNL     1       4.958   2.271  -0.168  0.00  0.00    +0.000 OA
ATOM     31  C   UNL     1       4.539   0.128  -1.081  0.00  0.00    +0.000 A 
ATOM     32  H   UNL     1       7.312   1.536  -0.062  0.00  0.00    +0.000 HD
ENDBRANCH  19  22
ENDBRANCH   1  20
TORSDOF 7
