REMARK  Name = 
REMARK  6 active torsions:
REMARK  status: ('A' for Active; 'I' for Inactive)
REMARK    1  A    between atoms: C_2  and  C_19
REMARK    2  A    between atoms: N_3  and  C_4
REMARK    3  A    between atoms: C_4  and  C_5
REMARK    4  A    between atoms: C_8  and  C_9
REMARK    5  A    between atoms: C_9  and  O_10
REMARK    6  A    between atoms: C_9  and  C_11
REMARK                            x       y       z     vdW  Elec       q    Type
REMARK                         _______ _______ _______ _____ _____    ______ ____
ROOT
ATOM      1  C   UNL     1       9.807  -6.513   3.103  0.00  0.00    +0.000 C 
ENDROOT
BRANCH   1   2
ATOM      2  C   UNL     1       8.790  -6.542   2.001  0.00  0.00    +0.000 A 
ATOM      3  C   UNL     1       8.849  -7.512   1.009  0.00  0.00    +0.000 A 
ATOM      4  N   UNL     1       7.925  -7.615   0.025  0.00  0.00    +0.000 NA
ATOM      5  C   UNL     1       6.935  -6.682   0.039  0.00  0.00    +0.000 A 
ATOM      6  C   UNL     1       6.910  -5.678   1.004  0.00  0.00    +0.000 A 
ATOM      7  N   UNL     1       7.821  -5.586   2.002  0.00  0.00    +0.000 NA
BRANCH   5   8
ATOM      8  C   UNL     1       5.787  -6.841  -0.940  0.00  0.00    +0.000 C 
BRANCH   8   9
ATOM      9  C   UNL     1       4.656  -7.759  -0.481  0.00  0.00    +0.000 A 
ATOM     10  C   UNL     1       3.626  -8.070  -1.389  0.00  0.00    +0.000 A 
ATOM     11  C   UNL     1       2.578  -8.916  -1.024  0.00  0.00    +0.000 A 
ATOM     12  C   UNL     1       2.540  -9.468   0.253  0.00  0.00    +0.000 A 
ATOM     13  C   UNL     1       3.547  -9.173   1.167  0.00  0.00    +0.000 A 
ATOM     14  C   UNL     1       4.595  -8.324   0.804  0.00  0.00    +0.000 A 
ENDBRANCH   8   9
BRANCH   8  15
ATOM     15  O   UNL     1       5.262  -5.549  -1.279  0.00  0.00    +0.000 OA
ATOM     16  H   UNL     1       4.325  -5.538  -1.022  0.00  0.00    +0.000 HD
ENDBRANCH   8  15
ENDBRANCH   5   8
ENDBRANCH   1   2
BRANCH   1  19
ATOM     17  O   UNL     1      12.120  -7.414   1.776  0.00  0.00    +0.000 OA
ATOM     18  C   UNL     1      12.064  -6.245   2.147  0.00  0.00    +0.000 C 
ATOM     19  N   UNL     1      10.958  -5.722   2.756  0.00  0.00    +0.000 N 
ATOM     20  H   UNL     1      10.943  -4.755   3.052  0.00  0.00    +0.000 HD
BRANCH  18  21
ATOM     21  C   UNL     1      13.157  -5.301   1.911  0.00  0.00    +0.000 A 
ATOM     22  C   UNL     1      14.040  -5.494   0.860  0.00  0.00    +0.000 A 
ATOM     23  S   UNL     1      15.206  -4.254   0.723  0.00  0.00    +0.000 S 
ATOM     24  C   UNL     1      14.592  -3.445   2.089  0.00  0.00    +0.000 A 
ATOM     25  N   UNL     1      15.145  -2.282   2.527  0.00  0.00    +0.000 NA
ATOM     26  C   UNL     1      14.596  -1.795   3.590  0.00  0.00    +0.000 A 
ATOM     27  N   UNL     1      13.548  -2.369   4.261  0.00  0.00    +0.000 N 
ATOM     28  C   UNL     1      12.944  -3.531   3.847  0.00  0.00    +0.000 A 
ATOM     29  O   UNL     1      11.982  -3.993   4.451  0.00  0.00    +0.000 OA
ATOM     30  C   UNL     1      13.518  -4.113   2.647  0.00  0.00    +0.000 A 
ATOM     31  H   UNL     1      13.160  -1.938   5.087  0.00  0.00    +0.000 HD
ENDBRANCH  18  21
ENDBRANCH   1  19
TORSDOF 6
