REMARK  Name = 
REMARK  8 active torsions:
REMARK  status: ('A' for Active; 'I' for Inactive)
REMARK    1  A    between atoms: N_1  and  C_2
REMARK    2  A    between atoms: C_2  and  C_3
REMARK    3  A    between atoms: C_2  and  C_19
REMARK    4  A    between atoms: C_3  and  C_4
REMARK    5  A    between atoms: C_7  and  C_8
REMARK    6  A    between atoms: C_8  and  O_9
REMARK    7  A    between atoms: C_8  and  C_10
REMARK    8  A    between atoms: C_10  and  N_11
REMARK                            x       y       z     vdW  Elec       q    Type
REMARK                         _______ _______ _______ _____ _____    ______ ____
ROOT
ATOM      1  C   UNL     1       1.049  -0.011  -0.035  0.00  0.00    +0.000 C 
ENDROOT
BRANCH   1   2
ATOM      2  C   UNL     1       0.550  -1.087  -0.962  0.00  0.00    +0.000 A 
ATOM      3  C   UNL     1       1.441  -1.867  -1.703  0.00  0.00    +0.000 A 
ATOM      4  C   UNL     1       0.954  -2.806  -2.608  0.00  0.00    +0.000 A 
ATOM      5  C   UNL     1      -0.422  -2.939  -2.762  0.00  0.00    +0.000 A 
ATOM      6  N   UNL     1      -1.307  -2.222  -2.022  0.00  0.00    +0.000 NA
ATOM      7  C   UNL     1      -0.807  -1.314  -1.154  0.00  0.00    +0.000 A 
BRANCH   5   8
ATOM      8  C   UNL     1      -0.974  -3.932  -3.772  0.00  0.00    +0.000 C 
BRANCH   8   9
ATOM      9  O   UNL     1      -1.117  -5.209  -3.145  0.00  0.00    +0.000 OA
ATOM     10  H   UNL     1      -1.667  -5.052  -2.356  0.00  0.00    +0.000 HD
ENDBRANCH   8   9
BRANCH   8  11
ATOM     11  C   UNL     1      -2.328  -3.432  -4.352  0.00  0.00    +0.000 C 
BRANCH  11  12
ATOM     12  N   UNL     1      -2.953  -4.268  -5.406  0.00  0.00    +0.000 NA
ATOM     13  C   UNL     1      -2.106  -4.437  -6.604  0.00  0.00    +0.000 C 
ATOM     14  C   UNL     1      -1.949  -3.149  -7.428  0.00  0.00    +0.000 C 
ATOM     15  O   UNL     1      -3.223  -2.634  -7.835  0.00  0.00    +0.000 OA
ATOM     16  C   UNL     1      -4.072  -2.402  -6.703  0.00  0.00    +0.000 C 
ATOM     17  C   UNL     1      -4.238  -3.671  -5.845  0.00  0.00    +0.000 C 
ENDBRANCH  11  12
ENDBRANCH   8  11
ENDBRANCH   5   8
ENDBRANCH   1   2
BRANCH   1  18
ATOM     18  C   UNL     1       0.623  -0.153   1.443  0.00  0.00    +0.000 C 
BRANCH  18  19
ATOM     19  C   UNL     1       1.190   0.978   2.280  0.00  0.00    +0.000 A 
ATOM     20  C   UNL     1       2.442   1.002   2.877  0.00  0.00    +0.000 A 
ATOM     21  S   UNL     1       2.736   2.422   3.781  0.00  0.00    +0.000 S 
ATOM     22  C   UNL     1       1.216   3.070   3.370  0.00  0.00    +0.000 A 
ATOM     23  N   UNL     1       0.817   4.286   3.828  0.00  0.00    +0.000 NA
ATOM     24  C   UNL     1      -0.351   4.649   3.418  0.00  0.00    +0.000 A 
ATOM     25  N   UNL     1      -1.157   3.912   2.583  0.00  0.00    +0.000 N 
ATOM     26  C   UNL     1      -0.784   2.692   2.068  0.00  0.00    +0.000 A 
ATOM     27  O   UNL     1      -1.485   2.086   1.264  0.00  0.00    +0.000 OA
ATOM     28  C   UNL     1       0.507   2.223   2.541  0.00  0.00    +0.000 A 
ATOM     29  H   UNL     1      -2.049   4.271   2.276  0.00  0.00    +0.000 HD
ENDBRANCH  18  19
BRANCH  18  30
ATOM     30  N   UNL     1       1.044  -1.430   2.029  0.00  0.00    +0.000 NA
ATOM     31  H   UNL     1       0.859  -1.422   3.031  0.00  0.00    +0.000 HD
ATOM     32  H   UNL     1       2.043  -1.567   1.904  0.00  0.00    +0.000 HD
ENDBRANCH  18  30
ENDBRANCH   1  18
TORSDOF 8
