REMARK  Name = 
REMARK  7 active torsions:
REMARK  status: ('A' for Active; 'I' for Inactive)
REMARK    1  A    between atoms: C_2  and  C_19
REMARK    2  A    between atoms: N_3  and  C_4
REMARK    3  A    between atoms: C_4  and  C_5
REMARK    4  A    between atoms: C_8  and  C_9
REMARK    5  A    between atoms: C_9  and  N_10
REMARK    6  A    between atoms: N_10  and  C_11
REMARK    7  A    between atoms: C_11  and  C_12
REMARK                            x       y       z     vdW  Elec       q    Type
REMARK                         _______ _______ _______ _____ _____    ______ ____
ROOT
ATOM      1  C   UNL     1       2.327  -2.303   0.453  0.00  0.00    +0.000 C 
ENDROOT
BRANCH   1   2
ATOM      2  C   UNL     1       3.276  -3.444   0.700  0.00  0.00    +0.000 A 
ATOM      3  C   UNL     1       4.580  -3.188   1.138  0.00  0.00    +0.000 A 
ATOM      4  C   UNL     1       5.462  -4.239   1.397  0.00  0.00    +0.000 A 
ATOM      5  C   UNL     1       5.061  -5.573   1.236  0.00  0.00    +0.000 A 
ATOM      6  C   UNL     1       3.770  -5.825   0.748  0.00  0.00    +0.000 A 
ATOM      7  C   UNL     1       2.888  -4.773   0.479  0.00  0.00    +0.000 A 
BRANCH   5   8
ATOM      8  C   UNL     1       6.008  -6.723   1.507  0.00  0.00    +0.000 C 
BRANCH   8   9
ATOM      9  N   UNL     1       6.958  -6.422   2.581  0.00  0.00    +0.000 NA
ATOM     10  H   UNL     1       6.437  -6.211   3.431  0.00  0.00    +0.000 HD
BRANCH   9  11
ATOM     11  C   UNL     1       7.882  -7.530   2.813  0.00  0.00    +0.000 C 
BRANCH  11  12
ATOM     12  C   UNL     1       8.887  -7.191   3.932  0.00  0.00    +0.000 C 
ATOM     13  C   UNL     1       9.761  -5.979   3.626  0.00  0.00    +0.000 C 
ATOM     14  C   UNL     1      10.879  -6.573   2.796  0.00  0.00    +0.000 C 
ATOM     15  N   UNL     1      11.166  -7.862   3.437  0.00  0.00    +0.000 NA
ATOM     16  C   UNL     1       9.920  -8.311   4.086  0.00  0.00    +0.000 C 
ATOM     17  H   UNL     1      11.867  -7.709   4.164  0.00  0.00    +0.000 HD
ENDBRANCH  11  12
ENDBRANCH   9  11
ENDBRANCH   8   9
ENDBRANCH   5   8
ENDBRANCH   1   2
BRANCH   1  20
ATOM     18  O   UNL     1       3.820  -0.054  -0.388  0.00  0.00    +0.000 OA
ATOM     19  C   UNL     1       3.223  -0.724  -1.226  0.00  0.00    +0.000 C 
ATOM     20  N   UNL     1       2.440  -1.797  -0.891  0.00  0.00    +0.000 N 
ATOM     21  H   UNL     1       2.098  -2.411  -1.622  0.00  0.00    +0.000 HD
BRANCH  19  22
ATOM     22  C   UNL     1       3.265  -0.378  -2.654  0.00  0.00    +0.000 A 
ATOM     23  C   UNL     1       3.603   0.911  -3.044  0.00  0.00    +0.000 A 
ATOM     24  S   UNL     1       3.601   1.137  -4.735  0.00  0.00    +0.000 S 
ATOM     25  C   UNL     1       3.191  -0.491  -5.007  0.00  0.00    +0.000 A 
ATOM     26  N   UNL     1       3.067  -0.980  -6.271  0.00  0.00    +0.000 NA
ATOM     27  C   UNL     1       2.795  -2.240  -6.333  0.00  0.00    +0.000 A 
ATOM     28  N   UNL     1       2.620  -3.054  -5.243  0.00  0.00    +0.000 N 
ATOM     29  C   UNL     1       2.645  -2.586  -3.951  0.00  0.00    +0.000 A 
ATOM     30  O   UNL     1       2.323  -3.307  -3.015  0.00  0.00    +0.000 OA
ATOM     31  C   UNL     1       3.017  -1.189  -3.825  0.00  0.00    +0.000 A 
ATOM     32  H   UNL     1       2.367  -4.025  -5.358  0.00  0.00    +0.000 HD
ENDBRANCH  19  22
ENDBRANCH   1  20
TORSDOF 7
