REMARK  Name = 
REMARK  11 active torsions:
REMARK  status: ('A' for Active; 'I' for Inactive)
REMARK    1  A    between atoms: C_1  and  C_2
REMARK    2  A    between atoms: C_2  and  C_3
REMARK    3  A    between atoms: C_2  and  N_26
REMARK    4  A    between atoms: C_3  and  C_4
REMARK    5  A    between atoms: C_7  and  C_8
REMARK    6  A    between atoms: C_8  and  O_9
REMARK    7  A    between atoms: C_8  and  C_10
REMARK    8  A    between atoms: C_10  and  N_11
REMARK    9  A    between atoms: C_12  and  C_14
REMARK   10  A    between atoms: N_26  and  C_27
REMARK   11  A    between atoms: C_31  and  C_32
REMARK                            x       y       z     vdW  Elec       q    Type
REMARK                         _______ _______ _______ _____ _____    ______ ____
ROOT
ATOM      1  C   UNL     1      -1.414   5.687   4.357  0.00  0.00    +0.000 A 
ATOM      2  C   UNL     1      -0.593   6.178   5.377  0.00  0.00    +0.000 A 
ATOM      3  C   UNL     1       0.550   5.471   5.761  0.00  0.00    +0.000 A 
ATOM      4  C   UNL     1       0.880   4.246   5.157  0.00  0.00    +0.000 A 
ATOM      5  C   UNL     1       0.121   3.826   4.057  0.00  0.00    +0.000 A 
ATOM      6  C   UNL     1      -1.013   4.539   3.663  0.00  0.00    +0.000 A 
ENDROOT
BRANCH   1   7
ATOM      7  C   UNL     1      -2.746   6.328   4.047  0.00  0.00    +0.000 C 
BRANCH   7   9
ATOM      8  C   UNL     1      -4.223   8.045   3.013  0.00  0.00    +0.000 C 
ATOM      9  C   UNL     1      -2.767   7.571   3.131  0.00  0.00    +0.000 C 
BRANCH   9  10
ATOM     10  N   UNL     1      -2.267   7.261   1.787  0.00  0.00    +0.000 N 
ATOM     11  H   UNL     1      -2.899   7.491   1.023  0.00  0.00    +0.000 HD
BRANCH  10  12
ATOM     12  C   UNL     1      -0.926   7.392   1.430  0.00  0.00    +0.000 A 
ATOM     13  C   UNL     1       0.071   7.868   2.288  0.00  0.00    +0.000 A 
ATOM     14  C   UNL     1       1.416   7.901   1.911  0.00  0.00    +0.000 A 
ATOM     15  C   UNL     1       1.797   7.427   0.662  0.00  0.00    +0.000 A 
ATOM     16  C   UNL     1       0.830   6.916  -0.205  0.00  0.00    +0.000 A 
ATOM     17  C   UNL     1      -0.520   6.907   0.177  0.00  0.00    +0.000 A 
BRANCH  16  18
ATOM     18  C   UNL     1       1.227   6.375  -1.471  0.00  0.00    +0.000 C 
ATOM     19  N   UNL     1       1.559   5.933  -2.492  0.00  0.00    +0.000 NA
ENDBRANCH  16  18
ENDBRANCH  10  12
ENDBRANCH   9  10
ENDBRANCH   7   9
ENDBRANCH   1   7
BRANCH   4  20
ATOM     20  C   UNL     1       1.982   3.391   5.762  0.00  0.00    +0.000 C 
BRANCH  20  21
ATOM     21  O   UNL     1       2.180   2.188   5.003  0.00  0.00    +0.000 OA
ATOM     22  H   UNL     1       1.395   1.630   5.143  0.00  0.00    +0.000 HD
ENDBRANCH  20  21
BRANCH  20  23
ATOM     23  C   UNL     1       1.612   3.006   7.214  0.00  0.00    +0.000 C 
BRANCH  23  24
ATOM     24  N   UNL     1       2.630   2.210   7.870  0.00  0.00    +0.000 N 
ATOM     25  C   UNL     1       3.622   2.763   8.633  0.00  0.00    +0.000 C 
ATOM     26  O   UNL     1       3.719   3.981   8.770  0.00  0.00    +0.000 OA
ATOM     27  H   UNL     1       2.657   1.221   7.637  0.00  0.00    +0.000 HD
BRANCH  25  28
ATOM     28  C   UNL     1       4.540   1.836   9.311  0.00  0.00    +0.000 A 
ATOM     29  C   UNL     1       5.548   2.349  10.117  0.00  0.00    +0.000 A 
ATOM     30  S   UNL     1       6.489   1.158  10.889  0.00  0.00    +0.000 S 
ATOM     31  C   UNL     1       5.584  -0.093  10.175  0.00  0.00    +0.000 A 
ATOM     32  N   UNL     1       5.867  -1.395  10.448  0.00  0.00    +0.000 NA
ATOM     33  C   UNL     1       5.102  -2.247   9.857  0.00  0.00    +0.000 A 
ATOM     34  N   UNL     1       4.084  -1.916   9.001  0.00  0.00    +0.000 N 
ATOM     35  C   UNL     1       3.784  -0.615   8.666  0.00  0.00    +0.000 A 
ATOM     36  O   UNL     1       2.901  -0.365   7.850  0.00  0.00    +0.000 OA
ATOM     37  C   UNL     1       4.592   0.389   9.338  0.00  0.00    +0.000 A 
ATOM     38  H   UNL     1       3.533  -2.629   8.549  0.00  0.00    +0.000 HD
ENDBRANCH  25  28
ENDBRANCH  23  24
ENDBRANCH  20  23
ENDBRANCH   4  20
TORSDOF 10
