REMARK  Name = 
REMARK  4 active torsions:
REMARK  status: ('A' for Active; 'I' for Inactive)
REMARK    1  A    between atoms: C_2  and  C_4
REMARK    2  A    between atoms: N_8  and  C_9
REMARK    3  A    between atoms: C_9  and  C_10
REMARK    4  A    between atoms: C_15  and  C_16
REMARK                            x       y       z     vdW  Elec       q    Type
REMARK                         _______ _______ _______ _____ _____    ______ ____
ROOT
ATOM      1  C   UNL     1       6.052   1.505   6.996  0.00  0.00    +0.000 A 
ATOM      2  C   UNL     1       6.140   2.868   7.286  0.00  0.00    +0.000 A 
ATOM      3  C   UNL     1       7.043   3.309   8.245  0.00  0.00    +0.000 A 
ATOM      4  F   UNL     1       7.128   4.619   8.512  0.00  0.00    +0.000 F 
ATOM      5  C   UNL     1       7.870   2.419   8.927  0.00  0.00    +0.000 A 
ATOM      6  C   UNL     1       7.807   1.040   8.671  0.00  0.00    +0.000 A 
ATOM      7  C   UNL     1       6.884   0.610   7.696  0.00  0.00    +0.000 A 
ENDROOT
BRANCH   6   8
ATOM      8  C   UNL     1       8.665   0.070   9.393  0.00  0.00    +0.000 A 
ATOM      9  C   UNL     1       9.124  -1.104   8.780  0.00  0.00    +0.000 A 
ATOM     10  C   UNL     1       9.899  -1.992   9.509  0.00  0.00    +0.000 A 
ATOM     11  N   UNL     1      10.264  -1.795  10.791  0.00  0.00    +0.000 NA
ATOM     12  C   UNL     1       9.836  -0.669  11.377  0.00  0.00    +0.000 A 
ATOM     13  N   UNL     1      10.260  -0.451  12.686  0.00  0.00    +0.000 N 
ATOM     14  C   UNL     1       9.050   0.274  10.726  0.00  0.00    +0.000 A 
ATOM     15  H   UNL     1      10.766  -1.285  12.972  0.00  0.00    +0.000 HD
ATOM     16  H   UNL     1       9.485  -0.246  13.304  0.00  0.00    +0.000 HD
ENDBRANCH   6   8
BRANCH   1  17
ATOM     17  C   UNL     1       5.120   0.997   5.923  0.00  0.00    +0.000 C 
BRANCH  17  22
ATOM     18  C   UNL     1       0.580   1.097   8.300  0.00  0.00    +0.000 A 
ATOM     19  C   UNL     1       1.053   1.928   7.291  0.00  0.00    +0.000 A 
ATOM     20  C   UNL     1       2.261   1.622   6.667  0.00  0.00    +0.000 A 
ATOM     21  C   UNL     1       2.983   0.503   7.068  0.00  0.00    +0.000 A 
ATOM     22  N   UNL     1       4.132   0.073   6.443  0.00  0.00    +0.000 N 
ATOM     23  N   UNL     1       2.543  -0.297   8.061  0.00  0.00    +0.000 NA
ATOM     24  C   UNL     1       1.364   0.015   8.663  0.00  0.00    +0.000 A 
ATOM     25  H   UNL     1       4.499  -0.701   6.990  0.00  0.00    +0.000 HD
BRANCH  18  27
ATOM     26  N   UNL     1      -1.671   2.010   8.296  0.00  0.00    +0.000 N 
ATOM     27  C   UNL     1      -0.709   1.323   8.986  0.00  0.00    +0.000 C 
ATOM     28  O   UNL     1      -0.923   0.885  10.108  0.00  0.00    +0.000 OA
ATOM     29  H   UNL     1      -2.582   2.066   8.734  0.00  0.00    +0.000 HD
ATOM     30  H   UNL     1      -1.626   2.157   7.298  0.00  0.00    +0.000 HD
ENDBRANCH  18  27
ENDBRANCH  17  22
ENDBRANCH   1  17
TORSDOF 4
