REMARK  Name = 
REMARK  7 active torsions:
REMARK  status: ('A' for Active; 'I' for Inactive)
REMARK    1  A    between atoms: C_1  and  C_2
REMARK    2  A    between atoms: C_2  and  C_3
REMARK    3  A    between atoms: C_2  and  C_14
REMARK    4  A    between atoms: C_3  and  N_4
REMARK    5  A    between atoms: N_4  and  C_5
REMARK    6  A    between atoms: C_8  and  C_9
REMARK    7  A    between atoms: C_18  and  C_19
REMARK                            x       y       z     vdW  Elec       q    Type
REMARK                         _______ _______ _______ _____ _____    ______ ____
ROOT
ATOM      1  N   UNL     1       2.704  -2.069  -1.524  0.00  0.00    +0.000 N 
ATOM      2  H   UNL     1       1.699  -2.226  -1.474  0.00  0.00    +0.000 HD
ENDROOT
BRANCH   1   3
ATOM      3  C   UNL     1       3.278  -2.760  -2.602  0.00  0.00    +0.000 A 
ATOM      4  C   UNL     1       2.628  -3.877  -3.136  0.00  0.00    +0.000 A 
ATOM      5  C   UNL     1       3.206  -4.594  -4.186  0.00  0.00    +0.000 A 
ATOM      6  C   UNL     1       4.449  -4.190  -4.654  0.00  0.00    +0.000 A 
ATOM      7  N   UNL     1       5.147  -3.147  -4.136  0.00  0.00    +0.000 NA
ATOM      8  C   UNL     1       4.550  -2.484  -3.119  0.00  0.00    +0.000 A 
BRANCH   6   9
ATOM      9  C   UNL     1       5.093  -4.919  -5.794  0.00  0.00    +0.000 C 
ATOM     10  N   UNL     1       6.314  -4.437  -6.184  0.00  0.00    +0.000 N 
ATOM     11  O   UNL     1       4.567  -5.874  -6.348  0.00  0.00    +0.000 OA
ATOM     12  H   UNL     1       6.717  -3.642  -5.700  0.00  0.00    +0.000 HD
ATOM     13  H   UNL     1       6.801  -4.878  -6.950  0.00  0.00    +0.000 HD
ENDBRANCH   6   9
ENDBRANCH   1   3
BRANCH   1  14
ATOM     14  C   UNL     1       3.031  -0.649  -1.422  0.00  0.00    +0.000 C 
BRANCH  14  16
ATOM     15  C   UNL     1       2.647  -0.470   1.117  0.00  0.00    +0.000 C 
ATOM     16  C   UNL     1       2.255  -0.083  -0.276  0.00  0.00    +0.000 C 
BRANCH  16  17
ATOM     17  C   UNL     1       0.948   0.535  -0.524  0.00  0.00    +0.000 A 
ATOM     18  C   UNL     1       0.781   1.529  -1.497  0.00  0.00    +0.000 A 
ATOM     19  C   UNL     1      -0.477   2.090  -1.730  0.00  0.00    +0.000 A 
ATOM     20  C   UNL     1      -1.580   1.658  -0.995  0.00  0.00    +0.000 A 
ATOM     21  C   UNL     1      -1.425   0.665  -0.026  0.00  0.00    +0.000 A 
ATOM     22  C   UNL     1      -0.165   0.111   0.210  0.00  0.00    +0.000 A 
BRANCH  21  23
ATOM     23  C   UNL     1      -2.555   0.200   0.721  0.00  0.00    +0.000 C 
ATOM     24  N   UNL     1      -3.463  -0.189   1.326  0.00  0.00    +0.000 NA
ENDBRANCH  21  23
ENDBRANCH  16  17
ENDBRANCH  14  16
ENDBRANCH   1  14
TORSDOF 6
