REMARK  Name = 
REMARK  9 active torsions:
REMARK  status: ('A' for Active; 'I' for Inactive)
REMARK    1  A    between atoms: C_1  and  C_2
REMARK    2  A    between atoms: C_2  and  C_3
REMARK    3  A    between atoms: C_2  and  C_4
REMARK    4  A    between atoms: C_2  and  C_5
REMARK    5  A    between atoms: N_7  and  C_8
REMARK    6  A    between atoms: C_8  and  C_9
REMARK    7  A    between atoms: C_12  and  C_13
REMARK    8  A    between atoms: C_13  and  C_14
REMARK    9  A    between atoms: C_14  and  N_15
REMARK                            x       y       z     vdW  Elec       q    Type
REMARK                         _______ _______ _______ _____ _____    ______ ____
ROOT
ATOM      1  C   UNL     1       3.034  -1.431   0.359  0.00  0.00    +0.000 A 
ATOM      2  C   UNL     1       4.071  -1.723   1.231  0.00  0.00    +0.000 A 
ATOM      3  N   UNL     1       4.149  -3.082   1.408  0.00  0.00    +0.000 N 
ATOM      4  C   UNL     1       3.190  -3.709   0.643  0.00  0.00    +0.000 A 
ATOM      5  C   UNL     1       2.888  -5.074   0.490  0.00  0.00    +0.000 A 
ATOM      6  C   UNL     1       1.843  -5.433  -0.364  0.00  0.00    +0.000 A 
ATOM      7  C   UNL     1       1.123  -4.464  -1.048  0.00  0.00    +0.000 A 
ATOM      8  C   UNL     1       1.430  -3.109  -0.889  0.00  0.00    +0.000 A 
ATOM      9  C   UNL     1       2.481  -2.708  -0.031  0.00  0.00    +0.000 A 
ENDROOT
BRANCH   1  11
ATOM     10  C   UNL     1       3.437   1.080   0.544  0.00  0.00    +0.000 C 
ATOM     11  C   UNL     1       2.554  -0.038  -0.059  0.00  0.00    +0.000 C 
ATOM     12  C   UNL     1       1.114   0.196   0.440  0.00  0.00    +0.000 C 
ATOM     13  C   UNL     1       2.600   0.135  -1.592  0.00  0.00    +0.000 C 
ENDBRANCH   1  11
BRANCH   3  14
ATOM     14  C   UNL     1       5.062  -3.741   2.339  0.00  0.00    +0.000 C 
BRANCH  14  15
ATOM     15  C   UNL     1       6.323  -4.176   1.648  0.00  0.00    +0.000 A 
ATOM     16  C   UNL     1       7.415  -3.320   1.561  0.00  0.00    +0.000 A 
ATOM     17  N   UNL     1       8.528  -3.612   0.846  0.00  0.00    +0.000 NA
ATOM     18  C   UNL     1       8.511  -4.792   0.179  0.00  0.00    +0.000 A 
ATOM     19  C   UNL     1       7.446  -5.676   0.314  0.00  0.00    +0.000 A 
ATOM     20  N   UNL     1       6.347  -5.398   1.055  0.00  0.00    +0.000 NA
BRANCH  18  21
ATOM     21  C   UNL     1       9.633  -5.067  -0.786  0.00  0.00    +0.000 C 
BRANCH  21  22
ATOM     22  C   UNL     1      10.825  -5.774  -0.144  0.00  0.00    +0.000 C 
BRANCH  22  23
ATOM     23  N   UNL     1      11.883  -5.994  -1.132  0.00  0.00    +0.000 NA
ATOM     24  H   UNL     1      11.553  -6.610  -1.874  0.00  0.00    +0.000 HD
ATOM     25  H   UNL     1      12.672  -6.466  -0.692  0.00  0.00    +0.000 HD
ENDBRANCH  22  23
ENDBRANCH  21  22
ENDBRANCH  18  21
ENDBRANCH  14  15
ENDBRANCH   3  14
TORSDOF 6
