REMARK  Name = 
REMARK  5 active torsions:
REMARK  status: ('A' for Active; 'I' for Inactive)
REMARK    1  A    between atoms: C_1  and  C_2
REMARK    2  A    between atoms: C_2  and  O_3
REMARK    3  A    between atoms: C_2  and  C_13
REMARK    4  A    between atoms: O_3  and  C_4
REMARK    5  A    between atoms: C_7  and  C_8
REMARK                            x       y       z     vdW  Elec       q    Type
REMARK                         _______ _______ _______ _____ _____    ______ ____
ROOT
ATOM      1  C   UNL     1       0.624   0.254   1.385  0.00  0.00    +0.000 A 
ATOM      2  C   UNL     1      -0.667   0.783   1.465  0.00  0.00    +0.000 A 
ATOM      3  C   UNL     1      -1.251   1.043   2.708  0.00  0.00    +0.000 A 
ATOM      4  C   UNL     1      -0.550   0.760   3.886  0.00  0.00    +0.000 A 
ATOM      5  C   UNL     1       0.741   0.233   3.808  0.00  0.00    +0.000 A 
ATOM      6  C   UNL     1       1.314  -0.038   2.563  0.00  0.00    +0.000 A 
ENDROOT
BRANCH   4   7
ATOM      7  C   UNL     1      -1.198   1.041   5.194  0.00  0.00    +0.000 C 
ATOM      8  N   UNL     1      -0.740   0.347   6.282  0.00  0.00    +0.000 N 
ATOM      9  O   UNL     1      -2.122   1.834   5.298  0.00  0.00    +0.000 OA
ATOM     10  H   UNL     1      -0.155  -0.472   6.205  0.00  0.00    +0.000 HD
ATOM     11  H   UNL     1      -1.257   0.473   7.141  0.00  0.00    +0.000 HD
ENDBRANCH   4   7
BRANCH   1  12
ATOM     12  O   UNL     1       1.105   0.053   0.119  0.00  0.00    +0.000 OA
BRANCH  12  14
ATOM     13  C   UNL     1       2.918  -1.525  -0.183  0.00  0.00    +0.000 C 
ATOM     14  C   UNL     1       2.528  -0.055  -0.038  0.00  0.00    +0.000 C 
BRANCH  14  15
ATOM     15  C   UNL     1       2.978   0.748  -1.248  0.00  0.00    +0.000 A 
ATOM     16  C   UNL     1       4.219   1.411  -1.204  0.00  0.00    +0.000 A 
ATOM     17  C   UNL     1       4.665   2.157  -2.293  0.00  0.00    +0.000 A 
ATOM     18  C   UNL     1       3.876   2.241  -3.433  0.00  0.00    +0.000 A 
ATOM     19  F   UNL     1       4.305   2.959  -4.478  0.00  0.00    +0.000 F 
ATOM     20  C   UNL     1       2.650   1.589  -3.503  0.00  0.00    +0.000 A 
ATOM     21  C   UNL     1       2.200   0.840  -2.413  0.00  0.00    +0.000 A 
ENDBRANCH  14  15
ENDBRANCH  12  14
ENDBRANCH   1  12
TORSDOF 4
