REMARK  Name = 
REMARK  9 active torsions:
REMARK  status: ('A' for Active; 'I' for Inactive)
REMARK    1  A    between atoms: C_1  and  O_2
REMARK    2  A    between atoms: O_2  and  C_3
REMARK    3  A    between atoms: C_10  and  C_11
REMARK    4  A    between atoms: N_13  and  C_14
REMARK    5  A    between atoms: C_14  and  C_15
REMARK    6  A    between atoms: C_18  and  N_19
REMARK    7  A    between atoms: N_19  and  C_20
REMARK    8  A    between atoms: C_20  and  C_21
REMARK    9  A    between atoms: N_25  and  C_26
REMARK                            x       y       z     vdW  Elec       q    Type
REMARK                         _______ _______ _______ _____ _____    ______ ____
ROOT
ATOM      1  C   UNL     1       0.273  -1.236  14.376  0.00  0.00    +0.000 C 
ENDROOT
BRANCH   1   2
ATOM      2  C   UNL     1      -0.255  -1.233  12.962  0.00  0.00    +0.000 A 
ATOM      3  C   UNL     1      -0.386  -2.428  12.245  0.00  0.00    +0.000 A 
ATOM      4  C   UNL     1      -0.824  -2.428  10.910  0.00  0.00    +0.000 A 
ATOM      5  C   UNL     1      -1.151  -1.239  10.251  0.00  0.00    +0.000 A 
ATOM      6  C   UNL     1      -0.985  -0.045  10.969  0.00  0.00    +0.000 A 
ATOM      7  C   UNL     1      -0.559  -0.037  12.306  0.00  0.00    +0.000 A 
BRANCH   5   8
ATOM      8  N   UNL     1      -1.478  -1.161   8.894  0.00  0.00    +0.000 N 
ATOM      9  H   UNL     1      -1.939  -0.284   8.666  0.00  0.00    +0.000 HD
BRANCH   8  10
ATOM     10  C   UNL     1      -2.066  -2.306   8.187  0.00  0.00    +0.000 C 
BRANCH  10  11
ATOM     11  C   UNL     1      -2.258  -1.955   6.690  0.00  0.00    +0.000 C 
ATOM     12  C   UNL     1      -0.925  -1.681   5.974  0.00  0.00    +0.000 C 
ATOM     13  C   UNL     1      -0.110  -2.961   5.814  0.00  0.00    +0.000 C 
ATOM     14  C   UNL     1      -0.931  -4.067   5.148  0.00  0.00    +0.000 C 
ATOM     15  N   UNL     1      -2.204  -4.305   5.848  0.00  0.00    +0.000 NA
ATOM     16  C   UNL     1      -2.958  -5.365   5.174  0.00  0.00    +0.000 C 
ATOM     17  C   UNL     1      -3.003  -3.073   5.933  0.00  0.00    +0.000 C 
ENDBRANCH  10  11
ENDBRANCH   8  10
ENDBRANCH   5   8
ENDBRANCH   1   2
BRANCH   1  20
ATOM     18  C   UNL     1       2.438  -1.109  15.555  0.00  0.00    +0.000 C 
ATOM     19  O   UNL     1       1.888  -1.197  16.651  0.00  0.00    +0.000 OA
ATOM     20  N   UNL     1       1.713  -1.121  14.394  0.00  0.00    +0.000 N 
ATOM     21  H   UNL     1       2.187  -1.108  13.502  0.00  0.00    +0.000 HD
BRANCH  18  29
ATOM     22  C   UNL     1       4.599  -0.847  12.884  0.00  0.00    +0.000 A 
ATOM     23  N   UNL     1       5.639  -0.670  12.043  0.00  0.00    +0.000 NA
ATOM     24  C   UNL     1       6.852  -0.499  12.573  0.00  0.00    +0.000 A 
ATOM     25  N   UNL     1       7.169  -0.498  13.864  0.00  0.00    +0.000 NA
ATOM     26  C   UNL     1       6.104  -0.674  14.665  0.00  0.00    +0.000 A 
ATOM     27  S   UNL     1       6.324  -0.713  16.347  0.00  0.00    +0.000 S 
ATOM     28  C   UNL     1       4.659  -0.929  16.609  0.00  0.00    +0.000 A 
ATOM     29  C   UNL     1       3.903  -0.970  15.442  0.00  0.00    +0.000 A 
ATOM     30  C   UNL     1       4.777  -0.844  14.275  0.00  0.00    +0.000 A 
BRANCH  22  32
ATOM     31  C   UNL     1       3.312  -0.965  10.916  0.00  0.00    +0.000 C 
ATOM     32  O   UNL     1       3.349  -1.066  12.338  0.00  0.00    +0.000 OA
ENDBRANCH  22  32
ENDBRANCH  18  29
ENDBRANCH   1  20
TORSDOF 7
