REMARK  Name = 
REMARK  8 active torsions:
REMARK  status: ('A' for Active; 'I' for Inactive)
REMARK    1  A    between atoms: C_1  and  C_2
REMARK    2  A    between atoms: C_4  and  C_5
REMARK    3  A    between atoms: C_10  and  N_11
REMARK    4  A    between atoms: N_11  and  C_12
REMARK    5  A    between atoms: C_12  and  C_13
REMARK    6  A    between atoms: C_17  and  C_18
REMARK    7  A    between atoms: C_22  and  C_23
REMARK    8  A    between atoms: C_23  and  O_24
REMARK                            x       y       z     vdW  Elec       q    Type
REMARK                         _______ _______ _______ _____ _____    ______ ____
ROOT
ATOM      1  C   UNL     1       2.335  -2.530  -0.073  0.00  0.00    +0.000 C 
ENDROOT
BRANCH   1   2
ATOM      2  C   UNL     1       2.812  -3.966  -0.000  0.00  0.00    +0.000 A 
ATOM      3  C   UNL     1       4.110  -4.253   0.438  0.00  0.00    +0.000 A 
ATOM      4  C   UNL     1       4.531  -5.573   0.580  0.00  0.00    +0.000 A 
ATOM      5  C   UNL     1       3.652  -6.619   0.300  0.00  0.00    +0.000 A 
ATOM      6  C   UNL     1       2.330  -6.376  -0.114  0.00  0.00    +0.000 A 
ATOM      7  C   UNL     1       1.942  -5.034  -0.297  0.00  0.00    +0.000 A 
BRANCH   6   8
ATOM      8  C   UNL     1       1.365  -7.488  -0.245  0.00  0.00    +0.000 A 
ATOM      9  C   UNL     1       0.378  -7.537  -1.228  0.00  0.00    +0.000 A 
ATOM     10  N   UNL     1      -0.567  -8.507  -1.332  0.00  0.00    +0.000 NA
ATOM     11  C   UNL     1      -0.530  -9.497  -0.414  0.00  0.00    +0.000 A 
ATOM     12  C   UNL     1       0.419  -9.585   0.595  0.00  0.00    +0.000 A 
ATOM     13  C   UNL     1       1.357  -8.549   0.676  0.00  0.00    +0.000 A 
BRANCH  12  14
ATOM     14  C   UNL     1       0.370 -10.691   1.608  0.00  0.00    +0.000 C 
BRANCH  14  15
ATOM     15  O   UNL     1       1.672 -11.043   2.062  0.00  0.00    +0.000 OA
ATOM     16  H   UNL     1       2.208 -11.232   1.273  0.00  0.00    +0.000 HD
ENDBRANCH  14  15
ENDBRANCH  12  14
ENDBRANCH   6   8
ENDBRANCH   1   2
BRANCH   1  17
ATOM     17  N   UNL     1       2.775  -1.895  -1.312  0.00  0.00    +0.000 N 
ATOM     18  H   UNL     1       2.562  -2.464  -2.123  0.00  0.00    +0.000 HD
BRANCH  17  25
ATOM     19  C   UNL     1       3.198  -0.509  -3.861  0.00  0.00    +0.000 C 
ATOM     20  C   UNL     1       2.506   0.108  -2.679  0.00  0.00    +0.000 A 
ATOM     21  C   UNL     1       2.071   1.441  -2.778  0.00  0.00    +0.000 A 
ATOM     22  C   UNL     1       1.433   2.066  -1.706  0.00  0.00    +0.000 A 
ATOM     23  C   UNL     1       1.256   1.306  -0.567  0.00  0.00    +0.000 A 
ATOM     24  N   UNL     1       1.664   0.016  -0.437  0.00  0.00    +0.000 NA
ATOM     25  C   UNL     1       2.282  -0.586  -1.479  0.00  0.00    +0.000 A 
BRANCH  22  26
ATOM     26  C   UNL     1       1.004   3.476  -1.850  0.00  0.00    +0.000 C 
ATOM     27  N   UNL     1       0.379   4.100  -0.798  0.00  0.00    +0.000 N 
ATOM     28  O   UNL     1       1.197   4.092  -2.893  0.00  0.00    +0.000 OA
ATOM     29  H   UNL     1       0.182   3.689   0.100  0.00  0.00    +0.000 HD
ATOM     30  H   UNL     1       0.116   5.065  -0.947  0.00  0.00    +0.000 HD
ENDBRANCH  22  26
ENDBRANCH  17  25
ENDBRANCH   1  17
TORSDOF 7
