REMARK  Name = 
REMARK  4 active torsions:
REMARK  status: ('A' for Active; 'I' for Inactive)
REMARK    1  A    between atoms: C_2  and  C_3
REMARK    2  A    between atoms: C_6  and  C_7
REMARK    3  A    between atoms: C_7  and  N_8
REMARK    4  A    between atoms: C_12  and  C_13
REMARK                            x       y       z     vdW  Elec       q    Type
REMARK                         _______ _______ _______ _____ _____    ______ ____
ROOT
ATOM      1  N   UNL     1      -4.101  -1.121   0.619  0.00  0.00    +0.000 N 
ATOM      2  C   UNL     1      -4.345  -1.217   1.992  0.00  0.00    +0.000 A 
ATOM      3  C   UNL     1      -3.702  -0.459   2.978  0.00  0.00    +0.000 A 
ATOM      4  N   UNL     1      -3.931  -0.592   4.318  0.00  0.00    +0.000 NA
ATOM      5  C   UNL     1      -4.853  -1.538   4.638  0.00  0.00    +0.000 A 
ATOM      6  C   UNL     1      -5.504  -2.290   3.674  0.00  0.00    +0.000 A 
ATOM      7  N   UNL     1      -5.260  -2.148   2.344  0.00  0.00    +0.000 NA
ATOM      8  H   UNL     1      -4.776  -1.717   0.147  0.00  0.00    +0.000 HD
ENDROOT
BRANCH   5   9
ATOM      9  C   UNL     1      -5.153  -1.777   6.076  0.00  0.00    +0.000 C 
ATOM     10  N   UNL     1      -4.445  -1.029   6.977  0.00  0.00    +0.000 N 
ATOM     11  O   UNL     1      -5.981  -2.603   6.440  0.00  0.00    +0.000 OA
ATOM     12  H   UNL     1      -3.752  -0.362   6.658  0.00  0.00    +0.000 HD
ATOM     13  H   UNL     1      -4.598  -1.173   7.965  0.00  0.00    +0.000 HD
ENDBRANCH   5   9
BRANCH   1  14
ATOM     14  C   UNL     1      -3.668   0.127  -0.032  0.00  0.00    +0.000 C 
ATOM     15  C   UNL     1      -4.473   0.648  -1.218  0.00  0.00    +0.000 C 
ATOM     16  C   UNL     1      -4.546   1.360   0.093  0.00  0.00    +0.000 C 
BRANCH  14  20
ATOM     17  C   UNL     1       0.598   0.688  -0.208  0.00  0.00    +0.000 A 
ATOM     18  C   UNL     1      -0.008  -0.143  -1.144  0.00  0.00    +0.000 A 
ATOM     19  C   UNL     1      -1.390  -0.336  -1.091  0.00  0.00    +0.000 A 
ATOM     20  C   UNL     1      -2.148   0.311  -0.108  0.00  0.00    +0.000 A 
ATOM     21  N   UNL     1      -1.550   1.121   0.807  0.00  0.00    +0.000 NA
ATOM     22  C   UNL     1      -0.209   1.288   0.743  0.00  0.00    +0.000 A 
BRANCH  17  24
ATOM     23  N   UNL     1       3.146   1.133  -0.223  0.00  0.00    +0.000 NA
ATOM     24  C   UNL     1       2.002   0.928  -0.218  0.00  0.00    +0.000 C 
ENDBRANCH  17  24
ENDBRANCH  14  20
ENDBRANCH   1  14
TORSDOF 4
