REMARK  Name = 
REMARK  8 active torsions:
REMARK  status: ('A' for Active; 'I' for Inactive)
REMARK    1  A    between atoms: N_1  and  C_2
REMARK    2  A    between atoms: C_2  and  C_3
REMARK    3  A    between atoms: C_2  and  C_24
REMARK    4  A    between atoms: C_3  and  C_4
REMARK    5  A    between atoms: C_7  and  C_8
REMARK    6  A    between atoms: C_8  and  N_9
REMARK    7  A    between atoms: C_10  and  C_12
REMARK    8  A    between atoms: N_26  and  C_27
REMARK                            x       y       z     vdW  Elec       q    Type
REMARK                         _______ _______ _______ _____ _____    ______ ____
ROOT
ATOM      1  C   UNL     1       2.644  -1.142   2.177  0.00  0.00    +0.000 A 
ATOM      2  C   UNL     1       2.408  -2.346   2.855  0.00  0.00    +0.000 A 
ATOM      3  C   UNL     1       1.979  -2.345   4.186  0.00  0.00    +0.000 A 
ATOM      4  C   UNL     1       1.778  -1.140   4.869  0.00  0.00    +0.000 A 
ATOM      5  C   UNL     1       2.060   0.063   4.206  0.00  0.00    +0.000 A 
ATOM      6  C   UNL     1       2.477   0.063   2.871  0.00  0.00    +0.000 A 
ENDROOT
BRANCH   1   7
ATOM      7  C   UNL     1       3.080  -1.147   0.728  0.00  0.00    +0.000 C 
BRANCH   7   8
ATOM      8  C   UNL     1       1.930  -1.108  -0.305  0.00  0.00    +0.000 C 
BRANCH   8   9
ATOM      9  C   UNL     1       2.533  -1.044  -1.731  0.00  0.00    +0.000 C 
ATOM     10  O   UNL     1       3.623  -0.540  -1.978  0.00  0.00    +0.000 OA
ATOM     11  N   UNL     1       1.722  -1.582  -2.714  0.00  0.00    +0.000 N 
ATOM     12  H   UNL     1       0.805  -1.910  -2.418  0.00  0.00    +0.000 HD
BRANCH  11  13
ATOM     13  C   UNL     1       2.132  -1.635  -4.110  0.00  0.00    +0.000 C 
ATOM     14  C   UNL     1       1.736  -0.382  -4.859  0.00  0.00    +0.000 C 
ATOM     15  C   UNL     1       0.334  -0.695  -5.342  0.00  0.00    +0.000 C 
ATOM     16  O   UNL     1       0.211  -2.121  -5.435  0.00  0.00    +0.000 OA
ATOM     17  C   UNL     1       1.402  -2.716  -4.898  0.00  0.00    +0.000 C 
ENDBRANCH  11  13
ENDBRANCH   8   9
BRANCH   8  18
ATOM     18  N   UNL     1       1.004  -2.271  -0.218  0.00  0.00    +0.000 NA
ATOM     19  H   UNL     1       0.693  -2.351   0.752  0.00  0.00    +0.000 HD
ATOM     20  H   UNL     1       1.540  -3.120  -0.402  0.00  0.00    +0.000 HD
ENDBRANCH   8  18
ENDBRANCH   7   8
ENDBRANCH   1   7
BRANCH   4  21
ATOM     21  C   UNL     1       1.299  -1.124   6.299  0.00  0.00    +0.000 C 
BRANCH  21  22
ATOM     22  N   UNL     1       2.401  -1.149   7.225  0.00  0.00    +0.000 N 
ATOM     23  C   UNL     1       2.189  -1.196   8.580  0.00  0.00    +0.000 C 
ATOM     24  O   UNL     1       1.061  -1.270   9.061  0.00  0.00    +0.000 OA
ATOM     25  H   UNL     1       3.303  -0.841   6.874  0.00  0.00    +0.000 HD
BRANCH  23  26
ATOM     26  C   UNL     1       3.386  -1.216   9.429  0.00  0.00    +0.000 A 
ATOM     27  C   UNL     1       3.321  -1.766  10.702  0.00  0.00    +0.000 A 
ATOM     28  S   UNL     1       4.809  -1.741  11.535  0.00  0.00    +0.000 S 
ATOM     29  C   UNL     1       5.581  -0.947  10.244  0.00  0.00    +0.000 A 
ATOM     30  N   UNL     1       6.892  -0.591  10.324  0.00  0.00    +0.000 NA
ATOM     31  C   UNL     1       7.339   0.034   9.286  0.00  0.00    +0.000 A 
ATOM     32  N   UNL     1       6.597   0.328   8.170  0.00  0.00    +0.000 N 
ATOM     33  C   UNL     1       5.280  -0.041   8.034  0.00  0.00    +0.000 A 
ATOM     34  O   UNL     1       4.658   0.193   6.999  0.00  0.00    +0.000 OA
ATOM     35  C   UNL     1       4.723  -0.726   9.182  0.00  0.00    +0.000 A 
ATOM     36  H   UNL     1       7.011   0.804   7.385  0.00  0.00    +0.000 HD
ENDBRANCH  23  26
ENDBRANCH  21  22
ENDBRANCH   4  21
TORSDOF 8
