REMARK  Name = 
REMARK  6 active torsions:
REMARK  status: ('A' for Active; 'I' for Inactive)
REMARK    1  A    between atoms: C_1  and  C_2
REMARK    2  A    between atoms: C_2  and  N_3
REMARK    3  A    between atoms: C_2  and  C_16
REMARK    4  A    between atoms: C_4  and  C_6
REMARK    5  A    between atoms: C_19  and  C_20
REMARK    6  A    between atoms: C_20  and  N_21
REMARK                            x       y       z     vdW  Elec       q    Type
REMARK                         _______ _______ _______ _____ _____    ______ ____
ROOT
ATOM      1  C   UNL     1       3.427   0.684  -1.085  0.00  0.00    +0.000 C 
ATOM      2  C   UNL     1       2.495   0.096  -0.020  0.00  0.00    +0.000 C 
ENDROOT
BRANCH   2   3
ATOM      3  C   UNL     1       2.972  -1.308   0.346  0.00  0.00    +0.000 A 
ATOM      4  C   UNL     1       3.884  -1.493   1.394  0.00  0.00    +0.000 A 
ATOM      5  C   UNL     1       4.321  -2.777   1.742  0.00  0.00    +0.000 A 
ATOM      6  C   UNL     1       3.865  -3.904   1.046  0.00  0.00    +0.000 A 
ATOM      7  C   UNL     1       2.962  -3.724  -0.008  0.00  0.00    +0.000 A 
ATOM      8  C   UNL     1       2.538  -2.442  -0.365  0.00  0.00    +0.000 A 
BRANCH   6   9
ATOM      9  C   UNL     1       4.347  -5.287   1.419  0.00  0.00    +0.000 C 
BRANCH   9  10
ATOM     10  N   UNL     1       3.496  -5.859   2.442  0.00  0.00    +0.000 N 
ATOM     11  C   UNL     1       3.872  -7.149   2.798  0.00  0.00    +0.000 A 
ATOM     12  N   UNL     1       5.168  -7.498   2.770  0.00  0.00    +0.000 NA
ATOM     13  C   UNL     1       5.477  -8.759   3.118  0.00  0.00    +0.000 A 
ATOM     14  C   UNL     1       4.541  -9.688   3.493  0.00  0.00    +0.000 A 
ATOM     15  C   UNL     1       3.243  -9.240   3.487  0.00  0.00    +0.000 A 
ATOM     16  N   UNL     1       2.884  -7.987   3.140  0.00  0.00    +0.000 NA
ATOM     17  H   UNL     1       2.508  -5.887   2.223  0.00  0.00    +0.000 HD
ENDBRANCH   9  10
ENDBRANCH   6   9
ENDBRANCH   2   3
BRANCH   2  18
ATOM     18  N   UNL     1       1.101   0.065  -0.443  0.00  0.00    +0.000 N 
ATOM     19  C   UNL     1       0.383   1.181  -0.789  0.00  0.00    +0.000 C 
ATOM     20  O   UNL     1       0.869   2.307  -0.805  0.00  0.00    +0.000 OA
ATOM     21  H   UNL     1       0.568  -0.736  -0.117  0.00  0.00    +0.000 HD
BRANCH  19  22
ATOM     22  C   UNL     1      -1.004   0.950  -1.216  0.00  0.00    +0.000 A 
ATOM     23  C   UNL     1      -1.608   1.843  -2.091  0.00  0.00    +0.000 A 
ATOM     24  S   UNL     1      -3.211   1.427  -2.496  0.00  0.00    +0.000 S 
ATOM     25  C   UNL     1      -3.169   0.058  -1.487  0.00  0.00    +0.000 A 
ATOM     26  N   UNL     1      -4.261  -0.739  -1.342  0.00  0.00    +0.000 NA
ATOM     27  C   UNL     1      -4.098  -1.724  -0.522  0.00  0.00    +0.000 A 
ATOM     28  N   UNL     1      -2.936  -1.993   0.153  0.00  0.00    +0.000 N 
ATOM     29  C   UNL     1      -1.795  -1.239   0.004  0.00  0.00    +0.000 A 
ATOM     30  O   UNL     1      -0.749  -1.547   0.567  0.00  0.00    +0.000 OA
ATOM     31  C   UNL     1      -1.937  -0.099  -0.876  0.00  0.00    +0.000 A 
ATOM     32  H   UNL     1      -2.867  -2.793   0.765  0.00  0.00    +0.000 HD
ENDBRANCH  19  22
ENDBRANCH   2  18
TORSDOF 5
