REMARK  Name = 
REMARK  10 active torsions:
REMARK  status: ('A' for Active; 'I' for Inactive)
REMARK    1  A    between atoms: C_1  and  C_2
REMARK    2  A    between atoms: C_2  and  N_3
REMARK    3  A    between atoms: C_2  and  C_20
REMARK    4  A    between atoms: N_3  and  C_4
REMARK    5  A    between atoms: C_4  and  C_5
REMARK    6  A    between atoms: C_8  and  C_9
REMARK    7  A    between atoms: C_9  and  O_10
REMARK    8  A    between atoms: C_9  and  C_11
REMARK    9  A    between atoms: C_11  and  N_12
REMARK   10  A    between atoms: N_12  and  C_13
REMARK                            x       y       z     vdW  Elec       q    Type
REMARK                         _______ _______ _______ _____ _____    ______ ____
ROOT
ATOM      1  C   UNL     1      -7.469   4.044  -5.717  0.00  0.00    +0.000 A 
ATOM      2  C   UNL     1      -7.861   5.039  -4.818  0.00  0.00    +0.000 A 
ATOM      3  C   UNL     1      -8.568   4.695  -3.671  0.00  0.00    +0.000 A 
ATOM      4  C   UNL     1      -8.875   3.355  -3.443  0.00  0.00    +0.000 A 
ATOM      5  N   UNL     1      -8.526   2.369  -4.308  0.00  0.00    +0.000 NA
ATOM      6  C   UNL     1      -7.844   2.737  -5.422  0.00  0.00    +0.000 A 
ENDROOT
BRANCH   1   7
ATOM      7  C   UNL     1      -6.491   4.354  -6.817  0.00  0.00    +0.000 C 
BRANCH   7   8
ATOM      8  N   UNL     1      -6.890   3.894  -8.153  0.00  0.00    +0.000 NA
ATOM      9  H   UNL     1      -7.687   4.484  -8.429  0.00  0.00    +0.000 HD
BRANCH   8  11
ATOM     10  C   UNL     1      -4.611   3.195  -8.767  0.00  0.00    +0.000 C 
ATOM     11  C   UNL     1      -5.806   4.105  -9.139  0.00  0.00    +0.000 C 
BRANCH  11  12
ATOM     12  C   UNL     1      -6.279   3.798 -10.569  0.00  0.00    +0.000 A 
ATOM     13  C   UNL     1      -5.408   3.403 -11.581  0.00  0.00    +0.000 A 
ATOM     14  S   UNL     1      -6.174   2.966 -13.038  0.00  0.00    +0.000 S 
ATOM     15  C   UNL     1      -7.699   3.353 -12.404  0.00  0.00    +0.000 A 
ATOM     16  N   UNL     1      -8.828   3.133 -13.131  0.00  0.00    +0.000 NA
ATOM     17  C   UNL     1      -9.918   3.475 -12.524  0.00  0.00    +0.000 A 
ATOM     18  N   UNL     1      -9.974   4.067 -11.287  0.00  0.00    +0.000 N 
ATOM     19  C   UNL     1      -8.848   4.409 -10.573  0.00  0.00    +0.000 A 
ATOM     20  O   UNL     1      -8.910   5.134  -9.584  0.00  0.00    +0.000 OA
ATOM     21  C   UNL     1      -7.611   3.896 -11.133  0.00  0.00    +0.000 A 
ATOM     22  H   UNL     1     -10.853   4.386 -10.913  0.00  0.00    +0.000 HD
ENDBRANCH  11  12
ENDBRANCH   8  11
ENDBRANCH   7   8
ENDBRANCH   1   7
BRANCH   4  23
ATOM     23  C   UNL     1      -9.582   2.955  -2.165  0.00  0.00    +0.000 C 
BRANCH  23  24
ATOM     24  O   UNL     1      -8.764   2.061  -1.396  0.00  0.00    +0.000 OA
ATOM     25  H   UNL     1      -8.398   1.433  -2.049  0.00  0.00    +0.000 HD
ENDBRANCH  23  24
BRANCH  23  26
ATOM     26  C   UNL     1     -10.924   2.253  -2.466  0.00  0.00    +0.000 C 
BRANCH  26  27
ATOM     27  N   UNL     1     -11.728   1.950  -1.262  0.00  0.00    +0.000 NA
ATOM     28  H   UNL     1     -11.134   1.390  -0.651  0.00  0.00    +0.000 HD
BRANCH  27  29
ATOM     29  C   UNL     1     -12.115   3.136  -0.516  0.00  0.00    +0.000 C 
ATOM     30  C   UNL     1     -12.952   4.159  -1.272  0.00  0.00    +0.000 C 
ATOM     31  C   UNL     1     -14.319   3.512  -1.327  0.00  0.00    +0.000 C 
ATOM     32  C   UNL     1     -14.389   2.729  -0.026  0.00  0.00    +0.000 C 
ATOM     33  N   UNL     1     -13.024   2.662   0.510  0.00  0.00    +0.000 NA
ATOM     34  H   UNL     1     -12.791   1.697   0.728  0.00  0.00    +0.000 HD
ENDBRANCH  27  29
ENDBRANCH  26  27
ENDBRANCH  23  26
ENDBRANCH   4  23
TORSDOF 9
