REMARK  Name = 
REMARK  9 active torsions:
REMARK  status: ('A' for Active; 'I' for Inactive)
REMARK    1  A    between atoms: C_1  and  O_2
REMARK    2  A    between atoms: O_2  and  C_3
REMARK    3  A    between atoms: C_10  and  C_11
REMARK    4  A    between atoms: N_13  and  C_14
REMARK    5  A    between atoms: C_14  and  C_15
REMARK    6  A    between atoms: C_18  and  N_19
REMARK    7  A    between atoms: N_19  and  C_20
REMARK    8  A    between atoms: C_20  and  C_21
REMARK    9  A    between atoms: C_21  and  N_22
REMARK                            x       y       z     vdW  Elec       q    Type
REMARK                         _______ _______ _______ _____ _____    ______ ____
ROOT
ATOM      1  C   UNL     1       2.880  -0.510  -3.365  0.00  0.00    +0.000 C 
ENDROOT
BRANCH   1   2
ATOM      2  C   UNL     1       1.658  -1.328  -3.036  0.00  0.00    +0.000 A 
ATOM      3  C   UNL     1       1.712  -2.724  -3.057  0.00  0.00    +0.000 A 
ATOM      4  C   UNL     1       0.568  -3.486  -2.786  0.00  0.00    +0.000 A 
ATOM      5  C   UNL     1      -0.658  -2.886  -2.469  0.00  0.00    +0.000 A 
ATOM      6  C   UNL     1      -0.712  -1.486  -2.495  0.00  0.00    +0.000 A 
ATOM      7  C   UNL     1       0.430  -0.715  -2.766  0.00  0.00    +0.000 A 
BRANCH   5   8
ATOM      8  N   UNL     1      -1.848  -3.620  -2.275  0.00  0.00    +0.000 N 
ATOM      9  H   UNL     1      -2.529  -3.065  -1.759  0.00  0.00    +0.000 HD
BRANCH   8  10
ATOM     10  C   UNL     1      -1.686  -4.969  -1.714  0.00  0.00    +0.000 C 
BRANCH  10  11
ATOM     11  C   UNL     1      -3.034  -5.689  -1.481  0.00  0.00    +0.000 C 
BRANCH  11  12
ATOM     12  N   UNL     1      -2.867  -7.058  -0.936  0.00  0.00    +0.000 NA
ATOM     13  C   UNL     1      -4.167  -7.745  -0.755  0.00  0.00    +0.000 C 
ATOM     14  C   UNL     1      -4.992  -7.234   0.443  0.00  0.00    +0.000 C 
ATOM     15  O   UNL     1      -4.236  -7.204   1.662  0.00  0.00    +0.000 OA
ATOM     16  C   UNL     1      -3.010  -6.481   1.501  0.00  0.00    +0.000 C 
ATOM     17  C   UNL     1      -2.173  -7.095   0.372  0.00  0.00    +0.000 C 
ENDBRANCH  11  12
ENDBRANCH  10  11
ENDBRANCH   8  10
ENDBRANCH   5   8
ENDBRANCH   1   2
BRANCH   1  20
ATOM     18  C   UNL     1       4.032   0.405  -5.334  0.00  0.00    +0.000 C 
ATOM     19  O   UNL     1       4.924   0.864  -4.628  0.00  0.00    +0.000 OA
ATOM     20  N   UNL     1       2.979  -0.274  -4.786  0.00  0.00    +0.000 N 
ATOM     21  H   UNL     1       2.225  -0.606  -5.372  0.00  0.00    +0.000 HD
BRANCH  18  29
ATOM     22  C   UNL     1       1.948  -0.650  -7.876  0.00  0.00    +0.000 A 
ATOM     23  N   UNL     1       1.380  -1.001  -9.049  0.00  0.00    +0.000 NA
ATOM     24  C   UNL     1       1.984  -0.632 -10.181  0.00  0.00    +0.000 A 
ATOM     25  N   UNL     1       3.106   0.070 -10.295  0.00  0.00    +0.000 NA
ATOM     26  C   UNL     1       3.649   0.389  -9.108  0.00  0.00    +0.000 A 
ATOM     27  S   UNL     1       5.082   1.298  -9.066  0.00  0.00    +0.000 S 
ATOM     28  C   UNL     1       5.120   1.251  -7.369  0.00  0.00    +0.000 A 
ATOM     29  C   UNL     1       4.060   0.551  -6.800  0.00  0.00    +0.000 A 
ATOM     30  C   UNL     1       3.162   0.063  -7.844  0.00  0.00    +0.000 A 
BRANCH  22  32
ATOM     31  C   UNL     1       0.049  -1.644  -6.913  0.00  0.00    +0.000 C 
ATOM     32  O   UNL     1       1.299  -0.988  -6.707  0.00  0.00    +0.000 OA
ENDBRANCH  22  32
ENDBRANCH  18  29
ENDBRANCH   1  20
TORSDOF 8
