REMARK  Name = 
REMARK  5 active torsions:
REMARK  status: ('A' for Active; 'I' for Inactive)
REMARK    1  A    between atoms: C_1  and  C_2
REMARK    2  A    between atoms: C_2  and  C_3
REMARK    3  A    between atoms: C_2  and  C_14
REMARK    4  A    between atoms: C_3  and  N_4
REMARK    5  A    between atoms: C_8  and  C_9
REMARK                            x       y       z     vdW  Elec       q    Type
REMARK                         _______ _______ _______ _____ _____    ______ ____
ROOT
ATOM      1  N   UNL     1       2.695   2.427   0.360  0.00  0.00    +0.000 N 
ATOM      2  C   UNL     1       3.300   3.522   0.999  0.00  0.00    +0.000 A 
ATOM      3  C   UNL     1       3.085   4.825   0.523  0.00  0.00    +0.000 A 
ATOM      4  N   UNL     1       3.640   5.943   1.069  0.00  0.00    +0.000 NA
ATOM      5  C   UNL     1       4.449   5.698   2.135  0.00  0.00    +0.000 A 
ATOM      6  C   UNL     1       4.681   4.419   2.614  0.00  0.00    +0.000 A 
ATOM      7  N   UNL     1       4.117   3.319   2.054  0.00  0.00    +0.000 NA
ATOM      8  H   UNL     1       1.689   2.572   0.321  0.00  0.00    +0.000 HD
ENDROOT
BRANCH   5   9
ATOM      9  C   UNL     1       5.109   6.851   2.804  0.00  0.00    +0.000 C 
ATOM     10  N   UNL     1       4.858   8.086   2.268  0.00  0.00    +0.000 N 
ATOM     11  O   UNL     1       5.837   6.713   3.778  0.00  0.00    +0.000 OA
ATOM     12  H   UNL     1       4.266   8.176   1.452  0.00  0.00    +0.000 HD
ATOM     13  H   UNL     1       5.298   8.900   2.675  0.00  0.00    +0.000 HD
ENDBRANCH   5   9
BRANCH   1  14
ATOM     14  C   UNL     1       3.010   1.146   0.989  0.00  0.00    +0.000 C 
BRANCH  14  16
ATOM     15  C   UNL     1       2.733  -0.285  -1.131  0.00  0.00    +0.000 C 
ATOM     16  C   UNL     1       2.262   0.083   0.240  0.00  0.00    +0.000 C 
BRANCH  16  17
ATOM     17  C   UNL     1       0.906  -0.271   0.683  0.00  0.00    +0.000 A 
ATOM     18  C   UNL     1       0.657  -0.639   2.012  0.00  0.00    +0.000 A 
ATOM     19  C   UNL     1      -0.648  -0.873   2.453  0.00  0.00    +0.000 A 
ATOM     20  C   UNL     1      -1.716  -0.740   1.569  0.00  0.00    +0.000 A 
ATOM     21  C   UNL     1      -1.477  -0.407   0.238  0.00  0.00    +0.000 A 
ATOM     22  C   UNL     1      -0.172  -0.186  -0.205  0.00  0.00    +0.000 A 
ENDBRANCH  16  17
ENDBRANCH  14  16
ENDBRANCH   1  14
TORSDOF 4
