REMARK  Name = 
REMARK  8 active torsions:
REMARK  status: ('A' for Active; 'I' for Inactive)
REMARK    1  A    between atoms: C_1  and  C_2
REMARK    2  A    between atoms: C_5  and  O_6
REMARK    3  A    between atoms: O_6  and  C_7
REMARK    4  A    between atoms: C_9  and  C_10
REMARK    5  A    between atoms: C_10  and  C_11
REMARK    6  A    between atoms: C_11  and  N_12
REMARK    7  A    between atoms: C_17  and  C_18
REMARK    8  A    between atoms: C_23  and  C_24
REMARK                            x       y       z     vdW  Elec       q    Type
REMARK                         _______ _______ _______ _____ _____    ______ ____
ROOT
ATOM      1  C   UNL     1       1.224   2.491   1.925  0.00  0.00    +0.000 A 
ATOM      2  C   UNL     1       0.137   2.183   1.094  0.00  0.00    +0.000 A 
ATOM      3  C   UNL     1      -0.932   3.079   0.929  0.00  0.00    +0.000 A 
ATOM      4  C   UNL     1      -0.906   4.263   1.680  0.00  0.00    +0.000 A 
ATOM      5  C   UNL     1       0.125   4.530   2.596  0.00  0.00    +0.000 A 
ATOM      6  C   UNL     1       1.214   3.655   2.683  0.00  0.00    +0.000 A 
ENDROOT
BRANCH   5   7
ATOM      7  C   UNL     1       0.017   5.699   3.543  0.00  0.00    +0.000 C 
ATOM      8  F   UNL     1      -1.157   6.380   3.432  0.00  0.00    +0.000 F 
ATOM      9  F   UNL     1       0.089   5.301   4.844  0.00  0.00    +0.000 F 
ATOM     10  F   UNL     1       1.004   6.617   3.374  0.00  0.00    +0.000 F 
ENDBRANCH   5   7
BRANCH   1  11
ATOM     11  O   UNL     1       2.232   1.565   1.953  0.00  0.00    +0.000 OA
BRANCH  11  16
ATOM     12  C   UNL     1       3.742   3.947   0.382  0.00  0.00    +0.000 C 
ATOM     13  C   UNL     1       4.383   2.933   1.307  0.00  0.00    +0.000 C 
ATOM     14  N   UNL     1       4.823   1.721   0.574  0.00  0.00    +0.000 NA
ATOM     15  C   UNL     1       4.669   0.953   1.831  0.00  0.00    +0.000 C 
ATOM     16  C   UNL     1       3.585   1.985   2.270  0.00  0.00    +0.000 C 
ATOM     17  H   UNL     1       5.765   1.757   0.187  0.00  0.00    +0.000 HD
ENDBRANCH  11  16
ENDBRANCH   1  11
BRANCH   3  18
ATOM     18  C   UNL     1      -2.081   2.722  -0.003  0.00  0.00    +0.000 C 
BRANCH  18  19
ATOM     19  C   UNL     1      -3.168   3.805  -0.138  0.00  0.00    +0.000 C 
BRANCH  19  20
ATOM     20  N   UNL     1      -4.254   3.400  -1.017  0.00  0.00    +0.000 N 
ATOM     21  C   UNL     1      -5.250   4.367  -1.158  0.00  0.00    +0.000 A 
ATOM     22  N   UNL     1      -6.488   3.892  -1.344  0.00  0.00    +0.000 NA
ATOM     23  C   UNL     1      -7.484   4.783  -1.501  0.00  0.00    +0.000 A 
ATOM     24  C   UNL     1      -7.299   6.138  -1.462  0.00  0.00    +0.000 A 
ATOM     25  C   UNL     1      -5.996   6.528  -1.245  0.00  0.00    +0.000 A 
ATOM     26  N   UNL     1      -4.959   5.673  -1.094  0.00  0.00    +0.000 NA
ATOM     27  H   UNL     1      -4.741   2.549  -0.757  0.00  0.00    +0.000 HD
BRANCH  25  28
ATOM     28  C   UNL     1      -5.688   7.991  -1.182  0.00  0.00    +0.000 C 
ATOM     29  N   UNL     1      -4.375   8.315  -0.955  0.00  0.00    +0.000 N 
ATOM     30  O   UNL     1      -6.547   8.848  -1.314  0.00  0.00    +0.000 OA
ATOM     31  H   UNL     1      -3.677   7.586  -0.890  0.00  0.00    +0.000 HD
ATOM     32  H   UNL     1      -4.104   9.286  -0.935  0.00  0.00    +0.000 HD
ENDBRANCH  25  28
ENDBRANCH  19  20
ENDBRANCH  18  19
ENDBRANCH   3  18
TORSDOF 7
