REMARK  Name = 
REMARK  9 active torsions:
REMARK  status: ('A' for Active; 'I' for Inactive)
REMARK    1  A    between atoms: C_1  and  N_2
REMARK    2  A    between atoms: N_2  and  C_3
REMARK    3  A    between atoms: N_2  and  C_4
REMARK    4  A    between atoms: C_4  and  C_5
REMARK    5  A    between atoms: C_5  and  N_6
REMARK    6  A    between atoms: N_6  and  C_7
REMARK    7  A    between atoms: C_7  and  C_8
REMARK    8  A    between atoms: C_11  and  C_12
REMARK    9  A    between atoms: C_12  and  N_13
REMARK                            x       y       z     vdW  Elec       q    Type
REMARK                         _______ _______ _______ _____ _____    ______ ____
ROOT
ATOM      1  C   UNL     1       6.857  -3.529  -2.461  0.00  0.00    +0.000 A 
ATOM      2  C   UNL     1       7.841  -3.386  -3.452  0.00  0.00    +0.000 A 
ATOM      3  C   UNL     1       8.275  -4.493  -4.182  0.00  0.00    +0.000 A 
ATOM      4  C   UNL     1       7.750  -5.768  -3.930  0.00  0.00    +0.000 A 
ATOM      5  C   UNL     1       6.783  -5.910  -2.921  0.00  0.00    +0.000 A 
ATOM      6  C   UNL     1       6.340  -4.802  -2.201  0.00  0.00    +0.000 A 
ENDROOT
BRANCH   1   7
ATOM      7  C   UNL     1       6.400  -2.338  -1.654  0.00  0.00    +0.000 C 
BRANCH   7   8
ATOM      8  N   UNL     1       5.774  -1.313  -2.494  0.00  0.00    +0.000 NA
ATOM      9  H   UNL     1       6.495  -0.950  -3.123  0.00  0.00    +0.000 HD
BRANCH   8  10
ATOM     10  C   UNL     1       5.311  -0.172  -1.691  0.00  0.00    +0.000 C 
BRANCH  10  11
ATOM     11  C   UNL     1       6.451   0.653  -1.037  0.00  0.00    +0.000 C 
BRANCH  11  13
ATOM     12  C   UNL     1       7.059   2.031  -2.943  0.00  0.00    +0.000 C 
ATOM     13  N   UNL     1       7.530   1.032  -1.979  0.00  0.00    +0.000 NA
ATOM     14  C   UNL     1       8.669   1.570  -1.229  0.00  0.00    +0.000 C 
ENDBRANCH  11  13
ENDBRANCH  10  11
ENDBRANCH   8  10
ENDBRANCH   7   8
ENDBRANCH   1   7
BRANCH   4  15
ATOM     15  C   UNL     1       8.202  -6.962  -4.724  0.00  0.00    +0.000 C 
BRANCH  15  16
ATOM     16  N   UNL     1       9.348  -7.629  -4.114  0.00  0.00    +0.000 N 
ATOM     17  C   UNL     1       9.246  -8.621  -3.167  0.00  0.00    +0.000 A 
ATOM     18  C   UNL     1      10.510  -9.098  -2.910  0.00  0.00    +0.000 A 
ATOM     19  C   UNL     1      11.418  -8.379  -3.732  0.00  0.00    +0.000 A 
ATOM     20  C   UNL     1      12.806  -8.434  -3.922  0.00  0.00    +0.000 A 
ATOM     21  C   UNL     1      13.327  -7.544  -4.845  0.00  0.00    +0.000 A 
ATOM     22 CL   UNL     1      15.011  -7.536  -5.184  0.00  0.00    +0.000 Cl
ATOM     23  N   UNL     1      12.618  -6.642  -5.552  0.00  0.00    +0.000 NA
ATOM     24  C   UNL     1      11.282  -6.584  -5.370  0.00  0.00    +0.000 A 
ATOM     25  C   UNL     1      10.672  -7.454  -4.468  0.00  0.00    +0.000 A 
ENDBRANCH  15  16
ENDBRANCH   4  15
TORSDOF 7
