REMARK  Name = 
REMARK  5 active torsions:
REMARK  status: ('A' for Active; 'I' for Inactive)
REMARK    1  A    between atoms: C_2  and  C_4
REMARK    2  A    between atoms: C_7  and  O_8
REMARK    3  A    between atoms: O_8  and  C_9
REMARK    4  A    between atoms: C_9  and  C_10
REMARK    5  A    between atoms: C_10  and  C_13
REMARK                            x       y       z     vdW  Elec       q    Type
REMARK                         _______ _______ _______ _____ _____    ______ ____
ROOT
ATOM      1  C   UNL     1       6.237  -6.540   1.824  0.00  0.00    +0.000 C 
ATOM      2  F   UNL     1       6.282  -6.403   3.184  0.00  0.00    +0.000 F 
ATOM      3  F   UNL     1       5.211  -5.738   1.413  0.00  0.00    +0.000 F 
ENDROOT
BRANCH   1   4
ATOM      4  C   UNL     1       6.018  -7.984   1.421  0.00  0.00    +0.000 A 
ATOM      5  C   UNL     1       5.295  -8.327   0.282  0.00  0.00    +0.000 A 
ATOM      6  C   UNL     1       5.200  -9.668  -0.045  0.00  0.00    +0.000 A 
ATOM      7  N   UNL     1       5.771 -10.666   0.669  0.00  0.00    +0.000 NA
ATOM      8  C   UNL     1       6.450 -10.353   1.792  0.00  0.00    +0.000 A 
ATOM      9  N   UNL     1       7.042 -11.356   2.525  0.00  0.00    +0.000 N 
ATOM     10  C   UNL     1       7.390 -12.637   1.902  0.00  0.00    +0.000 C 
ATOM     11  C   UNL     1       6.677 -13.807   2.595  0.00  0.00    +0.000 C 
ATOM     12  O   UNL     1       6.875 -13.783   4.020  0.00  0.00    +0.000 OA
ATOM     13  C   UNL     1       6.351 -12.562   4.563  0.00  0.00    +0.000 C 
ATOM     14  C   UNL     1       7.073 -11.333   3.990  0.00  0.00    +0.000 C 
ATOM     15  C   UNL     1       6.586  -9.019   2.177  0.00  0.00    +0.000 A 
ENDBRANCH   1   4
BRANCH   1  16
ATOM     16  C   UNL     1       7.552  -6.010   1.233  0.00  0.00    +0.000 C 
BRANCH  16  17
ATOM     17  O   UNL     1       7.778  -4.636   1.603  0.00  0.00    +0.000 OA
BRANCH  17  21
ATOM     18  C   UNL     1      11.287  -3.128   0.046  0.00  0.00    +0.000 A 
ATOM     19  C   UNL     1      10.478  -2.311   0.838  0.00  0.00    +0.000 A 
ATOM     20  C   UNL     1       9.290  -2.829   1.360  0.00  0.00    +0.000 A 
ATOM     21  C   UNL     1       8.957  -4.147   1.073  0.00  0.00    +0.000 A 
ATOM     22  N   UNL     1       9.718  -4.955   0.306  0.00  0.00    +0.000 NA
ATOM     23  C   UNL     1      10.859  -4.426  -0.199  0.00  0.00    +0.000 A 
BRANCH  18  25
ATOM     24  N   UNL     1      13.247  -1.687   0.062  0.00  0.00    +0.000 N 
ATOM     25  C   UNL     1      12.559  -2.687  -0.565  0.00  0.00    +0.000 C 
ATOM     26  O   UNL     1      13.004  -3.226  -1.569  0.00  0.00    +0.000 OA
ATOM     27  H   UNL     1      14.170  -1.487  -0.306  0.00  0.00    +0.000 HD
ATOM     28  H   UNL     1      13.056  -1.406   1.014  0.00  0.00    +0.000 HD
ENDBRANCH  18  25
ENDBRANCH  17  21
ENDBRANCH  16  17
ENDBRANCH   1  16
TORSDOF 5
