REMARK  Name = 
REMARK  5 active torsions:
REMARK  status: ('A' for Active; 'I' for Inactive)
REMARK    1  A    between atoms: N_1  and  C_2
REMARK    2  A    between atoms: C_2  and  C_3
REMARK    3  A    between atoms: C_6  and  C_7
REMARK    4  A    between atoms: C_7  and  N_8
REMARK    5  A    between atoms: C_13  and  C_14
REMARK                            x       y       z     vdW  Elec       q    Type
REMARK                         _______ _______ _______ _____ _____    ______ ____
ROOT
ATOM      1  N   UNL     1       7.446   1.510  -2.463  0.00  0.00    +0.000 N 
ATOM      2  C   UNL     1       8.007   0.380  -1.932  0.00  0.00    +0.000 A 
ATOM      3  N   UNL     1       9.230   0.196  -2.365  0.00  0.00    +0.000 NA
ATOM      4  C   UNL     1       9.453   1.219  -3.250  0.00  0.00    +0.000 A 
ATOM      5  C   UNL     1      10.596   1.483  -4.015  0.00  0.00    +0.000 A 
ATOM      6  C   UNL     1      10.575   2.566  -4.905  0.00  0.00    +0.000 A 
ATOM      7  C   UNL     1       9.435   3.386  -4.990  0.00  0.00    +0.000 A 
ATOM      8  C   UNL     1       8.297   3.154  -4.204  0.00  0.00    +0.000 A 
ATOM      9  C   UNL     1       8.342   2.051  -3.350  0.00  0.00    +0.000 A 
ENDROOT
BRANCH   6  10
ATOM     10  C   UNL     1      11.729   2.878  -5.802  0.00  0.00    +0.000 C 
ATOM     11  N   UNL     1      12.838   2.081  -5.731  0.00  0.00    +0.000 N 
ATOM     12  O   UNL     1      11.686   3.815  -6.584  0.00  0.00    +0.000 OA
ATOM     13  H   UNL     1      12.946   1.277  -5.144  0.00  0.00    +0.000 HD
ATOM     14  H   UNL     1      13.587   2.307  -6.373  0.00  0.00    +0.000 HD
ENDBRANCH   6  10
BRANCH   1  15
ATOM     15  C   UNL     1       6.163   2.070  -2.090  0.00  0.00    +0.000 C 
BRANCH  15  19
ATOM     16  C   UNL     1       2.782   0.347  -1.356  0.00  0.00    +0.000 C 
ATOM     17  C   UNL     1       4.117  -0.356  -1.643  0.00  0.00    +0.000 C 
ATOM     18  C   UNL     1       4.741   0.115  -2.955  0.00  0.00    +0.000 C 
ATOM     19  C   UNL     1       4.988   1.632  -2.986  0.00  0.00    +0.000 C 
ATOM     20  C   UNL     1       3.714   2.412  -2.601  0.00  0.00    +0.000 C 
ATOM     21  C   UNL     1       2.998   1.873  -1.359  0.00  0.00    +0.000 C 
BRANCH  16  22
ATOM     22  C   UNL     1       1.658  -0.089  -2.323  0.00  0.00    +0.000 C 
BRANCH  22  23
ATOM     23  N   UNL     1       1.368  -1.516  -2.229  0.00  0.00    +0.000 NA
ATOM     24  H   UNL     1       0.599  -1.751  -2.860  0.00  0.00    +0.000 HD
ATOM     25  H   UNL     1       1.039  -1.750  -1.292  0.00  0.00    +0.000 HD
ENDBRANCH  22  23
ENDBRANCH  16  22
ENDBRANCH  15  19
ENDBRANCH   1  15
TORSDOF 5
