REMARK  Name = 
REMARK  6 active torsions:
REMARK  status: ('A' for Active; 'I' for Inactive)
REMARK    1  A    between atoms: C_2  and  C_20
REMARK    2  A    between atoms: N_3  and  C_4
REMARK    3  A    between atoms: C_4  and  C_5
REMARK    4  A    between atoms: C_8  and  C_9
REMARK    5  A    between atoms: C_9  and  N_10
REMARK    6  A    between atoms: C_11  and  C_13
REMARK                            x       y       z     vdW  Elec       q    Type
REMARK                         _______ _______ _______ _____ _____    ______ ____
ROOT
ATOM      1  C   UNL     1       3.182  -3.023  -3.375  0.00  0.00    +0.000 C 
ENDROOT
BRANCH   1   2
ATOM      2  C   UNL     1       3.224  -3.152  -1.843  0.00  0.00    +0.000 C 
ATOM      3  C   UNL     1       2.828  -4.567  -1.369  0.00  0.00    +0.000 C 
ATOM      4  C   UNL     1       3.903  -5.630  -1.635  0.00  0.00    +0.000 C 
ATOM      5  C   UNL     1       5.299  -5.223  -1.126  0.00  0.00    +0.000 C 
ATOM      6  C   UNL     1       5.657  -3.845  -1.715  0.00  0.00    +0.000 C 
ATOM      7  C   UNL     1       4.625  -2.783  -1.330  0.00  0.00    +0.000 C 
BRANCH   5   8
ATOM      8  C   UNL     1       5.362  -5.261   0.417  0.00  0.00    +0.000 C 
BRANCH   8   9
ATOM      9  N   UNL     1       5.108  -6.581   0.973  0.00  0.00    +0.000 N 
ATOM     10  C   UNL     1       6.133  -7.468   1.213  0.00  0.00    +0.000 C 
ATOM     11  O   UNL     1       7.309  -7.218   0.945  0.00  0.00    +0.000 OA
ATOM     12  H   UNL     1       4.156  -6.887   1.130  0.00  0.00    +0.000 HD
BRANCH  10  13
ATOM     13  C   UNL     1       5.676  -8.795   1.794  0.00  0.00    +0.000 C 
ATOM     14  C   UNL     1       4.962  -8.636   3.134  0.00  0.00    +0.000 C 
ATOM     15  C   UNL     1       5.099  -9.989   3.824  0.00  0.00    +0.000 C 
ATOM     16  C   UNL     1       6.238 -10.720   3.118  0.00  0.00    +0.000 C 
ATOM     17  C   UNL     1       6.840  -9.719   2.143  0.00  0.00    +0.000 C 
ENDBRANCH  10  13
ENDBRANCH   8   9
ENDBRANCH   5   8
ENDBRANCH   1   2
BRANCH   1  20
ATOM     18  O   UNL     1       1.255  -1.065  -3.749  0.00  0.00    +0.000 OA
ATOM     19  C   UNL     1       0.994  -2.219  -4.081  0.00  0.00    +0.000 C 
ATOM     20  N   UNL     1       1.868  -3.266  -3.900  0.00  0.00    +0.000 N 
ATOM     21  H   UNL     1       1.704  -4.149  -4.361  0.00  0.00    +0.000 HD
BRANCH  19  22
ATOM     22  C   UNL     1      -0.282  -2.582  -4.678  0.00  0.00    +0.000 A 
ATOM     23  C   UNL     1      -1.454  -1.899  -4.392  0.00  0.00    +0.000 A 
ATOM     24  S   UNL     1      -2.799  -2.505  -5.263  0.00  0.00    +0.000 S 
ATOM     25  C   UNL     1      -1.843  -3.675  -6.044  0.00  0.00    +0.000 A 
ATOM     26  N   UNL     1      -2.365  -4.543  -6.946  0.00  0.00    +0.000 NA
ATOM     27  C   UNL     1      -1.505  -5.358  -7.467  0.00  0.00    +0.000 A 
ATOM     28  N   UNL     1      -0.167  -5.383  -7.165  0.00  0.00    +0.000 N 
ATOM     29  C   UNL     1       0.393  -4.582  -6.223  0.00  0.00    +0.000 A 
ATOM     30  O   UNL     1       1.575  -4.750  -5.876  0.00  0.00    +0.000 OA
ATOM     31  C   UNL     1      -0.521  -3.624  -5.633  0.00  0.00    +0.000 A 
ATOM     32  H   UNL     1       0.438  -6.077  -7.582  0.00  0.00    +0.000 HD
ENDBRANCH  19  22
ENDBRANCH   1  20
TORSDOF 6
