REMARK  Name = 
REMARK  12 active torsions:
REMARK  status: ('A' for Active; 'I' for Inactive)
REMARK    1  A    between atoms: C_1  and  N_2
REMARK    2  A    between atoms: N_2  and  C_3
REMARK    3  A    between atoms: C_3  and  C_4
REMARK    4  A    between atoms: C_4  and  N_5
REMARK    5  A    between atoms: C_4  and  C_6
REMARK    6  A    between atoms: C_9  and  C_10
REMARK    7  A    between atoms: C_10  and  N_11
REMARK    8  A    between atoms: N_11  and  CA_12
REMARK    9  A    between atoms: CA_12  and  C_13
REMARK   10  A    between atoms: CA_12  and  C_15
REMARK   11  A    between atoms: C_13  and  O_14
REMARK   12  A    between atoms: C_22  and  C_24
REMARK                            x       y       z     vdW  Elec       q    Type
REMARK                         _______ _______ _______ _____ _____    ______ ____
ROOT
ATOM      1  C   UNL     1       2.081   2.519   0.183  0.00  0.00    +0.000 C 
ENDROOT
BRANCH   1   2
ATOM      2  C   UNL     1       2.853   3.808   0.281  0.00  0.00    +0.000 A 
ATOM      3  C   UNL     1       2.227   5.020  -0.033  0.00  0.00    +0.000 A 
ATOM      4  C   UNL     1       2.941   6.211   0.041  0.00  0.00    +0.000 A 
ATOM      5  C   UNL     1       4.273   6.162   0.437  0.00  0.00    +0.000 A 
ATOM      6  N   UNL     1       4.897   5.004   0.760  0.00  0.00    +0.000 NA
ATOM      7  C   UNL     1       4.183   3.865   0.676  0.00  0.00    +0.000 A 
BRANCH   5   8
ATOM      8  C   UNL     1       5.079   7.433   0.604  0.00  0.00    +0.000 C 
BRANCH   8   9
ATOM      9  N   UNL     1       4.954   8.075   1.923  0.00  0.00    +0.000 NA
ATOM     10  H   UNL     1       3.967   8.293   2.071  0.00  0.00    +0.000 HD
BRANCH   9  11
ATOM     11  CA  UNL     1       5.363   7.201   3.060  0.00  0.00    +0.000 C 
BRANCH  11  12
ATOM     12  C   UNL     1       5.088   7.903   4.390  0.00  0.00    +0.000 A 
ATOM     13  N   UNL     1       4.301   7.410   5.330  0.00  0.00    +0.000 NA
ATOM     14  C   UNL     1       4.263   8.270   6.410  0.00  0.00    +0.000 A 
ATOM     15  C   UNL     1       5.002   9.425   6.281  0.00  0.00    +0.000 A 
ATOM     16  S   UNL     1       5.764   9.453   4.751  0.00  0.00    +0.000 S 
ENDBRANCH  11  12
BRANCH  11  17
ATOM     17  C   UNL     1       6.833   6.712   3.002  0.00  0.00    +0.000 C 
BRANCH  17  18
ATOM     18  O   UNL     1       7.770   7.785   2.862  0.00  0.00    +0.000 OA
ATOM     19  H   UNL     1       7.308   8.479   2.354  0.00  0.00    +0.000 HD
ENDBRANCH  17  18
ENDBRANCH  11  17
ENDBRANCH   9  11
ENDBRANCH   8   9
ENDBRANCH   5   8
ENDBRANCH   1   2
BRANCH   1  20
ATOM     20  N   UNL     1       1.365   2.293   1.449  0.00  0.00    +0.000 NA
ATOM     21  H   UNL     1       2.030   2.241   2.221  0.00  0.00    +0.000 HD
ATOM     22  H   UNL     1       0.873   1.401   1.430  0.00  0.00    +0.000 HD
ENDBRANCH   1  20
BRANCH   1  23
ATOM     23  C   UNL     1       2.920   1.271  -0.219  0.00  0.00    +0.000 C 
BRANCH  23  25
ATOM     24  C   UNL     1       3.569   2.333  -2.447  0.00  0.00    +0.000 C 
ATOM     25  N   UNL     1       3.735   1.283  -1.446  0.00  0.00    +0.000 N 
ATOM     26  C   UNL     1       4.733   0.326  -1.750  0.00  0.00    +0.000 C 
ATOM     27  O   UNL     1       5.399   0.423  -2.775  0.00  0.00    +0.000 OA
BRANCH  26  28
ATOM     28  C   UNL     1       4.946  -0.819  -0.850  0.00  0.00    +0.000 A 
ATOM     29  C   UNL     1       3.935  -1.580  -0.288  0.00  0.00    +0.000 A 
ATOM     30  S   UNL     1       4.491  -2.877   0.670  0.00  0.00    +0.000 S 
ATOM     31  C   UNL     1       6.103  -2.570   0.230  0.00  0.00    +0.000 A 
ATOM     32  N   UNL     1       7.100  -3.405   0.626  0.00  0.00    +0.000 NA
ATOM     33  C   UNL     1       8.264  -3.091   0.161  0.00  0.00    +0.000 A 
ATOM     34  N   UNL     1       8.525  -2.000  -0.628  0.00  0.00    +0.000 N 
ATOM     35  C   UNL     1       7.568  -1.058  -0.942  0.00  0.00    +0.000 A 
ATOM     36  O   UNL     1       7.884   0.015  -1.450  0.00  0.00    +0.000 OA
ATOM     37  C   UNL     1       6.222  -1.431  -0.547  0.00  0.00    +0.000 A 
ATOM     38  H   UNL     1       9.468  -1.776  -0.903  0.00  0.00    +0.000 HD
ENDBRANCH  26  28
ENDBRANCH  23  25
ENDBRANCH   1  23
TORSDOF 11
