REMARK  Name = 
REMARK  9 active torsions:
REMARK  status: ('A' for Active; 'I' for Inactive)
REMARK    1  A    between atoms: C_1  and  O_2
REMARK    2  A    between atoms: O_2  and  C_3
REMARK    3  A    between atoms: C_10  and  C_11
REMARK    4  A    between atoms: N_13  and  C_14
REMARK    5  A    between atoms: C_14  and  C_15
REMARK    6  A    between atoms: C_18  and  N_19
REMARK    7  A    between atoms: N_19  and  C_20
REMARK    8  A    between atoms: C_20  and  C_21
REMARK    9  A    between atoms: C_21  and  N_22
REMARK                            x       y       z     vdW  Elec       q    Type
REMARK                         _______ _______ _______ _____ _____    ______ ____
ROOT
ATOM      1  C   UNL     1       2.847  -3.107  -1.466  0.00  0.00    +0.000 C 
ENDROOT
BRANCH   1   2
ATOM      2  C   UNL     1       1.760  -3.423  -0.474  0.00  0.00    +0.000 A 
ATOM      3  C   UNL     1       1.596  -4.724   0.012  0.00  0.00    +0.000 A 
ATOM      4  C   UNL     1       0.699  -4.987   1.054  0.00  0.00    +0.000 A 
ATOM      5  C   UNL     1      -0.034  -3.958   1.650  0.00  0.00    +0.000 A 
ATOM      6  C   UNL     1       0.024  -2.691   1.057  0.00  0.00    +0.000 A 
ATOM      7  C   UNL     1       0.918  -2.419   0.014  0.00  0.00    +0.000 A 
BRANCH   5   8
ATOM      8  N   UNL     1      -0.916  -4.149   2.726  0.00  0.00    +0.000 N 
ATOM      9  H   UNL     1      -1.845  -4.351   2.361  0.00  0.00    +0.000 HD
BRANCH   8  10
ATOM     10  C   UNL     1      -0.529  -5.111   3.777  0.00  0.00    +0.000 C 
BRANCH  10  11
ATOM     11  C   UNL     1       0.445  -4.457   4.788  0.00  0.00    +0.000 C 
BRANCH  11  12
ATOM     12  N   UNL     1       1.054  -5.368   5.783  0.00  0.00    +0.000 NA
ATOM     13  C   UNL     1       0.092  -6.029   6.689  0.00  0.00    +0.000 C 
ATOM     14  C   UNL     1      -0.493  -5.132   7.796  0.00  0.00    +0.000 C 
ATOM     15  O   UNL     1       0.521  -4.431   8.527  0.00  0.00    +0.000 OA
ATOM     16  C   UNL     1       1.372  -3.693   7.644  0.00  0.00    +0.000 C 
ATOM     17  C   UNL     1       2.033  -4.636   6.624  0.00  0.00    +0.000 C 
ENDBRANCH  11  12
ENDBRANCH  10  11
ENDBRANCH   8  10
ENDBRANCH   5   8
ENDBRANCH   1   2
BRANCH   1  20
ATOM     18  C   UNL     1       3.294  -3.009  -3.858  0.00  0.00    +0.000 C 
ATOM     19  O   UNL     1       4.448  -2.650  -3.633  0.00  0.00    +0.000 OA
ATOM     20  N   UNL     1       2.417  -3.247  -2.833  0.00  0.00    +0.000 N 
ATOM     21  H   UNL     1       1.483  -3.588  -3.012  0.00  0.00    +0.000 HD
BRANCH  18  29
ATOM     22  C   UNL     1       0.282  -3.998  -5.223  0.00  0.00    +0.000 A 
ATOM     23  N   UNL     1      -0.746  -4.362  -6.017  0.00  0.00    +0.000 NA
ATOM     24  C   UNL     1      -0.567  -4.321  -7.340  0.00  0.00    +0.000 A 
ATOM     25  N   UNL     1       0.536  -3.953  -7.989  0.00  0.00    +0.000 NA
ATOM     26  C   UNL     1       1.538  -3.611  -7.165  0.00  0.00    +0.000 A 
ATOM     27  S   UNL     1       3.020  -3.113  -7.822  0.00  0.00    +0.000 S 
ATOM     28  C   UNL     1       3.684  -2.885  -6.276  0.00  0.00    +0.000 A 
ATOM     29  C   UNL     1       2.807  -3.175  -5.237  0.00  0.00    +0.000 A 
ATOM     30  C   UNL     1       1.519  -3.604  -5.770  0.00  0.00    +0.000 A 
BRANCH  22  32
ATOM     31  C   UNL     1      -1.277  -3.983  -3.483  0.00  0.00    +0.000 C 
ATOM     32  O   UNL     1       0.099  -4.058  -3.856  0.00  0.00    +0.000 OA
ENDBRANCH  22  32
ENDBRANCH  18  29
ENDBRANCH   1  20
TORSDOF 8
