REMARK  Name = 
REMARK  7 active torsions:
REMARK  status: ('A' for Active; 'I' for Inactive)
REMARK    1  A    between atoms: C_1  and  O_2
REMARK    2  A    between atoms: O_2  and  C_3
REMARK    3  A    between atoms: N_6  and  C_7
REMARK    4  A    between atoms: C_7  and  C_8
REMARK    5  A    between atoms: C_12  and  C_13
REMARK    6  A    between atoms: C_17  and  C_18
REMARK    7  A    between atoms: C_23  and  N_24
REMARK                            x       y       z     vdW  Elec       q    Type
REMARK                         _______ _______ _______ _____ _____    ______ ____
ROOT
ATOM      1  C   UNL     1       6.826   3.794   1.623  0.00  0.00    +0.000 C 
ENDROOT
BRANCH   1   5
ATOM      2  C   UNL     1       2.134   4.135   1.599  0.00  0.00    +0.000 A 
ATOM      3  N   UNL     1       3.360   4.515   1.155  0.00  0.00    +0.000 NA
ATOM      4  C   UNL     1       4.383   3.689   1.440  0.00  0.00    +0.000 A 
ATOM      5  N   UNL     1       5.600   4.038   0.882  0.00  0.00    +0.000 N 
ATOM      6  C   UNL     1       4.153   2.518   2.168  0.00  0.00    +0.000 A 
ATOM      7  N   UNL     1       2.939   2.135   2.640  0.00  0.00    +0.000 NA
ATOM      8  C   UNL     1       1.918   2.953   2.331  0.00  0.00    +0.000 A 
ATOM      9  H   UNL     1       5.525   4.995   0.534  0.00  0.00    +0.000 HD
BRANCH   8  10
ATOM     10  N   UNL     1       0.661   2.567   2.803  0.00  0.00    +0.000 N 
ATOM     11  H   UNL     1       0.754   1.640   3.206  0.00  0.00    +0.000 HD
ATOM     12  H   UNL     1      -0.033   2.619   2.065  0.00  0.00    +0.000 HD
ENDBRANCH   8  10
BRANCH   2  14
ATOM     13  C   UNL     1       1.349   6.031   0.470  0.00  0.00    +0.000 C 
ATOM     14  O   UNL     1       1.025   4.895   1.265  0.00  0.00    +0.000 OA
ENDBRANCH   2  14
ENDBRANCH   1   5
BRANCH   1  15
ATOM     15  C   UNL     1       8.011   4.336   0.854  0.00  0.00    +0.000 A 
ATOM     16  C   UNL     1       8.959   3.473   0.318  0.00  0.00    +0.000 A 
ATOM     17  N   UNL     1      10.036   3.905  -0.372  0.00  0.00    +0.000 NA
ATOM     18  C   UNL     1      10.117   5.249  -0.531  0.00  0.00    +0.000 A 
ATOM     19  C   UNL     1       9.173   6.144  -0.031  0.00  0.00    +0.000 A 
ATOM     20  N   UNL     1       8.110   5.686   0.686  0.00  0.00    +0.000 NA
BRANCH  19  21
ATOM     21  C   UNL     1       9.250   7.602  -0.237  0.00  0.00    +0.000 A 
ATOM     22  C   UNL     1       8.757   8.492   0.724  0.00  0.00    +0.000 A 
ATOM     23  C   UNL     1       8.847   9.855   0.496  0.00  0.00    +0.000 A 
ATOM     24  N   UNL     1       9.383  10.396  -0.617  0.00  0.00    +0.000 NA
ATOM     25  C   UNL     1       9.845   9.545  -1.557  0.00  0.00    +0.000 A 
ATOM     26  C   UNL     1      10.415  10.141  -2.809  0.00  0.00    +0.000 C 
ATOM     27  C   UNL     1       9.801   8.160  -1.401  0.00  0.00    +0.000 A 
ENDBRANCH  19  21
ENDBRANCH   1  15
TORSDOF 5
