REMARK  Name = 
REMARK  5 active torsions:
REMARK  status: ('A' for Active; 'I' for Inactive)
REMARK    1  A    between atoms: C_2  and  C_4
REMARK    2  A    between atoms: C_7  and  S_8
REMARK    3  A    between atoms: S_8  and  C_9
REMARK    4  A    between atoms: C_9  and  C_10
REMARK    5  A    between atoms: C_12  and  C_13
REMARK                            x       y       z     vdW  Elec       q    Type
REMARK                         _______ _______ _______ _____ _____    ______ ____
ROOT
ATOM      1  C   UNL     1       5.034  -6.206  -0.442  0.00  0.00    +0.000 C 
ENDROOT
BRANCH   1   2
ATOM      2  C   UNL     1       5.846  -7.481  -0.385  0.00  0.00    +0.000 A 
ATOM      3  C   UNL     1       7.238  -7.430  -0.292  0.00  0.00    +0.000 A 
ATOM      4  C   UNL     1       7.993  -8.610  -0.194  0.00  0.00    +0.000 A 
ATOM      5  C   UNL     1       7.286  -9.816  -0.255  0.00  0.00    +0.000 A 
ATOM      6  C   UNL     1       5.906  -9.788  -0.396  0.00  0.00    +0.000 A 
ATOM      7  N   UNL     1       5.177  -8.655  -0.454  0.00  0.00    +0.000 NA
BRANCH   4   8
ATOM      8  C   UNL     1       9.462  -8.565  -0.012  0.00  0.00    +0.000 A 
ATOM      9  C   UNL     1      10.072  -7.520   0.700  0.00  0.00    +0.000 A 
ATOM     10  C   UNL     1      11.451  -7.497   0.841  0.00  0.00    +0.000 A 
ATOM     11  N   UNL     1      12.270  -8.442   0.340  0.00  0.00    +0.000 NA
ATOM     12  C   UNL     1      11.680  -9.450  -0.332  0.00  0.00    +0.000 A 
ATOM     13  C   UNL     1      10.309  -9.552  -0.532  0.00  0.00    +0.000 A 
ENDBRANCH   4   8
ENDBRANCH   1   2
BRANCH   1  14
ATOM     14  S   UNL     1       5.243  -5.166   1.056  0.00  0.00    +0.000 S 
BRANCH  14  18
ATOM     15  C   UNL     1       2.656  -1.631  -0.115  0.00  0.00    +0.000 A 
ATOM     16  C   UNL     1       3.294  -1.615   1.125  0.00  0.00    +0.000 A 
ATOM     17  C   UNL     1       4.083  -2.709   1.496  0.00  0.00    +0.000 A 
ATOM     18  C   UNL     1       4.212  -3.782   0.618  0.00  0.00    +0.000 A 
ATOM     19  N   UNL     1       3.591  -3.814  -0.579  0.00  0.00    +0.000 NA
ATOM     20  C   UNL     1       2.816  -2.753  -0.914  0.00  0.00    +0.000 A 
BRANCH  15  22
ATOM     21  N   UNL     1       2.115   0.734  -0.182  0.00  0.00    +0.000 N 
ATOM     22  C   UNL     1       1.816  -0.527  -0.618  0.00  0.00    +0.000 C 
ATOM     23  O   UNL     1       0.923  -0.722  -1.430  0.00  0.00    +0.000 OA
ATOM     24  H   UNL     1       1.614   1.489  -0.635  0.00  0.00    +0.000 HD
ATOM     25  H   UNL     1       2.993   0.960   0.262  0.00  0.00    +0.000 HD
ENDBRANCH  15  22
ENDBRANCH  14  18
ENDBRANCH   1  14
TORSDOF 5
