REMARK  Name = 
REMARK  7 active torsions:
REMARK  status: ('A' for Active; 'I' for Inactive)
REMARK    1  A    between atoms: C_1  and  C_2
REMARK    2  A    between atoms: C_2  and  C_3
REMARK    3  A    between atoms: C_2  and  C_14
REMARK    4  A    between atoms: C_3  and  O_4
REMARK    5  A    between atoms: O_4  and  C_5
REMARK    6  A    between atoms: C_8  and  C_9
REMARK    7  A    between atoms: C_9  and  O_11
REMARK                            x       y       z     vdW  Elec       q    Type
REMARK                         _______ _______ _______ _____ _____    ______ ____
ROOT
ATOM      1  O   UNL     1       2.568   1.963  -1.523  0.00  0.00    +0.000 OA
ENDROOT
BRANCH   1   2
ATOM      2  C   UNL     1       3.122   3.137  -1.956  0.00  0.00    +0.000 A 
ATOM      3  C   UNL     1       4.402   3.584  -1.624  0.00  0.00    +0.000 A 
ATOM      4  C   UNL     1       4.891   4.782  -2.153  0.00  0.00    +0.000 A 
ATOM      5  C   UNL     1       4.092   5.550  -3.008  0.00  0.00    +0.000 A 
ATOM      6  C   UNL     1       2.818   5.089  -3.361  0.00  0.00    +0.000 A 
ATOM      7  C   UNL     1       2.340   3.884  -2.839  0.00  0.00    +0.000 A 
BRANCH   5   8
ATOM      8  C   UNL     1       4.577   6.819  -3.610  0.00  0.00    +0.000 C 
ATOM      9  O   UNL     1       4.195   7.224  -4.693  0.00  0.00    +0.000 OA
BRANCH   8  10
ATOM     10  O   UNL     1       5.451   7.499  -2.836  0.00  0.00    +0.000 OA
ATOM     11  H   UNL     1       5.539   7.177  -1.922  0.00  0.00    +0.000 HD
ENDBRANCH   8  10
ENDBRANCH   5   8
ENDBRANCH   1   2
BRANCH   1  12
ATOM     12  C   UNL     1       3.017   1.508  -0.246  0.00  0.00    +0.000 C 
BRANCH  12  14
ATOM     13  C   UNL     1       2.552  -0.990  -0.596  0.00  0.00    +0.000 C 
ATOM     14  C   UNL     1       2.240   0.282   0.125  0.00  0.00    +0.000 C 
BRANCH  14  15
ATOM     15  C   UNL     1       1.030   0.393   0.953  0.00  0.00    +0.000 A 
ATOM     16  C   UNL     1       0.710  -0.592   1.896  0.00  0.00    +0.000 A 
ATOM     17  C   UNL     1      -0.429  -0.468   2.697  0.00  0.00    +0.000 A 
ATOM     18  C   UNL     1      -1.267   0.636   2.556  0.00  0.00    +0.000 A 
ATOM     19  C   UNL     1      -0.965   1.619   1.617  0.00  0.00    +0.000 A 
ATOM     20  C   UNL     1       0.178   1.498   0.823  0.00  0.00    +0.000 A 
ENDBRANCH  14  15
ENDBRANCH  12  14
ENDBRANCH   1  12
TORSDOF 6
