REMARK  Name = 
REMARK  7 active torsions:
REMARK  status: ('A' for Active; 'I' for Inactive)
REMARK    1  A    between atoms: C_2  and  C_4
REMARK    2  A    between atoms: C_7  and  N_8
REMARK    3  A    between atoms: N_8  and  C_9
REMARK    4  A    between atoms: C_9  and  C_10
REMARK    5  A    between atoms: C_10  and  C_13
REMARK    6  A    between atoms: C_18  and  C_19
REMARK    7  A    between atoms: C_19  and  C_20
REMARK                            x       y       z     vdW  Elec       q    Type
REMARK                         _______ _______ _______ _____ _____    ______ ____
ROOT
ATOM      1  C   UNL     1       6.114  -5.163  -4.921  0.00  0.00    +0.000 C 
ATOM      2  F   UNL     1       7.380  -4.655  -4.981  0.00  0.00    +0.000 F 
ATOM      3  F   UNL     1       6.173  -6.165  -3.989  0.00  0.00    +0.000 F 
ENDROOT
BRANCH   1   4
ATOM      4  C   UNL     1       5.641  -5.666  -6.271  0.00  0.00    +0.000 A 
ATOM      5  C   UNL     1       4.756  -6.745  -6.355  0.00  0.00    +0.000 A 
ATOM      6  C   UNL     1       4.305  -7.184  -7.596  0.00  0.00    +0.000 A 
ATOM      7  C   UNL     1       4.731  -6.548  -8.772  0.00  0.00    +0.000 A 
ATOM      8 CL   UNL     1       4.144  -7.186 -10.267  0.00  0.00    +0.000 Cl
ATOM      9  C   UNL     1       5.618  -5.460  -8.718  0.00  0.00    +0.000 A 
ATOM     10  C   UNL     1       6.068  -5.037  -7.452  0.00  0.00    +0.000 A 
BRANCH   9  11
ATOM     11  C   UNL     1       6.176  -4.770  -9.946  0.00  0.00    +0.000 C 
BRANCH  11  12
ATOM     12  C   UNL     1       5.459  -3.489 -10.370  0.00  0.00    +0.000 C 
ATOM     13  C   UNL     1       5.221  -2.317  -9.398  0.00  0.00    +0.000 C 
ATOM     14  N   UNL     1       3.855  -2.164  -9.919  0.00  0.00    +0.000 NA
ATOM     15  C   UNL     1       3.941  -3.453 -10.624  0.00  0.00    +0.000 C 
ATOM     16  H   UNL     1       3.736  -1.363 -10.539  0.00  0.00    +0.000 HD
ENDBRANCH  11  12
ENDBRANCH   9  11
ENDBRANCH   1   4
BRANCH   1  17
ATOM     17  C   UNL     1       5.152  -4.070  -4.392  0.00  0.00    +0.000 C 
BRANCH  17  18
ATOM     18  N   UNL     1       5.517  -3.612  -3.045  0.00  0.00    +0.000 N 
ATOM     19  H   UNL     1       5.883  -4.346  -2.439  0.00  0.00    +0.000 HD
BRANCH  18  23
ATOM     20  C   UNL     1       3.483  -0.557  -0.980  0.00  0.00    +0.000 A 
ATOM     21  C   UNL     1       3.027  -0.955  -2.241  0.00  0.00    +0.000 A 
ATOM     22  C   UNL     1       3.680  -1.980  -2.933  0.00  0.00    +0.000 A 
ATOM     23  C   UNL     1       4.777  -2.647  -2.376  0.00  0.00    +0.000 A 
ATOM     24  C   UNL     1       5.237  -2.220  -1.120  0.00  0.00    +0.000 A 
ATOM     25  C   UNL     1       4.605  -1.181  -0.431  0.00  0.00    +0.000 A 
BRANCH  20  27
ATOM     26  N   UNL     1       1.501   0.735  -0.440  0.00  0.00    +0.000 N 
ATOM     27  C   UNL     1       2.836   0.539  -0.222  0.00  0.00    +0.000 C 
ATOM     28  O   UNL     1       3.455   1.215   0.589  0.00  0.00    +0.000 OA
ATOM     29  H   UNL     1       1.049   1.407   0.171  0.00  0.00    +0.000 HD
ATOM     30  H   UNL     1       0.922   0.043  -0.886  0.00  0.00    +0.000 HD
ENDBRANCH  20  27
ENDBRANCH  18  23
ENDBRANCH  17  18
ENDBRANCH   1  17
TORSDOF 7
