REMARK  Name = 
REMARK  6 active torsions:
REMARK  status: ('A' for Active; 'I' for Inactive)
REMARK    1  A    between atoms: C_1  and  O_2
REMARK    2  A    between atoms: O_2  and  C_3
REMARK    3  A    between atoms: C_7  and  C_8
REMARK    4  A    between atoms: C_8  and  N_9
REMARK    5  A    between atoms: C_15  and  C_16
REMARK    6  A    between atoms: C_20  and  C_21
REMARK                            x       y       z     vdW  Elec       q    Type
REMARK                         _______ _______ _______ _____ _____    ______ ____
ROOT
ATOM      1  N   UNL     1       1.862  -0.667  -4.975  0.00  0.00    +0.000 N 
ATOM      2  C   UNL     1       2.019   0.632  -5.405  0.00  0.00    +0.000 A 
ATOM      3  C   UNL     1       0.932   0.968  -6.178  0.00  0.00    +0.000 A 
ATOM      4  C   UNL     1       0.065  -0.155  -6.218  0.00  0.00    +0.000 A 
ATOM      5  C   UNL     1      -1.133  -0.425  -6.914  0.00  0.00    +0.000 A 
ATOM      6  C   UNL     1      -1.730  -1.684  -6.798  0.00  0.00    +0.000 A 
ATOM      7  C   UNL     1      -1.177  -2.659  -5.970  0.00  0.00    +0.000 A 
ATOM      8  C   UNL     1       0.003  -2.402  -5.246  0.00  0.00    +0.000 A 
ATOM      9  C   UNL     1       0.634  -1.153  -5.415  0.00  0.00    +0.000 A 
ENDROOT
BRANCH   7  10
ATOM     10  C   UNL     1      -1.787  -3.965  -5.904  0.00  0.00    +0.000 C 
ATOM     11  N   UNL     1      -2.267  -5.014  -5.876  0.00  0.00    +0.000 NA
ENDBRANCH   7  10
BRANCH   1  12
ATOM     12  C   UNL     1       2.987  -1.477  -4.484  0.00  0.00    +0.000 C 
BRANCH  12  17
ATOM     13  C   UNL     1       4.433  -1.430  -0.973  0.00  0.00    +0.000 A 
ATOM     14  N   UNL     1       3.379  -1.884  -0.279  0.00  0.00    +0.000 NA
ATOM     15  C   UNL     1       2.261  -2.076  -0.973  0.00  0.00    +0.000 A 
ATOM     16  N   UNL     1       2.122  -1.933  -2.293  0.00  0.00    +0.000 NA
ATOM     17  C   UNL     1       3.181  -1.445  -2.984  0.00  0.00    +0.000 A 
ATOM     18  C   UNL     1       4.378  -1.096  -2.333  0.00  0.00    +0.000 A 
ATOM     19  C   UNL     1       5.527  -0.421  -3.019  0.00  0.00    +0.000 C 
BRANCH  13  21
ATOM     20  C   UNL     1       5.575  -1.837   1.057  0.00  0.00    +0.000 C 
ATOM     21  O   UNL     1       5.634  -1.332  -0.290  0.00  0.00    +0.000 OA
ENDBRANCH  13  21
ENDBRANCH  12  17
ENDBRANCH   1  12
TORSDOF 4
