REMARK  Name = 
REMARK  7 active torsions:
REMARK  status: ('A' for Active; 'I' for Inactive)
REMARK    1  A    between atoms: C_1  and  C_2
REMARK    2  A    between atoms: C_2  and  C_3
REMARK    3  A    between atoms: C_2  and  C_4
REMARK    4  A    between atoms: C_2  and  C_5
REMARK    5  A    between atoms: N_7  and  C_8
REMARK    6  A    between atoms: C_8  and  C_9
REMARK    7  A    between atoms: C_18  and  C_19
REMARK                            x       y       z     vdW  Elec       q    Type
REMARK                         _______ _______ _______ _____ _____    ______ ____
ROOT
ATOM      1  C   UNL     1       2.900  -1.148  -0.564  0.00  0.00    +0.000 A 
ATOM      2  C   UNL     1       2.527  -2.443  -0.238  0.00  0.00    +0.000 A 
ATOM      3  N   UNL     1       3.102  -3.320  -1.122  0.00  0.00    +0.000 N 
ATOM      4  C   UNL     1       3.859  -2.627  -2.028  0.00  0.00    +0.000 A 
ATOM      5  N   UNL     1       4.553  -3.179  -3.045  0.00  0.00    +0.000 NA
ATOM      6  C   UNL     1       5.228  -2.267  -3.790  0.00  0.00    +0.000 A 
ATOM      7  C   UNL     1       5.253  -0.891  -3.574  0.00  0.00    +0.000 A 
ATOM      8  C   UNL     1       4.502  -0.376  -2.514  0.00  0.00    +0.000 A 
ATOM      9  C   UNL     1       3.771  -1.272  -1.706  0.00  0.00    +0.000 A 
ENDROOT
BRANCH   7  10
ATOM     10  C   UNL     1       6.080  -0.055  -4.479  0.00  0.00    +0.000 C 
ATOM     11  N   UNL     1       6.162   1.291  -4.244  0.00  0.00    +0.000 N 
ATOM     12  O   UNL     1       6.693  -0.551  -5.417  0.00  0.00    +0.000 OA
ATOM     13  H   UNL     1       5.732   1.777  -3.473  0.00  0.00    +0.000 HD
ATOM     14  H   UNL     1       6.757   1.824  -4.865  0.00  0.00    +0.000 HD
ENDBRANCH   7  10
BRANCH   1  16
ATOM     15  C   UNL     1       1.506  -0.189   1.330  0.00  0.00    +0.000 C 
ATOM     16  C   UNL     1       2.454   0.128   0.150  0.00  0.00    +0.000 C 
ATOM     17  C   UNL     1       1.687   1.056  -0.816  0.00  0.00    +0.000 C 
ATOM     18  C   UNL     1       3.667   0.887   0.723  0.00  0.00    +0.000 C 
ENDBRANCH   1  16
BRANCH   3  19
ATOM     19  C   UNL     1       2.950  -4.768  -1.070  0.00  0.00    +0.000 C 
BRANCH  19  20
ATOM     20  C   UNL     1       1.679  -5.214  -1.748  0.00  0.00    +0.000 A 
ATOM     21  C   UNL     1       1.533  -5.096  -3.134  0.00  0.00    +0.000 A 
ATOM     22  C   UNL     1       0.338  -5.484  -3.714  0.00  0.00    +0.000 A 
ATOM     23  N   UNL     1      -0.704  -5.990  -3.021  0.00  0.00    +0.000 NA
ATOM     24  C   UNL     1      -0.541  -6.113  -1.687  0.00  0.00    +0.000 A 
ATOM     25  C   UNL     1       0.614  -5.745  -1.013  0.00  0.00    +0.000 A 
ENDBRANCH  19  20
ENDBRANCH   3  19
TORSDOF 4
