REMARK  Name = 
REMARK  5 active torsions:
REMARK  status: ('A' for Active; 'I' for Inactive)
REMARK    1  A    between atoms: C_2  and  C_3
REMARK    2  A    between atoms: C_6  and  N_7
REMARK    3  A    between atoms: N_7  and  C_8
REMARK    4  A    between atoms: C_8  and  C_9
REMARK    5  A    between atoms: C_13  and  C_14
REMARK                            x       y       z     vdW  Elec       q    Type
REMARK                         _______ _______ _______ _____ _____    ______ ____
ROOT
ATOM      1  C   UNL     1       8.728  -0.943   0.156  0.00  0.00    +0.000 C 
ATOM      2  C   UNL     1       8.935  -1.550  -1.227  0.00  0.00    +0.000 C 
ATOM      3  C   UNL     1       8.985  -2.420  -0.017  0.00  0.00    +0.000 C 
ENDROOT
BRANCH   1   4
ATOM      4  C   UNL     1       9.813  -0.064   0.757  0.00  0.00    +0.000 A 
ATOM      5  C   UNL     1      10.394  -0.334   2.004  0.00  0.00    +0.000 A 
ATOM      6  C   UNL     1      11.216   0.602   2.629  0.00  0.00    +0.000 A 
ATOM      7  C   UNL     1      11.459   1.835   2.021  0.00  0.00    +0.000 A 
ATOM      8  C   UNL     1      10.911   2.149   0.768  0.00  0.00    +0.000 A 
ATOM      9  C   UNL     1      10.132   1.162   0.142  0.00  0.00    +0.000 A 
BRANCH   8  10
ATOM     10  C   UNL     1      11.041   3.495   0.167  0.00  0.00    +0.000 A 
ATOM     11  C   UNL     1      11.133   3.682  -1.226  0.00  0.00    +0.000 A 
ATOM     12  C   UNL     1      11.176   4.963  -1.785  0.00  0.00    +0.000 A 
ATOM     13  C   UNL     1      11.140   6.089  -0.965  0.00  0.00    +0.000 A 
ATOM     14  C   UNL     1      11.055   5.934   0.413  0.00  0.00    +0.000 A 
ATOM     15  C   UNL     1      11.002   4.650   0.967  0.00  0.00    +0.000 A 
ENDBRANCH   8  10
ENDBRANCH   1   4
BRANCH   1  16
ATOM     16  N   UNL     1       7.388  -0.341   0.303  0.00  0.00    +0.000 N 
ATOM     17  H   UNL     1       7.326   0.585  -0.120  0.00  0.00    +0.000 HD
BRANCH  16  21
ATOM     18  C   UNL     1       4.770  -0.644   3.466  0.00  0.00    +0.000 A 
ATOM     19  N   UNL     1       5.886  -1.395   3.548  0.00  0.00    +0.000 NA
ATOM     20  C   UNL     1       6.762  -1.264   2.523  0.00  0.00    +0.000 A 
ATOM     21  C   UNL     1       6.585  -0.416   1.448  0.00  0.00    +0.000 A 
ATOM     22  C   UNL     1       5.392   0.295   1.493  0.00  0.00    +0.000 A 
ATOM     23  N   UNL     1       4.475   0.218   2.478  0.00  0.00    +0.000 NA
BRANCH  18  25
ATOM     24  N   UNL     1       2.984  -0.938   5.335  0.00  0.00    +0.000 NA
ATOM     25  C   UNL     1       3.788  -0.808   4.505  0.00  0.00    +0.000 C 
ENDBRANCH  18  25
ENDBRANCH  16  21
ENDBRANCH   1  16
TORSDOF 5
