REMARK  Name = 
REMARK  8 active torsions:
REMARK  status: ('A' for Active; 'I' for Inactive)
REMARK    1  A    between atoms: C_1  and  C_2
REMARK    2  A    between atoms: C_2  and  C_3
REMARK    3  A    between atoms: C_2  and  N_4
REMARK    4  A    between atoms: C_8  and  C_9
REMARK    5  A    between atoms: C_9  and  C_10
REMARK    6  A    between atoms: C_10  and  C_11
REMARK    7  A    between atoms: C_10  and  O_12
REMARK    8  A    between atoms: C_10  and  C_13
REMARK                            x       y       z     vdW  Elec       q    Type
REMARK                         _______ _______ _______ _____ _____    ______ ____
ROOT
ATOM      1  N   UNL     1       2.931   0.636  -1.121  0.00  0.00    +0.000 N 
ATOM      2  C   UNL     1       4.290   0.871  -1.365  0.00  0.00    +0.000 A 
ATOM      3  C   UNL     1       5.099  -0.208  -1.716  0.00  0.00    +0.000 A 
ATOM      4  N   UNL     1       6.434  -0.115  -1.942  0.00  0.00    +0.000 NA
ATOM      5  C   UNL     1       6.970   1.117  -1.779  0.00  0.00    +0.000 A 
ATOM      6  C   UNL     1       6.158   2.210  -1.494  0.00  0.00    +0.000 A 
ATOM      7  N   UNL     1       4.820   2.107  -1.277  0.00  0.00    +0.000 NA
ATOM      8  H   UNL     1       2.490   0.408  -2.011  0.00  0.00    +0.000 HD
ENDROOT
BRANCH   1  10
ATOM      9  C   UNL     1       0.715   1.236  -0.368  0.00  0.00    +0.000 C 
ATOM     10  C   UNL     1       2.191   1.652  -0.372  0.00  0.00    +0.000 C 
ATOM     11  C   UNL     1       2.693   1.724   1.074  0.00  0.00    +0.000 C 
ENDBRANCH   1  10
BRANCH   5  12
ATOM     12  C   UNL     1       8.467   1.281  -1.922  0.00  0.00    +0.000 C 
BRANCH  12  13
ATOM     13  C   UNL     1       9.282  -0.041  -2.040  0.00  0.00    +0.000 C 
ATOM     14  C   UNL     1       9.165  -0.954  -0.805  0.00  0.00    +0.000 C 
BRANCH  13  15
ATOM     15  C   UNL     1      10.766   0.268  -2.271  0.00  0.00    +0.000 A 
ATOM     16  C   UNL     1      11.526   0.952  -1.309  0.00  0.00    +0.000 A 
ATOM     17  C   UNL     1      12.879   1.161  -1.535  0.00  0.00    +0.000 A 
ATOM     18  N   UNL     1      13.529   0.751  -2.641  0.00  0.00    +0.000 NA
ATOM     19  C   UNL     1      12.790   0.097  -3.562  0.00  0.00    +0.000 A 
ATOM     20  C   UNL     1      11.434  -0.162  -3.425  0.00  0.00    +0.000 A 
ENDBRANCH  13  15
BRANCH  13  21
ATOM     21  O   UNL     1       8.788  -0.780  -3.168  0.00  0.00    +0.000 OA
ATOM     22  H   UNL     1       7.831  -0.909  -2.992  0.00  0.00    +0.000 HD
ENDBRANCH  13  21
ENDBRANCH  12  13
ENDBRANCH   5  12
TORSDOF 5
