REMARK  Name = 
REMARK  7 active torsions:
REMARK  status: ('A' for Active; 'I' for Inactive)
REMARK    1  A    between atoms: C_1  and  C_2
REMARK    2  A    between atoms: C_2  and  N_3
REMARK    3  A    between atoms: C_2  and  C_16
REMARK    4  A    between atoms: C_4  and  C_6
REMARK    5  A    between atoms: C_19  and  C_20
REMARK    6  A    between atoms: C_20  and  N_21
REMARK    7  A    between atoms: C_22  and  C_24
REMARK                            x       y       z     vdW  Elec       q    Type
REMARK                         _______ _______ _______ _____ _____    ______ ____
ROOT
ATOM      1  C   UNL     1       3.593  -0.645  -1.038  0.00  0.00    +0.000 C 
ATOM      2  C   UNL     1       2.526  -0.017  -0.136  0.00  0.00    +0.000 C 
ENDROOT
BRANCH   2   3
ATOM      3  C   UNL     1       2.983  -0.040   1.321  0.00  0.00    +0.000 A 
ATOM      4  C   UNL     1       3.173   1.149   2.036  0.00  0.00    +0.000 A 
ATOM      5  C   UNL     1       3.564   1.122   3.384  0.00  0.00    +0.000 A 
ATOM      6  C   UNL     1       3.780  -0.094   4.048  0.00  0.00    +0.000 A 
ATOM      7  C   UNL     1       3.578  -1.284   3.339  0.00  0.00    +0.000 A 
ATOM      8  C   UNL     1       3.191  -1.257   1.995  0.00  0.00    +0.000 A 
BRANCH   6   9
ATOM      9  C   UNL     1       4.221  -0.126   5.490  0.00  0.00    +0.000 C 
BRANCH   9  10
ATOM     10  N   UNL     1       3.106  -0.168   6.411  0.00  0.00    +0.000 N 
ATOM     11  C   UNL     1       3.325  -0.264   7.767  0.00  0.00    +0.000 C 
ATOM     12  O   UNL     1       4.450  -0.375   8.247  0.00  0.00    +0.000 OA
ATOM     13  H   UNL     1       2.220   0.211   6.091  0.00  0.00    +0.000 HD
BRANCH  11  14
ATOM     14  C   UNL     1       2.089  -0.268   8.662  0.00  0.00    +0.000 C 
ATOM     15  C   UNL     1       1.168  -1.443   8.421  0.00  0.00    +0.000 C 
ATOM     16  C   UNL     1       0.184  -0.932   7.388  0.00  0.00    +0.000 C 
ATOM     17  O   UNL     1       0.241   0.501   7.402  0.00  0.00    +0.000 OA
ATOM     18  C   UNL     1       1.189   0.918   8.399  0.00  0.00    +0.000 C 
ENDBRANCH  11  14
ENDBRANCH   9  10
ENDBRANCH   6   9
ENDBRANCH   2   3
BRANCH   2  19
ATOM     19  N   UNL     1       1.246  -0.702  -0.230  0.00  0.00    +0.000 N 
ATOM     20  C   UNL     1       0.518  -0.831  -1.386  0.00  0.00    +0.000 C 
ATOM     21  O   UNL     1       0.900  -0.417  -2.474  0.00  0.00    +0.000 OA
ATOM     22  H   UNL     1       0.733  -0.743   0.642  0.00  0.00    +0.000 HD
BRANCH  20  23
ATOM     23  C   UNL     1      -0.735  -1.588  -1.251  0.00  0.00    +0.000 A 
ATOM     24  C   UNL     1      -1.238  -2.307  -2.327  0.00  0.00    +0.000 A 
ATOM     25  S   UNL     1      -2.666  -3.168  -1.959  0.00  0.00    +0.000 S 
ATOM     26  C   UNL     1      -2.685  -2.566  -0.366  0.00  0.00    +0.000 A 
ATOM     27  N   UNL     1      -3.679  -2.902   0.501  0.00  0.00    +0.000 NA
ATOM     28  C   UNL     1      -3.579  -2.346   1.664  0.00  0.00    +0.000 A 
ATOM     29  N   UNL     1      -2.576  -1.494   2.042  0.00  0.00    +0.000 N 
ATOM     30  C   UNL     1      -1.536  -1.155   1.211  0.00  0.00    +0.000 A 
ATOM     31  O   UNL     1      -0.624  -0.434   1.597  0.00  0.00    +0.000 OA
ATOM     32  C   UNL     1      -1.609  -1.739  -0.114  0.00  0.00    +0.000 A 
ATOM     33  H   UNL     1      -2.547  -1.099   2.969  0.00  0.00    +0.000 HD
ENDBRANCH  20  23
ENDBRANCH   2  19
TORSDOF 6
