REMARK  Name = 
REMARK  7 active torsions:
REMARK  status: ('A' for Active; 'I' for Inactive)
REMARK    1  A    between atoms: N_1  and  C_2
REMARK    2  A    between atoms: C_2  and  C_3
REMARK    3  A    between atoms: C_6  and  C_7
REMARK    4  A    between atoms: C_7  and  C_8
REMARK    5  A    between atoms: C_11  and  C_12
REMARK    6  A    between atoms: C_12  and  N_13
REMARK    7  A    between atoms: C_14  and  C_16
REMARK                            x       y       z     vdW  Elec       q    Type
REMARK                         _______ _______ _______ _____ _____    ______ ____
ROOT
ATOM      1  C   UNL     1       6.129   5.058  -2.341  0.00  0.00    +0.000 A 
ATOM      2  C   UNL     1       6.931   4.060  -2.910  0.00  0.00    +0.000 A 
ATOM      3  C   UNL     1       8.323   4.183  -2.925  0.00  0.00    +0.000 A 
ATOM      4  C   UNL     1       8.942   5.314  -2.380  0.00  0.00    +0.000 A 
ATOM      5  C   UNL     1       8.137   6.343  -1.874  0.00  0.00    +0.000 A 
ATOM      6  C   UNL     1       6.745   6.212  -1.842  0.00  0.00    +0.000 A 
ENDROOT
BRANCH   1   7
ATOM      7  C   UNL     1       4.632   4.871  -2.249  0.00  0.00    +0.000 C 
BRANCH   7  11
ATOM      8  C   UNL     1       2.659   1.957   0.446  0.00  0.00    +0.000 C 
ATOM      9  C   UNL     1       4.189   2.070   0.471  0.00  0.00    +0.000 C 
ATOM     10  C   UNL     1       4.754   2.781  -0.756  0.00  0.00    +0.000 C 
ATOM     11  C   UNL     1       4.147   4.182  -0.949  0.00  0.00    +0.000 C 
ATOM     12  C   UNL     1       2.608   4.105  -0.955  0.00  0.00    +0.000 C 
ATOM     13  C   UNL     1       2.046   3.355   0.253  0.00  0.00    +0.000 C 
BRANCH   8  14
ATOM     14  C   UNL     1       2.129   0.960  -0.606  0.00  0.00    +0.000 C 
BRANCH  14  15
ATOM     15  N   UNL     1       2.618  -0.401  -0.399  0.00  0.00    +0.000 NA
ATOM     16  H   UNL     1       3.581  -0.475  -0.725  0.00  0.00    +0.000 HD
ATOM     17  H   UNL     1       2.644  -0.611   0.599  0.00  0.00    +0.000 HD
ENDBRANCH  14  15
ENDBRANCH   8  14
ENDBRANCH   7  11
ENDBRANCH   1   7
BRANCH   4  18
ATOM     18  C   UNL     1      10.442   5.429  -2.353  0.00  0.00    +0.000 C 
BRANCH  18  19
ATOM     19  N   UNL     1      10.950   6.039  -3.554  0.00  0.00    +0.000 N 
ATOM     20  C   UNL     1      12.300   6.140  -3.775  0.00  0.00    +0.000 C 
ATOM     21  O   UNL     1      13.123   5.678  -2.987  0.00  0.00    +0.000 OA
ATOM     22  H   UNL     1      10.305   6.606  -4.095  0.00  0.00    +0.000 HD
BRANCH  20  23
ATOM     23  C   UNL     1      12.717   6.772  -5.031  0.00  0.00    +0.000 A 
ATOM     24  C   UNL     1      13.976   6.498  -5.548  0.00  0.00    +0.000 A 
ATOM     25  S   UNL     1      14.288   7.271  -7.035  0.00  0.00    +0.000 S 
ATOM     26  C   UNL     1      12.773   8.043  -7.013  0.00  0.00    +0.000 A 
ATOM     27  N   UNL     1      12.408   8.892  -8.010  0.00  0.00    +0.000 NA
ATOM     28  C   UNL     1      11.245   9.434  -7.853  0.00  0.00    +0.000 A 
ATOM     29  N   UNL     1      10.413   9.196  -6.791  0.00  0.00    +0.000 N 
ATOM     30  C   UNL     1      10.727   8.324  -5.774  0.00  0.00    +0.000 A 
ATOM     31  O   UNL     1       9.938   8.100  -4.862  0.00  0.00    +0.000 OA
ATOM     32  C   UNL     1      12.030   7.700  -5.897  0.00  0.00    +0.000 A 
ATOM     33  H   UNL     1       9.509   9.643  -6.733  0.00  0.00    +0.000 HD
ENDBRANCH  20  23
ENDBRANCH  18  19
ENDBRANCH   4  18
TORSDOF 7
