REMARK  Name = 
REMARK  9 active torsions:
REMARK  status: ('A' for Active; 'I' for Inactive)
REMARK    1  A    between atoms: C_1  and  C_2
REMARK    2  A    between atoms: C_2  and  N_3
REMARK    3  A    between atoms: N_3  and  C_4
REMARK    4  A    between atoms: C_4  and  C_5
REMARK    5  A    between atoms: C_8  and  C_9
REMARK    6  A    between atoms: C_9  and  N_10
REMARK    7  A    between atoms: N_10  and  C_11
REMARK    8  A    between atoms: C_11  and  C_12
REMARK    9  A    between atoms: C_19  and  C_21
REMARK                            x       y       z     vdW  Elec       q    Type
REMARK                         _______ _______ _______ _____ _____    ______ ____
ROOT
ATOM      1  C   UNL     1       1.927   1.995   1.493  0.00  0.00    +0.000 C 
ENDROOT
BRANCH   1   2
ATOM      2  C   UNL     1       0.482   1.577   1.539  0.00  0.00    +0.000 A 
ATOM      3  C   UNL     1       0.123   0.248   1.814  0.00  0.00    +0.000 A 
ATOM      4  C   UNL     1      -1.181  -0.190   1.578  0.00  0.00    +0.000 A 
ATOM      5  C   UNL     1      -2.150   0.702   1.097  0.00  0.00    +0.000 A 
ATOM      6  C   UNL     1      -1.808   2.055   0.949  0.00  0.00    +0.000 A 
ATOM      7  C   UNL     1      -0.507   2.493   1.173  0.00  0.00    +0.000 A 
BRANCH   5   8
ATOM      8  C   UNL     1      -3.480   0.245   0.547  0.00  0.00    +0.000 C 
BRANCH   8   9
ATOM      9  N   UNL     1      -4.050  -0.923   1.215  0.00  0.00    +0.000 NA
ATOM     10  H   UNL     1      -4.203  -0.698   2.197  0.00  0.00    +0.000 HD
BRANCH   9  11
ATOM     11  C   UNL     1      -5.325  -1.279   0.578  0.00  0.00    +0.000 C 
BRANCH  11  12
ATOM     12  C   UNL     1      -5.926  -2.550   1.202  0.00  0.00    +0.000 C 
ATOM     13  C   UNL     1      -5.043  -3.775   0.991  0.00  0.00    +0.000 C 
ATOM     14  C   UNL     1      -5.465  -4.254  -0.382  0.00  0.00    +0.000 C 
ATOM     15  N   UNL     1      -6.925  -4.103  -0.375  0.00  0.00    +0.000 NA
ATOM     16  C   UNL     1      -7.228  -2.954   0.498  0.00  0.00    +0.000 C 
ATOM     17  H   UNL     1      -7.327  -4.940   0.051  0.00  0.00    +0.000 HD
ENDBRANCH  11  12
ENDBRANCH   9  11
ENDBRANCH   8   9
ENDBRANCH   5   8
ENDBRANCH   1   2
BRANCH   1  18
ATOM     18  N   UNL     1       2.551   2.009   0.155  0.00  0.00    +0.000 N 
ATOM     19  C   UNL     1       3.724   2.720  -0.147  0.00  0.00    +0.000 C 
ATOM     20  O   UNL     1       4.193   2.737  -1.284  0.00  0.00    +0.000 OA
BRANCH  19  21
ATOM     21  C   UNL     1       4.436   3.420   0.923  0.00  0.00    +0.000 A 
ATOM     22  C   UNL     1       4.785   2.855   2.139  0.00  0.00    +0.000 A 
ATOM     23  S   UNL     1       5.711   3.892   3.130  0.00  0.00    +0.000 S 
ATOM     24  C   UNL     1       5.775   5.079   1.913  0.00  0.00    +0.000 A 
ATOM     25  N   UNL     1       6.514   6.212   2.073  0.00  0.00    +0.000 NA
ATOM     26  C   UNL     1       6.515   6.992   1.043  0.00  0.00    +0.000 A 
ATOM     27  N   UNL     1       5.816   6.761  -0.115  0.00  0.00    +0.000 N 
ATOM     28  C   UNL     1       4.955   5.692  -0.273  0.00  0.00    +0.000 A 
ATOM     29  O   UNL     1       4.173   5.644  -1.213  0.00  0.00    +0.000 OA
ATOM     30  C   UNL     1       5.024   4.732   0.813  0.00  0.00    +0.000 A 
ATOM     31  H   UNL     1       5.802   7.448  -0.854  0.00  0.00    +0.000 HD
ENDBRANCH  19  21
BRANCH  18  33
ATOM     32  C   UNL     1       1.208   2.099  -1.950  0.00  0.00    +0.000 C 
ATOM     33  C   UNL     1       1.969   1.232  -0.952  0.00  0.00    +0.000 C 
ENDBRANCH  18  33
ENDBRANCH   1  18
TORSDOF 8
