REMARK  Name = 
REMARK  9 active torsions:
REMARK  status: ('A' for Active; 'I' for Inactive)
REMARK    1  A    between atoms: C_1  and  O_2
REMARK    2  A    between atoms: O_2  and  C_3
REMARK    3  A    between atoms: C_10  and  C_11
REMARK    4  A    between atoms: N_13  and  C_14
REMARK    5  A    between atoms: C_14  and  C_15
REMARK    6  A    between atoms: C_18  and  C_19
REMARK    7  A    between atoms: C_19  and  N_20
REMARK    8  A    between atoms: N_20  and  C_21
REMARK    9  A    between atoms: C_21  and  C_22
REMARK                            x       y       z     vdW  Elec       q    Type
REMARK                         _______ _______ _______ _____ _____    ______ ____
ROOT
ATOM      1  C   UNL     1       1.885  -3.448  -0.505  0.00  0.00    +0.000 A 
ATOM      2  C   UNL     1       1.623  -4.742  -0.034  0.00  0.00    +0.000 A 
ATOM      3  C   UNL     1       0.607  -4.964   0.906  0.00  0.00    +0.000 A 
ATOM      4  C   UNL     1      -0.159  -3.896   1.400  0.00  0.00    +0.000 A 
ATOM      5  C   UNL     1       0.081  -2.613   0.893  0.00  0.00    +0.000 A 
ATOM      6  C   UNL     1       1.078  -2.395  -0.060  0.00  0.00    +0.000 A 
ENDROOT
BRANCH   1   7
ATOM      7  C   UNL     1       3.013  -3.174  -1.465  0.00  0.00    +0.000 C 
BRANCH   7  10
ATOM      8  C   UNL     1       3.458  -2.976  -3.863  0.00  0.00    +0.000 C 
ATOM      9  O   UNL     1       4.628  -2.676  -3.640  0.00  0.00    +0.000 OA
ATOM     10  N   UNL     1       2.585  -3.238  -2.840  0.00  0.00    +0.000 N 
ATOM     11  H   UNL     1       1.625  -3.497  -3.032  0.00  0.00    +0.000 HD
BRANCH   8  19
ATOM     12  C   UNL     1       0.387  -3.793  -5.242  0.00  0.00    +0.000 A 
ATOM     13  N   UNL     1      -0.667  -4.063  -6.042  0.00  0.00    +0.000 NA
ATOM     14  C   UNL     1      -0.512  -3.937  -7.360  0.00  0.00    +0.000 A 
ATOM     15  N   UNL     1       0.595  -3.574  -7.999  0.00  0.00    +0.000 NA
ATOM     16  C   UNL     1       1.625  -3.328  -7.171  0.00  0.00    +0.000 A 
ATOM     17  S   UNL     1       3.117  -2.854  -7.825  0.00  0.00    +0.000 S 
ATOM     18  C   UNL     1       3.813  -2.745  -6.281  0.00  0.00    +0.000 A 
ATOM     19  C   UNL     1       2.943  -3.056  -5.242  0.00  0.00    +0.000 A 
ATOM     20  C   UNL     1       1.628  -3.411  -5.780  0.00  0.00    +0.000 A 
BRANCH  12  22
ATOM     21  C   UNL     1      -1.164  -3.777  -3.504  0.00  0.00    +0.000 C 
ATOM     22  O   UNL     1       0.207  -3.927  -3.879  0.00  0.00    +0.000 OA
ENDBRANCH  12  22
ENDBRANCH   8  19
ENDBRANCH   7  10
ENDBRANCH   1   7
BRANCH   4  23
ATOM     23  C   UNL     1      -1.234  -4.108   2.445  0.00  0.00    +0.000 C 
BRANCH  23  24
ATOM     24  N   UNL     1      -0.691  -4.710   3.659  0.00  0.00    +0.000 NA
ATOM     25  H   UNL     1       0.063  -4.122   4.015  0.00  0.00    +0.000 HD
BRANCH  24  26
ATOM     26  C   UNL     1      -1.712  -4.843   4.697  0.00  0.00    +0.000 C 
BRANCH  26  27
ATOM     27  C   UNL     1      -1.126  -5.475   5.940  0.00  0.00    +0.000 A 
ATOM     28  C   UNL     1      -1.149  -4.804   7.173  0.00  0.00    +0.000 A 
ATOM     29  C   UNL     1      -0.620  -5.411   8.315  0.00  0.00    +0.000 A 
ATOM     30  C   UNL     1      -0.067  -6.683   8.224  0.00  0.00    +0.000 A 
ATOM     31  F   UNL     1       0.431  -7.266   9.323  0.00  0.00    +0.000 F 
ATOM     32  C   UNL     1      -0.024  -7.360   7.012  0.00  0.00    +0.000 A 
ATOM     33  C   UNL     1      -0.555  -6.758   5.872  0.00  0.00    +0.000 A 
ENDBRANCH  26  27
ENDBRANCH  24  26
ENDBRANCH  23  24
ENDBRANCH   4  23
TORSDOF 8
