REMARK  Name = 
REMARK  13 active torsions:
REMARK  status: ('A' for Active; 'I' for Inactive)
REMARK    1  A    between atoms: C_1  and  C_2
REMARK    2  A    between atoms: C_2  and  C_3
REMARK    3  A    between atoms: C_3  and  N_4
REMARK    4  A    between atoms: C_3  and  C_16
REMARK    5  A    between atoms: N_4  and  C_5
REMARK    6  A    between atoms: C_5  and  C_6
REMARK    7  A    between atoms: C_9  and  C_10
REMARK    8  A    between atoms: C_10  and  O_11
REMARK    9  A    between atoms: C_10  and  C_12
REMARK   10  A    between atoms: C_12  and  O_13
REMARK   11  A    between atoms: C_19  and  C_20
REMARK   12  A    between atoms: C_20  and  N_21
REMARK   13  A    between atoms: C_22  and  C_24
REMARK                            x       y       z     vdW  Elec       q    Type
REMARK                         _______ _______ _______ _____ _____    ______ ____
ROOT
ATOM      1  C   UNL     1       4.644  -0.609  -1.185  0.00  0.00    +0.000 A 
ATOM      2  C   UNL     1       5.329  -1.629  -1.871  0.00  0.00    +0.000 A 
ATOM      3  C   UNL     1       6.724  -1.622  -1.971  0.00  0.00    +0.000 A 
ATOM      4  C   UNL     1       7.473  -0.633  -1.325  0.00  0.00    +0.000 A 
ATOM      5  C   UNL     1       6.802   0.374  -0.627  0.00  0.00    +0.000 A 
ATOM      6  C   UNL     1       5.410   0.395  -0.571  0.00  0.00    +0.000 A 
ENDROOT
BRANCH   1   7
ATOM      7  C   UNL     1       3.112  -0.559  -1.205  0.00  0.00    +0.000 C 
BRANCH   7   9
ATOM      8  C   UNL     1       1.056   0.056   0.292  0.00  0.00    +0.000 C 
ATOM      9  C   UNL     1       2.568  -0.001   0.139  0.00  0.00    +0.000 C 
ENDBRANCH   7   9
BRANCH   7  10
ATOM     10  N   UNL     1       2.609   0.214  -2.361  0.00  0.00    +0.000 NA
ATOM     11  H   UNL     1       2.996   1.155  -2.319  0.00  0.00    +0.000 HD
BRANCH  10  12
ATOM     12  C   UNL     1       2.999  -0.392  -3.643  0.00  0.00    +0.000 C 
BRANCH  12  13
ATOM     13  C   UNL     1       2.533   0.397  -4.840  0.00  0.00    +0.000 A 
ATOM     14  C   UNL     1       3.464   0.982  -5.713  0.00  0.00    +0.000 A 
ATOM     15  C   UNL     1       3.037   1.669  -6.851  0.00  0.00    +0.000 A 
ATOM     16  C   UNL     1       1.671   1.794  -7.136  0.00  0.00    +0.000 A 
ATOM     17  C   UNL     1       0.745   1.196  -6.264  0.00  0.00    +0.000 A 
ATOM     18  C   UNL     1       1.172   0.506  -5.130  0.00  0.00    +0.000 A 
BRANCH  16  19
ATOM     19  C   UNL     1       1.220   2.602  -8.339  0.00  0.00    +0.000 C 
BRANCH  19  20
ATOM     20  O   UNL     1       0.496   1.778  -9.252  0.00  0.00    +0.000 OA
ATOM     21  H   UNL     1      -0.041   1.154  -8.739  0.00  0.00    +0.000 HD
ENDBRANCH  19  20
BRANCH  19  22
ATOM     22  C   UNL     1       0.347   3.802  -7.925  0.00  0.00    +0.000 C 
BRANCH  22  23
ATOM     23  O   UNL     1       1.053   4.728  -7.101  0.00  0.00    +0.000 OA
ATOM     24  H   UNL     1       1.366   4.236  -6.319  0.00  0.00    +0.000 HD
ENDBRANCH  22  23
ENDBRANCH  19  22
ENDBRANCH  16  19
ENDBRANCH  12  13
ENDBRANCH  10  12
ENDBRANCH   7  10
ENDBRANCH   1   7
BRANCH   4  25
ATOM     25  C   UNL     1       8.973  -0.608  -1.407  0.00  0.00    +0.000 C 
BRANCH  25  26
ATOM     26  N   UNL     1       9.423   0.218  -2.497  0.00  0.00    +0.000 N 
ATOM     27  C   UNL     1      10.758   0.331  -2.786  0.00  0.00    +0.000 C 
ATOM     28  O   UNL     1      11.613  -0.293  -2.163  0.00  0.00    +0.000 OA
ATOM     29  H   UNL     1       8.776   0.917  -2.849  0.00  0.00    +0.000 HD
BRANCH  27  30
ATOM     30  C   UNL     1      11.114   1.184  -3.923  0.00  0.00    +0.000 A 
ATOM     31  C   UNL     1      12.306   0.966  -4.599  0.00  0.00    +0.000 A 
ATOM     32  S   UNL     1      12.541   2.008  -5.928  0.00  0.00    +0.000 S 
ATOM     33  C   UNL     1      11.083   2.826  -5.612  0.00  0.00    +0.000 A 
ATOM     34  N   UNL     1      10.690   3.872  -6.386  0.00  0.00    +0.000 NA
ATOM     35  C   UNL     1       9.577   4.420  -6.019  0.00  0.00    +0.000 A 
ATOM     36  N   UNL     1       8.821   4.009  -4.954  0.00  0.00    +0.000 N 
ATOM     37  C   UNL     1       9.162   2.930  -4.165  0.00  0.00    +0.000 A 
ATOM     38  O   UNL     1       8.431   2.556  -3.256  0.00  0.00    +0.000 OA
ATOM     39  C   UNL     1      10.412   2.299  -4.524  0.00  0.00    +0.000 A 
ATOM     40  H   UNL     1       7.955   4.474  -4.726  0.00  0.00    +0.000 HD
ENDBRANCH  27  30
ENDBRANCH  25  26
ENDBRANCH   4  25
TORSDOF 12
