REMARK  Name = 
REMARK  5 active torsions:
REMARK  status: ('A' for Active; 'I' for Inactive)
REMARK    1  A    between atoms: N_1  and  C_2
REMARK    2  A    between atoms: C_2  and  C_3
REMARK    3  A    between atoms: C_6  and  O_7
REMARK    4  A    between atoms: O_7  and  C_8
REMARK    5  A    between atoms: C_8  and  C_9
REMARK                            x       y       z     vdW  Elec       q    Type
REMARK                         _______ _______ _______ _____ _____    ______ ____
ROOT
ATOM      1  C   UNL     1       2.871  -1.331   0.065  0.00  0.00    +0.000 A 
ATOM      2  C   UNL     1       4.135  -1.560   0.628  0.00  0.00    +0.000 A 
ATOM      3  C   UNL     1       4.627  -2.861   0.790  0.00  0.00    +0.000 A 
ATOM      4  C   UNL     1       3.856  -3.954   0.397  0.00  0.00    +0.000 A 
ATOM      5  C   UNL     1       2.606  -3.733  -0.185  0.00  0.00    +0.000 A 
ATOM      6  C   UNL     1       2.112  -2.435  -0.344  0.00  0.00    +0.000 A 
ENDROOT
BRANCH   1   7
ATOM      7  C   UNL     1       2.335   0.071  -0.076  0.00  0.00    +0.000 C 
BRANCH   7   8
ATOM      8  N   UNL     1       3.188   0.897  -0.922  0.00  0.00    +0.000 NA
ATOM      9  H   UNL     1       2.731   1.792  -1.081  0.00  0.00    +0.000 HD
ATOM     10  H   UNL     1       3.273   0.451  -1.834  0.00  0.00    +0.000 HD
ENDBRANCH   7   8
ENDBRANCH   1   7
BRANCH   4  11
ATOM     11  O   UNL     1       4.236  -5.265   0.481  0.00  0.00    +0.000 OA
BRANCH  11  12
ATOM     12  C   UNL     1       5.125  -5.589   1.556  0.00  0.00    +0.000 C 
BRANCH  12  13
ATOM     13  C   UNL     1       5.429  -7.073   1.545  0.00  0.00    +0.000 A 
ATOM     14  N   UNL     1       6.497  -7.487   0.826  0.00  0.00    +0.000 NA
ATOM     15  C   UNL     1       6.756  -8.806   0.835  0.00  0.00    +0.000 A 
ATOM     16  C   UNL     1       6.007  -9.722   1.533  0.00  0.00    +0.000 A 
ATOM     17  C   UNL     1       4.947  -9.205   2.240  0.00  0.00    +0.000 A 
ATOM     18  N   UNL     1       4.637  -7.896   2.267  0.00  0.00    +0.000 NA
ENDBRANCH  12  13
ENDBRANCH  11  12
ENDBRANCH   4  11
TORSDOF 5
