REMARK  Name = 
REMARK  7 active torsions:
REMARK  status: ('A' for Active; 'I' for Inactive)
REMARK    1  A    between atoms: C_2  and  C_3
REMARK    2  A    between atoms: C_6  and  N_7
REMARK    3  A    between atoms: N_7  and  C_8
REMARK    4  A    between atoms: C_8  and  C_9
REMARK    5  A    between atoms: C_9  and  C_11
REMARK    6  A    between atoms: C_15  and  C_16
REMARK    7  A    between atoms: C_16  and  N_17
REMARK                            x       y       z     vdW  Elec       q    Type
REMARK                         _______ _______ _______ _____ _____    ______ ____
ROOT
ATOM      1  C   UNL     1       6.008  -1.049   0.294  0.00  0.00    +0.000 C 
ATOM      2  F   UNL     1       6.240  -0.212   1.360  0.00  0.00    +0.000 F 
ENDROOT
BRANCH   1   3
ATOM      3  C   UNL     1       6.789  -2.347   0.400  0.00  0.00    +0.000 A 
ATOM      4  C   UNL     1       8.001  -2.370   1.084  0.00  0.00    +0.000 A 
ATOM      5  C   UNL     1       8.715  -3.562   1.151  0.00  0.00    +0.000 A 
ATOM      6  C   UNL     1       8.205  -4.700   0.535  0.00  0.00    +0.000 A 
ATOM      7  C   UNL     1       6.991  -4.613  -0.139  0.00  0.00    +0.000 A 
ATOM      8  N   UNL     1       6.292  -3.451  -0.221  0.00  0.00    +0.000 NA
BRANCH   7   9
ATOM      9  C   UNL     1       6.380  -5.839  -0.785  0.00  0.00    +0.000 C 
BRANCH   9  10
ATOM     10  N   UNL     1       7.219  -6.427  -1.832  0.00  0.00    +0.000 NA
ATOM     11  H   UNL     1       7.317  -5.740  -2.580  0.00  0.00    +0.000 HD
ATOM     12  H   UNL     1       6.719  -7.214  -2.243  0.00  0.00    +0.000 HD
ENDBRANCH   9  10
ENDBRANCH   7   9
ENDBRANCH   1   3
BRANCH   1  13
ATOM     13  C   UNL     1       4.493  -1.300   0.226  0.00  0.00    +0.000 C 
BRANCH  13  14
ATOM     14  N   UNL     1       3.740  -0.051   0.023  0.00  0.00    +0.000 N 
ATOM     15  H   UNL     1       4.053   0.709   0.628  0.00  0.00    +0.000 HD
BRANCH  14  19
ATOM     16  C   UNL     1      -0.454  -0.073  -0.472  0.00  0.00    +0.000 A 
ATOM     17  C   UNL     1       0.211  -1.270  -0.210  0.00  0.00    +0.000 A 
ATOM     18  C   UNL     1       1.599  -1.279  -0.033  0.00  0.00    +0.000 A 
ATOM     19  C   UNL     1       2.347  -0.096  -0.081  0.00  0.00    +0.000 A 
ATOM     20  C   UNL     1       1.662   1.098  -0.353  0.00  0.00    +0.000 A 
ATOM     21  C   UNL     1       0.276   1.114  -0.549  0.00  0.00    +0.000 A 
BRANCH  16  23
ATOM     22  N   UNL     1      -3.020  -0.066  -0.837  0.00  0.00    +0.000 NA
ATOM     23  C   UNL     1      -1.873  -0.067  -0.673  0.00  0.00    +0.000 C 
ENDBRANCH  16  23
ENDBRANCH  14  19
ENDBRANCH  13  14
ENDBRANCH   1  13
TORSDOF 7
