REMARK  Name = 
REMARK  5 active torsions:
REMARK  status: ('A' for Active; 'I' for Inactive)
REMARK    1  A    between atoms: N_1  and  C_2
REMARK    2  A    between atoms: C_2  and  C_3
REMARK    3  A    between atoms: C_5  and  C_6
REMARK    4  A    between atoms: C_6  and  N_7
REMARK    5  A    between atoms: C_12  and  C_13
REMARK                            x       y       z     vdW  Elec       q    Type
REMARK                         _______ _______ _______ _____ _____    ______ ____
ROOT
ATOM      1  N   UNL     1       1.012  -4.038  -3.440  0.00  0.00    +0.000 N 
ATOM      2  C   UNL     1       0.009  -3.227  -3.903  0.00  0.00    +0.000 A 
ATOM      3  N   UNL     1      -0.141  -3.321  -5.205  0.00  0.00    +0.000 NA
ATOM      4  C   UNL     1       0.826  -4.204  -5.606  0.00  0.00    +0.000 A 
ATOM      5  C   UNL     1       1.153  -4.670  -6.883  0.00  0.00    +0.000 A 
ATOM      6  C   UNL     1       2.247  -5.535  -6.989  0.00  0.00    +0.000 A 
ATOM      7  C   UNL     1       2.919  -5.910  -5.819  0.00  0.00    +0.000 A 
ATOM      8  N   UNL     1       2.610  -5.512  -4.549  0.00  0.00    +0.000 NA
ATOM      9  C   UNL     1       1.570  -4.660  -4.525  0.00  0.00    +0.000 A 
ENDROOT
BRANCH   6  10
ATOM     10  C   UNL     1       2.741  -6.053  -8.287  0.00  0.00    +0.000 C 
ATOM     11  N   UNL     1       2.091  -5.673  -9.431  0.00  0.00    +0.000 N 
ATOM     12  O   UNL     1       3.712  -6.795  -8.348  0.00  0.00    +0.000 OA
ATOM     13  H   UNL     1       1.296  -5.057  -9.480  0.00  0.00    +0.000 HD
ATOM     14  H   UNL     1       2.461  -6.027 -10.305  0.00  0.00    +0.000 HD
ENDBRANCH   6  10
BRANCH   1  15
ATOM     15  C   UNL     1       1.349  -4.256  -2.049  0.00  0.00    +0.000 C 
BRANCH  15  18
ATOM     16  C   UNL     1       4.107  -2.912   0.096  0.00  0.00    +0.000 C 
ATOM     17  C   UNL     1       2.726  -3.535  -0.039  0.00  0.00    +0.000 C 
ATOM     18  C   UNL     1       2.423  -3.313  -1.511  0.00  0.00    +0.000 C 
ATOM     19  C   UNL     1       3.795  -3.514  -2.139  0.00  0.00    +0.000 C 
ATOM     20  O   UNL     1       4.777  -3.134  -1.160  0.00  0.00    +0.000 OA
BRANCH  16  21
ATOM     21  C   UNL     1       4.948  -3.442   1.270  0.00  0.00    +0.000 C 
BRANCH  21  22
ATOM     22  N   UNL     1       5.190  -4.888   1.207  0.00  0.00    +0.000 NA
ATOM     23  H   UNL     1       5.853  -5.148   1.935  0.00  0.00    +0.000 HD
ATOM     24  H   UNL     1       5.656  -5.085   0.317  0.00  0.00    +0.000 HD
ENDBRANCH  21  22
ENDBRANCH  16  21
ENDBRANCH  15  18
ENDBRANCH   1  15
TORSDOF 5
