REMARK  Name = 
REMARK  5 active torsions:
REMARK  status: ('A' for Active; 'I' for Inactive)
REMARK    1  A    between atoms: C_2  and  C_4
REMARK    2  A    between atoms: N_8  and  C_9
REMARK    3  A    between atoms: C_9  and  C_10
REMARK    4  A    between atoms: C_14  and  C_15
REMARK    5  A    between atoms: C_18  and  O_19
REMARK                            x       y       z     vdW  Elec       q    Type
REMARK                         _______ _______ _______ _____ _____    ______ ____
ROOT
ATOM      1  C   UNL     1       5.428  -5.095   2.799  0.00  0.00    +0.000 C 
ATOM      2  C   UNL     1       5.150  -6.184   1.767  0.00  0.00    +0.000 C 
ATOM      3  C   UNL     1       4.980  -6.488   3.212  0.00  0.00    +0.000 C 
ENDROOT
BRANCH   1   8
ATOM      4  C   UNL     1       3.758  -1.221   0.012  0.00  0.00    +0.000 A 
ATOM      5  C   UNL     1       3.498  -0.873   1.336  0.00  0.00    +0.000 A 
ATOM      6  C   UNL     1       3.675  -1.829   2.335  0.00  0.00    +0.000 A 
ATOM      7  C   UNL     1       4.158  -3.094   1.998  0.00  0.00    +0.000 A 
ATOM      8  N   UNL     1       4.472  -3.987   3.053  0.00  0.00    +0.000 N 
ATOM      9  N   UNL     1       4.310  -3.460   0.705  0.00  0.00    +0.000 NA
ATOM     10  C   UNL     1       4.090  -2.534  -0.260  0.00  0.00    +0.000 A 
ATOM     11  H   UNL     1       4.743  -3.451   3.872  0.00  0.00    +0.000 HD
BRANCH   4  13
ATOM     12  N   UNL     1       4.159   1.026  -0.769  0.00  0.00    +0.000 N 
ATOM     13  C   UNL     1       3.750  -0.237  -1.087  0.00  0.00    +0.000 C 
ATOM     14  O   UNL     1       3.465  -0.552  -2.230  0.00  0.00    +0.000 OA
ATOM     15  H   UNL     1       4.308   1.660  -1.544  0.00  0.00    +0.000 HD
ATOM     16  H   UNL     1       4.651   1.229   0.093  0.00  0.00    +0.000 HD
ENDBRANCH   4  13
ENDBRANCH   1   8
BRANCH   1  17
ATOM     17  C   UNL     1       6.911  -4.729   2.889  0.00  0.00    +0.000 A 
ATOM     18  C   UNL     1       7.760  -5.255   3.867  0.00  0.00    +0.000 A 
ATOM     19  C   UNL     1       9.134  -5.299   3.649  0.00  0.00    +0.000 A 
ATOM     20  C   UNL     1       9.674  -4.799   2.459  0.00  0.00    +0.000 A 
ATOM     21  C   UNL     1       8.872  -4.142   1.511  0.00  0.00    +0.000 A 
ATOM     22  C   UNL     1       7.505  -4.056   1.808  0.00  0.00    +0.000 A 
BRANCH  21  23
ATOM     23  C   UNL     1       9.386  -3.675   0.205  0.00  0.00    +0.000 A 
ATOM     24  C   UNL     1       8.547  -3.495  -0.916  0.00  0.00    +0.000 A 
ATOM     25  C   UNL     1       9.054  -3.106  -2.156  0.00  0.00    +0.000 A 
ATOM     26  C   UNL     1      10.417  -2.915  -2.261  0.00  0.00    +0.000 A 
ATOM     27  N   UNL     1      11.275  -3.067  -1.241  0.00  0.00    +0.000 NA
ATOM     28  C   UNL     1      10.743  -3.441  -0.048  0.00  0.00    +0.000 A 
BRANCH  26  29
ATOM     29  O   UNL     1      10.986  -2.556  -3.445  0.00  0.00    +0.000 OA
ATOM     30  H   UNL     1      10.285  -2.514  -4.110  0.00  0.00    +0.000 HD
ENDBRANCH  26  29
ENDBRANCH  21  23
ENDBRANCH   1  17
TORSDOF 5
