REMARK  Name = 
REMARK  4 active torsions:
REMARK  status: ('A' for Active; 'I' for Inactive)
REMARK    1  A    between atoms: N_1  and  C_2
REMARK    2  A    between atoms: C_2  and  C_3
REMARK    3  A    between atoms: C_6  and  C_7
REMARK    4  A    between atoms: C_7  and  N_8
REMARK                            x       y       z     vdW  Elec       q    Type
REMARK                         _______ _______ _______ _____ _____    ______ ____
ROOT
ATOM      1  C   UNL     1       5.148  -3.742  -1.039  0.00  0.00    +0.000 C 
ENDROOT
BRANCH   1   2
ATOM      2  N   UNL     1       4.839  -5.146  -0.784  0.00  0.00    +0.000 N 
ATOM      3  C   UNL     1       3.911  -5.567   0.137  0.00  0.00    +0.000 A 
ATOM      4  C   UNL     1       3.998  -6.933   0.240  0.00  0.00    +0.000 A 
ATOM      5  C   UNL     1       4.993  -7.377  -0.670  0.00  0.00    +0.000 A 
ATOM      6  C   UNL     1       5.512  -8.634  -1.003  0.00  0.00    +0.000 A 
ATOM      7  N   UNL     1       6.470  -8.761  -1.953  0.00  0.00    +0.000 NA
ATOM      8  C   UNL     1       6.918  -7.642  -2.565  0.00  0.00    +0.000 A 
ATOM      9  F   UNL     1       7.855  -7.802  -3.510  0.00  0.00    +0.000 F 
ATOM     10  C   UNL     1       6.485  -6.354  -2.294  0.00  0.00    +0.000 A 
ATOM     11  C   UNL     1       5.495  -6.238  -1.316  0.00  0.00    +0.000 A 
ENDBRANCH   1   2
BRANCH   1  15
ATOM     12  C   UNL     1       2.915  -0.633  -1.264  0.00  0.00    +0.000 C 
ATOM     13  C   UNL     1       2.384  -2.061  -1.034  0.00  0.00    +0.000 C 
ATOM     14  C   UNL     1       2.869  -3.077  -2.071  0.00  0.00    +0.000 C 
ATOM     15  C   UNL     1       4.398  -3.110  -2.232  0.00  0.00    +0.000 C 
ATOM     16  C   UNL     1       4.907  -1.682  -2.508  0.00  0.00    +0.000 C 
ATOM     17  C   UNL     1       4.440  -0.658  -1.470  0.00  0.00    +0.000 C 
BRANCH  12  18
ATOM     18  C   UNL     1       2.216   0.117  -2.418  0.00  0.00    +0.000 C 
BRANCH  18  19
ATOM     19  N   UNL     1       0.790   0.330  -2.157  0.00  0.00    +0.000 NA
ATOM     20  H   UNL     1       0.359   0.756  -2.976  0.00  0.00    +0.000 HD
ATOM     21  H   UNL     1       0.677   1.007  -1.402  0.00  0.00    +0.000 HD
ENDBRANCH  18  19
ENDBRANCH  12  18
ENDBRANCH   1  15
TORSDOF 4
