REMARK  Name = 
REMARK  9 active torsions:
REMARK  status: ('A' for Active; 'I' for Inactive)
REMARK    1  A    between atoms: C_1  and  O_2
REMARK    2  A    between atoms: O_2  and  C_3
REMARK    3  A    between atoms: C_10  and  C_11
REMARK    4  A    between atoms: N_13  and  C_14
REMARK    5  A    between atoms: C_14  and  C_15
REMARK    6  A    between atoms: C_18  and  C_19
REMARK    7  A    between atoms: C_19  and  C_20
REMARK    8  A    between atoms: C_20  and  C_21
REMARK    9  A    between atoms: C_21  and  C_22
REMARK                            x       y       z     vdW  Elec       q    Type
REMARK                         _______ _______ _______ _____ _____    ______ ____
ROOT
ATOM      1  C   UNL     1       2.939  -0.053  -3.501  0.00  0.00    +0.000 C 
ENDROOT
BRANCH   1   2
ATOM      2  C   UNL     1       1.734  -0.919  -3.238  0.00  0.00    +0.000 A 
ATOM      3  C   UNL     1       1.838  -2.316  -3.255  0.00  0.00    +0.000 A 
ATOM      4  C   UNL     1       0.725  -3.119  -2.986  0.00  0.00    +0.000 A 
ATOM      5  C   UNL     1      -0.518  -2.541  -2.697  0.00  0.00    +0.000 A 
ATOM      6  C   UNL     1      -0.631  -1.145  -2.720  0.00  0.00    +0.000 A 
ATOM      7  C   UNL     1       0.481  -0.342  -2.993  0.00  0.00    +0.000 A 
BRANCH   5   8
ATOM      8  C   UNL     1      -1.721  -3.393  -2.366  0.00  0.00    +0.000 C 
BRANCH   8   9
ATOM      9  C   UNL     1      -1.552  -4.288  -1.132  0.00  0.00    +0.000 C 
BRANCH   9  10
ATOM     10  C   UNL     1      -1.281  -3.504   0.155  0.00  0.00    +0.000 C 
BRANCH  10  11
ATOM     11  C   UNL     1      -1.127  -4.431   1.331  0.00  0.00    +0.000 A 
ATOM     12  N   UNL     1       0.109  -4.894   1.606  0.00  0.00    +0.000 NA
ATOM     13  C   UNL     1       0.218  -5.723   2.660  0.00  0.00    +0.000 A 
ATOM     14  C   UNL     1      -0.847  -6.112   3.436  0.00  0.00    +0.000 A 
ATOM     15  C   UNL     1      -2.066  -5.596   3.064  0.00  0.00    +0.000 A 
ATOM     16  N   UNL     1      -2.236  -4.761   2.021  0.00  0.00    +0.000 NA
ENDBRANCH  10  11
ENDBRANCH   9  10
ENDBRANCH   8   9
ENDBRANCH   5   8
ENDBRANCH   1   2
BRANCH   1  19
ATOM     17  C   UNL     1       4.173   0.898  -5.404  0.00  0.00    +0.000 C 
ATOM     18  O   UNL     1       5.018   1.387  -4.657  0.00  0.00    +0.000 OA
ATOM     19  N   UNL     1       3.117   0.183  -4.911  0.00  0.00    +0.000 N 
ATOM     20  H   UNL     1       2.384  -0.131  -5.532  0.00  0.00    +0.000 HD
BRANCH  17  28
ATOM     21  C   UNL     1       2.243  -0.229  -8.029  0.00  0.00    +0.000 A 
ATOM     22  N   UNL     1       1.741  -0.606  -9.221  0.00  0.00    +0.000 NA
ATOM     23  C   UNL     1       2.379  -0.220 -10.327  0.00  0.00    +0.000 A 
ATOM     24  N   UNL     1       3.478   0.517 -10.395  0.00  0.00    +0.000 NA
ATOM     25  C   UNL     1       3.960   0.859  -9.191  0.00  0.00    +0.000 A 
ATOM     26  S   UNL     1       5.358   1.819  -9.090  0.00  0.00    +0.000 S 
ATOM     27  C   UNL     1       5.320   1.783  -7.392  0.00  0.00    +0.000 A 
ATOM     28  C   UNL     1       4.267   1.047  -6.865  0.00  0.00    +0.000 A 
ATOM     29  C   UNL     1       3.431   0.524  -7.948  0.00  0.00    +0.000 A 
BRANCH  21  31
ATOM     30  C   UNL     1       0.316  -1.247  -7.161  0.00  0.00    +0.000 C 
ATOM     31  O   UNL     1       1.542  -0.570  -6.889  0.00  0.00    +0.000 OA
ENDBRANCH  21  31
ENDBRANCH  17  28
ENDBRANCH   1  19
TORSDOF 8
