REMARK  Name = 
REMARK  7 active torsions:
REMARK  status: ('A' for Active; 'I' for Inactive)
REMARK    1  A    between atoms: C_2  and  C_20
REMARK    2  A    between atoms: N_3  and  C_4
REMARK    3  A    between atoms: C_4  and  C_5
REMARK    4  A    between atoms: C_8  and  C_9
REMARK    5  A    between atoms: C_9  and  N_10
REMARK    6  A    between atoms: N_10  and  C_11
REMARK    7  A    between atoms: C_11  and  C_12
REMARK                            x       y       z     vdW  Elec       q    Type
REMARK                         _______ _______ _______ _____ _____    ______ ____
ROOT
ATOM      1  C   UNL     1       2.409  -2.219   0.967  0.00  0.00    +0.000 C 
ENDROOT
BRANCH   1   2
ATOM      2  C   UNL     1       3.363  -3.300   1.474  0.00  0.00    +0.000 C 
ATOM      3  C   UNL     1       2.733  -4.699   1.361  0.00  0.00    +0.000 C 
ATOM      4  C   UNL     1       3.669  -5.780   1.896  0.00  0.00    +0.000 C 
ATOM      5  C   UNL     1       4.095  -5.496   3.346  0.00  0.00    +0.000 C 
ATOM      6  C   UNL     1       4.692  -4.083   3.468  0.00  0.00    +0.000 C 
ATOM      7  C   UNL     1       3.759  -3.011   2.922  0.00  0.00    +0.000 C 
BRANCH   5   8
ATOM      8  C   UNL     1       5.090  -6.566   3.844  0.00  0.00    +0.000 C 
BRANCH   8   9
ATOM      9  N   UNL     1       5.454  -6.299   5.235  0.00  0.00    +0.000 NA
ATOM     10  H   UNL     1       4.621  -6.301   5.821  0.00  0.00    +0.000 HD
BRANCH   9  11
ATOM     11  C   UNL     1       6.418  -7.258   5.761  0.00  0.00    +0.000 C 
BRANCH  11  12
ATOM     12  C   UNL     1       6.792  -6.907   7.182  0.00  0.00    +0.000 A 
ATOM     13  C   UNL     1       6.574  -7.804   8.231  0.00  0.00    +0.000 A 
ATOM     14  C   UNL     1       6.949  -7.432   9.515  0.00  0.00    +0.000 A 
ATOM     15  N   UNL     1       7.515  -6.246   9.822  0.00  0.00    +0.000 NA
ATOM     16  C   UNL     1       7.714  -5.391   8.797  0.00  0.00    +0.000 A 
ATOM     17  C   UNL     1       7.379  -5.672   7.481  0.00  0.00    +0.000 A 
ENDBRANCH  11  12
ENDBRANCH   9  11
ENDBRANCH   8   9
ENDBRANCH   5   8
ENDBRANCH   1   2
BRANCH   1  20
ATOM     18  O   UNL     1       3.814  -1.151  -1.263  0.00  0.00    +0.000 OA
ATOM     19  C   UNL     1       2.808  -1.824  -1.441  0.00  0.00    +0.000 C 
ATOM     20  N   UNL     1       2.105  -2.417  -0.426  0.00  0.00    +0.000 N 
ATOM     21  H   UNL     1       1.289  -2.971  -0.632  0.00  0.00    +0.000 HD
BRANCH  19  22
ATOM     22  C   UNL     1       2.291  -2.104  -2.778  0.00  0.00    +0.000 A 
ATOM     23  C   UNL     1       3.125  -2.120  -3.883  0.00  0.00    +0.000 A 
ATOM     24  S   UNL     1       2.316  -2.543  -5.328  0.00  0.00    +0.000 S 
ATOM     25  C   UNL     1       0.821  -2.676  -4.522  0.00  0.00    +0.000 A 
ATOM     26  N   UNL     1      -0.316  -3.036  -5.180  0.00  0.00    +0.000 NA
ATOM     27  C   UNL     1      -1.369  -3.091  -4.439  0.00  0.00    +0.000 A 
ATOM     28  N   UNL     1      -1.402  -2.805  -3.096  0.00  0.00    +0.000 N 
ATOM     29  C   UNL     1      -0.292  -2.407  -2.399  0.00  0.00    +0.000 A 
ATOM     30  O   UNL     1      -0.371  -2.136  -1.205  0.00  0.00    +0.000 OA
ATOM     31  C   UNL     1       0.934  -2.379  -3.177  0.00  0.00    +0.000 A 
ATOM     32  H   UNL     1      -2.258  -2.859  -2.568  0.00  0.00    +0.000 HD
ENDBRANCH  19  22
ENDBRANCH   1  20
TORSDOF 7
