REMARK  Name = 
REMARK  5 active torsions:
REMARK  status: ('A' for Active; 'I' for Inactive)
REMARK    1  A    between atoms: C_1  and  C_2
REMARK    2  A    between atoms: C_4  and  C_5
REMARK    3  A    between atoms: N_10  and  C_11
REMARK    4  A    between atoms: C_11  and  C_12
REMARK    5  A    between atoms: C_17  and  C_18
REMARK                            x       y       z     vdW  Elec       q    Type
REMARK                         _______ _______ _______ _____ _____    ______ ____
ROOT
ATOM      1  C   UNL     1       3.000   2.574  -0.106  0.00  0.00    +0.000 C 
ENDROOT
BRANCH   1   8
ATOM      2  C   UNL     1      -2.846   2.992  -1.359  0.00  0.00    +0.000 C 
ATOM      3  C   UNL     1      -1.447   2.573  -1.695  0.00  0.00    +0.000 A 
ATOM      4  C   UNL     1      -1.129   2.080  -2.935  0.00  0.00    +0.000 A 
ATOM      5  C   UNL     1       0.188   1.720  -3.099  0.00  0.00    +0.000 A 
ATOM      6  N   UNL     1       1.142   1.821  -2.138  0.00  0.00    +0.000 NA
ATOM      7  C   UNL     1       0.732   2.303  -0.962  0.00  0.00    +0.000 A 
ATOM      8  N   UNL     1       1.585   2.393   0.116  0.00  0.00    +0.000 N 
ATOM      9  N   UNL     1      -0.527   2.690  -0.714  0.00  0.00    +0.000 NA
ATOM     10  H   UNL     1       1.154   3.002   0.801  0.00  0.00    +0.000 HD
BRANCH   5  11
ATOM     11  C   UNL     1       0.624   1.170  -4.421  0.00  0.00    +0.000 C 
ATOM     12  N   UNL     1       1.946   0.832  -4.516  0.00  0.00    +0.000 N 
ATOM     13  O   UNL     1      -0.145   1.030  -5.360  0.00  0.00    +0.000 OA
ATOM     14  H   UNL     1       2.549   0.914  -3.707  0.00  0.00    +0.000 HD
ATOM     15  H   UNL     1       2.293   0.430  -5.376  0.00  0.00    +0.000 HD
ENDBRANCH   5  11
ENDBRANCH   1   8
BRANCH   1  16
ATOM     16  C   UNL     1       3.371   4.039  -0.171  0.00  0.00    +0.000 A 
ATOM     17  C   UNL     1       3.711   4.755   0.984  0.00  0.00    +0.000 A 
ATOM     18  C   UNL     1       4.049   6.103   0.895  0.00  0.00    +0.000 A 
ATOM     19  C   UNL     1       4.045   6.741  -0.344  0.00  0.00    +0.000 A 
ATOM     20  F   UNL     1       4.353   8.047  -0.358  0.00  0.00    +0.000 F 
ATOM     21  C   UNL     1       3.725   6.064  -1.534  0.00  0.00    +0.000 A 
ATOM     22  C   UNL     1       3.380   4.703  -1.412  0.00  0.00    +0.000 A 
BRANCH  21  23
ATOM     23  C   UNL     1       3.750   6.736  -2.855  0.00  0.00    +0.000 A 
ATOM     24  C   UNL     1       4.669   7.768  -3.133  0.00  0.00    +0.000 A 
ATOM     25  C   UNL     1       4.679   8.437  -4.361  0.00  0.00    +0.000 A 
ATOM     26  C   UNL     1       3.780   8.069  -5.354  0.00  0.00    +0.000 A 
ATOM     27  C   UNL     1       2.885   7.038  -5.109  0.00  0.00    +0.000 A 
ATOM     28  F   UNL     1       2.022   6.674  -6.066  0.00  0.00    +0.000 F 
ATOM     29  C   UNL     1       2.861   6.377  -3.882  0.00  0.00    +0.000 A 
ENDBRANCH  21  23
ENDBRANCH   1  16
TORSDOF 4
