REMARK  Name = 
REMARK  7 active torsions:
REMARK  status: ('A' for Active; 'I' for Inactive)
REMARK    1  A    between atoms: C_1  and  C_2
REMARK    2  A    between atoms: C_2  and  C_3
REMARK    3  A    between atoms: C_2  and  C_17
REMARK    4  A    between atoms: C_3  and  N_4
REMARK    5  A    between atoms: N_4  and  C_5
REMARK    6  A    between atoms: C_8  and  C_9
REMARK    7  A    between atoms: C_13  and  N_14
REMARK                            x       y       z     vdW  Elec       q    Type
REMARK                         _______ _______ _______ _____ _____    ______ ____
ROOT
ATOM      1  C   UNL     1       3.091  -3.315  -1.696  0.00  0.00    +0.000 A 
ATOM      2  N   UNL     1       4.132  -2.939  -2.483  0.00  0.00    +0.000 NA
ATOM      3  C   UNL     1       4.718  -3.850  -3.301  0.00  0.00    +0.000 A 
ATOM      4  C   UNL     1       4.320  -5.168  -3.397  0.00  0.00    +0.000 A 
ATOM      5  C   UNL     1       3.267  -5.573  -2.576  0.00  0.00    +0.000 A 
ATOM      6  C   UNL     1       2.655  -4.647  -1.712  0.00  0.00    +0.000 A 
ENDROOT
BRANCH   4   7
ATOM      7  C   UNL     1       4.925  -6.150  -4.327  0.00  0.00    +0.000 C 
ATOM      8  N   UNL     1       5.929  -5.753  -5.159  0.00  0.00    +0.000 N 
ATOM      9  O   UNL     1       4.519  -7.306  -4.363  0.00  0.00    +0.000 OA
ATOM     10  H   UNL     1       6.327  -4.830  -5.230  0.00  0.00    +0.000 HD
ATOM     11  H   UNL     1       6.289  -6.461  -5.793  0.00  0.00    +0.000 HD
ENDBRANCH   4   7
BRANCH   6  12
ATOM     12  N   UNL     1       1.511  -5.101  -0.916  0.00  0.00    +0.000 N 
ATOM     13  O   UNL     1       0.873  -4.265  -0.261  0.00  0.00    +0.000 OA
ATOM     14  O   UNL     1       1.215  -6.303  -0.974  0.00  0.00    +0.000 OA
ENDBRANCH   6  12
BRANCH   1  15
ATOM     15  N   UNL     1       2.592  -2.346  -0.818  0.00  0.00    +0.000 N 
ATOM     16  H   UNL     1       1.621  -2.541  -0.559  0.00  0.00    +0.000 HD
BRANCH  15  17
ATOM     17  C   UNL     1       2.737  -0.970  -1.281  0.00  0.00    +0.000 C 
BRANCH  17  19
ATOM     18  C   UNL     1       2.842   0.041   1.075  0.00  0.00    +0.000 C 
ATOM     19  C   UNL     1       2.128  -0.087  -0.235  0.00  0.00    +0.000 C 
BRANCH  19  20
ATOM     20  C   UNL     1       0.748   0.406  -0.372  0.00  0.00    +0.000 A 
ATOM     21  C   UNL     1       0.293   0.990  -1.561  0.00  0.00    +0.000 A 
ATOM     22  C   UNL     1      -1.019   1.463  -1.666  0.00  0.00    +0.000 A 
ATOM     23  C   UNL     1      -1.892   1.350  -0.588  0.00  0.00    +0.000 A 
ATOM     24  C   UNL     1      -1.456   0.766   0.598  0.00  0.00    +0.000 A 
ATOM     25  C   UNL     1      -0.144   0.302   0.705  0.00  0.00    +0.000 A 
ENDBRANCH  19  20
ENDBRANCH  17  19
ENDBRANCH  15  17
ENDBRANCH   1  15
TORSDOF 6
