REMARK  Name = 
REMARK  7 active torsions:
REMARK  status: ('A' for Active; 'I' for Inactive)
REMARK    1  A    between atoms: C_2  and  C_4
REMARK    2  A    between atoms: C_7  and  O_8
REMARK    3  A    between atoms: O_8  and  C_9
REMARK    4  A    between atoms: C_9  and  C_10
REMARK    5  A    between atoms: C_10  and  C_13
REMARK    6  A    between atoms: C_17  and  O_18
REMARK    7  A    between atoms: O_18  and  C_19
REMARK                            x       y       z     vdW  Elec       q    Type
REMARK                         _______ _______ _______ _____ _____    ______ ____
ROOT
ATOM      1  C   UNL     1       5.903   2.258   6.748  0.00  0.00    +0.000 C 
ATOM      2  F   UNL     1       7.159   1.880   6.362  0.00  0.00    +0.000 F 
ATOM      3  F   UNL     1       5.876   3.618   6.616  0.00  0.00    +0.000 F 
ENDROOT
BRANCH   1   4
ATOM      4  C   UNL     1       5.605   1.825   8.173  0.00  0.00    +0.000 A 
ATOM      5  C   UNL     1       6.156   0.647   8.691  0.00  0.00    +0.000 A 
ATOM      6  C   UNL     1       5.911   0.280  10.017  0.00  0.00    +0.000 A 
ATOM      7  C   UNL     1       5.108   1.079  10.839  0.00  0.00    +0.000 A 
ATOM      8  C   UNL     1       4.532   2.238  10.326  0.00  0.00    +0.000 A 
ATOM      9  C   UNL     1       4.785   2.609   9.001  0.00  0.00    +0.000 A 
BRANCH   8  10
ATOM     10  O   UNL     1       3.746   3.115  11.030  0.00  0.00    +0.000 OA
BRANCH  10  11
ATOM     11  C   UNL     1       3.043   2.654  12.208  0.00  0.00    +0.000 C 
ATOM     12  C   UNL     1       1.879   1.674  12.017  0.00  0.00    +0.000 C 
ATOM     13  O   UNL     1       0.937   2.580  12.634  0.00  0.00    +0.000 OA
ATOM     14  C   UNL     1       1.952   3.604  12.731  0.00  0.00    +0.000 C 
ENDBRANCH  10  11
ENDBRANCH   8  10
ENDBRANCH   1   4
BRANCH   1  15
ATOM     15  C   UNL     1       4.890   1.650   5.762  0.00  0.00    +0.000 C 
BRANCH  15  16
ATOM     16  O   UNL     1       5.174   2.084   4.421  0.00  0.00    +0.000 OA
BRANCH  16  20
ATOM     17  C   UNL     1       2.860   0.889   1.246  0.00  0.00    +0.000 A 
ATOM     18  C   UNL     1       2.509   0.390   2.494  0.00  0.00    +0.000 A 
ATOM     19  C   UNL     1       3.268   0.765   3.602  0.00  0.00    +0.000 A 
ATOM     20  C   UNL     1       4.348   1.626   3.435  0.00  0.00    +0.000 A 
ATOM     21  C   UNL     1       4.624   2.068   2.141  0.00  0.00    +0.000 A 
ATOM     22  N   UNL     1       3.914   1.722   1.035  0.00  0.00    +0.000 NA
BRANCH  17  24
ATOM     23  N   UNL     1       2.483   0.983  -1.154  0.00  0.00    +0.000 N 
ATOM     24  C   UNL     1       2.045   0.501   0.051  0.00  0.00    +0.000 C 
ATOM     25  O   UNL     1       1.055  -0.212   0.134  0.00  0.00    +0.000 OA
ATOM     26  H   UNL     1       1.997   0.712  -1.995  0.00  0.00    +0.000 HD
ATOM     27  H   UNL     1       3.348   1.510  -1.202  0.00  0.00    +0.000 HD
ENDBRANCH  17  24
ENDBRANCH  16  20
ENDBRANCH  15  16
ENDBRANCH   1  15
TORSDOF 7
