REMARK  Name = 
REMARK  8 active torsions:
REMARK  status: ('A' for Active; 'I' for Inactive)
REMARK    1  A    between atoms: C_1  and  O_2
REMARK    2  A    between atoms: O_2  and  C_3
REMARK    3  A    between atoms: C_7  and  C_8
REMARK    4  A    between atoms: C_8  and  N_9
REMARK    5  A    between atoms: C_14  and  O_15
REMARK    6  A    between atoms: O_15  and  C_16
REMARK    7  A    between atoms: C_17  and  O_18
REMARK    8  A    between atoms: O_18  and  C_19
REMARK                            x       y       z     vdW  Elec       q    Type
REMARK                         _______ _______ _______ _____ _____    ______ ____
ROOT
ATOM      1  N   UNL     1       7.593   0.126   3.410  0.00  0.00    +0.000 N 
ATOM      2  C   UNL     1       7.304   1.155   4.286  0.00  0.00    +0.000 A 
ATOM      3  C   UNL     1       8.235   1.125   5.295  0.00  0.00    +0.000 A 
ATOM      4  C   UNL     1       9.321   0.363   4.798  0.00  0.00    +0.000 A 
ATOM      5  C   UNL     1      10.686   0.279   5.128  0.00  0.00    +0.000 A 
ATOM      6  C   UNL     1      11.527  -0.563   4.396  0.00  0.00    +0.000 A 
ATOM      7  C   UNL     1      10.970  -1.495   3.506  0.00  0.00    +0.000 A 
ATOM      8  C   UNL     1       9.616  -1.405   3.141  0.00  0.00    +0.000 A 
ATOM      9  C   UNL     1       8.837  -0.394   3.727  0.00  0.00    +0.000 A 
ENDROOT
BRANCH   6  10
ATOM     10  O   UNL     1      12.893  -0.503   4.510  0.00  0.00    +0.000 OA
ATOM     11  C   UNL     1      13.442   0.762   4.872  0.00  0.00    +0.000 C 
ENDBRANCH   6  10
BRANCH   7  12
ATOM     12  O   UNL     1      11.644  -2.496   2.847  0.00  0.00    +0.000 OA
ATOM     13  C   UNL     1      12.783  -3.024   3.522  0.00  0.00    +0.000 C 
ENDBRANCH   7  12
BRANCH   1  14
ATOM     14  C   UNL     1       6.941  -0.025   2.109  0.00  0.00    +0.000 C 
BRANCH  14  19
ATOM     15  C   UNL     1       3.658  -1.431   0.815  0.00  0.00    +0.000 A 
ATOM     16  C   UNL     1       3.441  -2.537   1.617  0.00  0.00    +0.000 A 
ATOM     17  C   UNL     1       4.368  -2.847   2.631  0.00  0.00    +0.000 A 
ATOM     18  C   UNL     1       5.493  -2.031   2.845  0.00  0.00    +0.000 A 
ATOM     19  C   UNL     1       5.702  -0.908   2.057  0.00  0.00    +0.000 A 
ATOM     20  C   UNL     1       4.768  -0.617   1.051  0.00  0.00    +0.000 A 
BRANCH  15  22
ATOM     21  C   UNL     1       1.845  -1.898  -0.655  0.00  0.00    +0.000 C 
ATOM     22  O   UNL     1       2.878  -1.015  -0.232  0.00  0.00    +0.000 OA
ENDBRANCH  15  22
ENDBRANCH  14  19
ENDBRANCH   1  14
TORSDOF 5
