REMARK  Name = 
REMARK  5 active torsions:
REMARK  status: ('A' for Active; 'I' for Inactive)
REMARK    1  A    between atoms: C_5  and  N_6
REMARK    2  A    between atoms: N_6  and  C_7
REMARK    3  A    between atoms: C_7  and  C_8
REMARK    4  A    between atoms: C_8  and  C_9
REMARK    5  A    between atoms: C_13  and  C_14
REMARK                            x       y       z     vdW  Elec       q    Type
REMARK                         _______ _______ _______ _____ _____    ______ ____
ROOT
ATOM      1  C   UNL     1       6.844   2.325   0.152  0.00  0.00    +0.000 A 
ATOM      2  C   UNL     1       7.155   2.934   1.364  0.00  0.00    +0.000 A 
ATOM      3  C   UNL     1       7.871   4.124   1.343  0.00  0.00    +0.000 A 
ATOM      4  N   UNL     1       8.282   4.743   0.212  0.00  0.00    +0.000 NA
ATOM      5  C   UNL     1       7.962   4.165  -0.970  0.00  0.00    +0.000 A 
ATOM      6  C   UNL     1       7.253   2.961  -1.027  0.00  0.00    +0.000 A 
ENDROOT
BRANCH   5   7
ATOM      7  C   UNL     1       8.405   4.865  -2.188  0.00  0.00    +0.000 A 
ATOM      8  C   UNL     1       7.674   4.814  -3.384  0.00  0.00    +0.000 A 
ATOM      9  C   UNL     1       8.149   5.432  -4.539  0.00  0.00    +0.000 A 
ATOM     10  C   UNL     1       9.350   6.111  -4.468  0.00  0.00    +0.000 A 
ATOM     11  N   UNL     1      10.081   6.216  -3.340  0.00  0.00    +0.000 NA
ATOM     12  C   UNL     1       9.589   5.601  -2.232  0.00  0.00    +0.000 A 
ENDBRANCH   5   7
BRANCH   1  13
ATOM     13  C   UNL     1       6.078   1.024   0.096  0.00  0.00    +0.000 C 
BRANCH  13  14
ATOM     14  C   UNL     1       4.562   1.246   0.030  0.00  0.00    +0.000 C 
BRANCH  14  15
ATOM     15  N   UNL     1       3.839  -0.031  -0.025  0.00  0.00    +0.000 N 
ATOM     16  H   UNL     1       4.174  -0.711   0.655  0.00  0.00    +0.000 HD
BRANCH  15  21
ATOM     17 CL   UNL     1      -2.092  -0.125  -0.424  0.00  0.00    +0.000 Cl
ATOM     18  C   UNL     1      -0.380  -0.074  -0.282  0.00  0.00    +0.000 A 
ATOM     19  C   UNL     1       0.321   1.032  -0.747  0.00  0.00    +0.000 A 
ATOM     20  C   UNL     1       1.716   1.065  -0.645  0.00  0.00    +0.000 A 
ATOM     21  C   UNL     1       2.435   0.012  -0.060  0.00  0.00    +0.000 A 
ATOM     22  C   UNL     1       1.705  -1.104   0.377  0.00  0.00    +0.000 A 
ATOM     23  C   UNL     1       0.307  -1.144   0.282  0.00  0.00    +0.000 A 
ENDBRANCH  15  21
ENDBRANCH  14  15
ENDBRANCH  13  14
ENDBRANCH   1  13
TORSDOF 5
