REMARK  Name = 
REMARK  8 active torsions:
REMARK  status: ('A' for Active; 'I' for Inactive)
REMARK    1  A    between atoms: C_1  and  C_2
REMARK    2  A    between atoms: C_2  and  C_3
REMARK    3  A    between atoms: C_2  and  C_4
REMARK    4  A    between atoms: C_2  and  C_15
REMARK    5  A    between atoms: C_4  and  N_5
REMARK    6  A    between atoms: C_9  and  C_10
REMARK    7  A    between atoms: C_19  and  C_20
REMARK    8  A    between atoms: C_23  and  C_24
REMARK                            x       y       z     vdW  Elec       q    Type
REMARK                         _______ _______ _______ _____ _____    ______ ____
ROOT
ATOM      1  C   UNL     1       0.900  -0.044  -0.050  0.00  0.00    +0.000 C 
ATOM      2  C   UNL     1       2.446  -0.057  -0.013  0.00  0.00    +0.000 C 
ATOM      3  C   UNL     1       2.963   0.635  -1.297  0.00  0.00    +0.000 C 
ENDROOT
BRANCH   2   4
ATOM      4  C   UNL     1       3.009  -1.491   0.003  0.00  0.00    +0.000 A 
ATOM      5  C   UNL     1       2.680  -2.418  -0.995  0.00  0.00    +0.000 A 
ATOM      6  C   UNL     1       3.249  -3.694  -1.004  0.00  0.00    +0.000 A 
ATOM      7  C   UNL     1       4.144  -4.076  -0.003  0.00  0.00    +0.000 A 
ATOM      8  C   UNL     1       4.506  -3.186   1.013  0.00  0.00    +0.000 A 
ATOM      9  C   UNL     1       3.936  -1.904   0.977  0.00  0.00    +0.000 A 
BRANCH   8  10
ATOM     10  C   UNL     1       5.482  -3.526   2.068  0.00  0.00    +0.000 A 
ATOM     11  C   UNL     1       5.368  -3.010   3.377  0.00  0.00    +0.000 A 
ATOM     12  C   UNL     1       6.320  -3.294   4.360  0.00  0.00    +0.000 A 
ATOM     13  C   UNL     1       7.409  -4.119   4.064  0.00  0.00    +0.000 A 
ATOM     14  C   UNL     1       7.524  -4.634   2.779  0.00  0.00    +0.000 A 
ATOM     15  F   UNL     1       8.555  -5.429   2.464  0.00  0.00    +0.000 F 
ATOM     16  C   UNL     1       6.587  -4.341   1.790  0.00  0.00    +0.000 A 
BRANCH  13  17
ATOM     17  C   UNL     1       8.447  -4.463   5.085  0.00  0.00    +0.000 C 
ATOM     18  F   UNL     1       8.208  -3.887   6.299  0.00  0.00    +0.000 F 
ATOM     19  F   UNL     1       8.529  -5.800   5.326  0.00  0.00    +0.000 F 
ATOM     20  F   UNL     1       9.697  -4.059   4.730  0.00  0.00    +0.000 F 
ENDBRANCH  13  17
ENDBRANCH   8  10
ENDBRANCH   2   4
BRANCH   2  21
ATOM     21  C   UNL     1       2.904   0.818   1.202  0.00  0.00    +0.000 C 
BRANCH  21  22
ATOM     22  N   UNL     1       2.379   0.323   2.475  0.00  0.00    +0.000 N 
ATOM     23  C   UNL     1       2.778   0.904   3.661  0.00  0.00    +0.000 A 
ATOM     24  C   UNL     1       3.030   2.264   3.776  0.00  0.00    +0.000 A 
ATOM     25  C   UNL     1       3.319   2.805   5.024  0.00  0.00    +0.000 A 
ATOM     26  C   UNL     1       3.340   1.983   6.150  0.00  0.00    +0.000 A 
ATOM     27  C   UNL     1       3.101   0.632   5.943  0.00  0.00    +0.000 A 
ATOM     28  N   UNL     1       2.832   0.081   4.728  0.00  0.00    +0.000 NA
ATOM     29  H   UNL     1       2.362  -0.687   2.608  0.00  0.00    +0.000 HD
BRANCH  26  30
ATOM     30  C   UNL     1       3.594   2.597   7.467  0.00  0.00    +0.000 C 
ATOM     31  N   UNL     1       3.589   1.815   8.585  0.00  0.00    +0.000 N 
ATOM     32  O   UNL     1       3.807   3.806   7.572  0.00  0.00    +0.000 OA
ATOM     33  H   UNL     1       3.399   0.827   8.623  0.00  0.00    +0.000 HD
ATOM     34  H   UNL     1       3.747   2.293   9.466  0.00  0.00    +0.000 HD
ENDBRANCH  26  30
ENDBRANCH  21  22
ENDBRANCH   2  21
TORSDOF 6
