REMARK  Name = 
REMARK  5 active torsions:
REMARK  status: ('A' for Active; 'I' for Inactive)
REMARK    1  A    between atoms: C_1  and  C_2
REMARK    2  A    between atoms: N_6  and  C_7
REMARK    3  A    between atoms: C_7  and  C_8
REMARK    4  A    between atoms: C_13  and  C_14
REMARK    5  A    between atoms: C_18  and  C_19
REMARK                            x       y       z     vdW  Elec       q    Type
REMARK                         _______ _______ _______ _____ _____    ______ ____
ROOT
ATOM      1  C   UNL     1       5.292  -1.013  -0.071  0.00  0.00    +0.000 A 
ATOM      2  C   UNL     1       5.825   0.280  -0.106  0.00  0.00    +0.000 A 
ATOM      3  C   UNL     1       7.202   0.457  -0.126  0.00  0.00    +0.000 A 
ATOM      4  F   UNL     1       7.708   1.699  -0.131  0.00  0.00    +0.000 F 
ATOM      5  C   UNL     1       8.074  -0.630  -0.128  0.00  0.00    +0.000 A 
ATOM      6  C   UNL     1       7.581  -1.944  -0.105  0.00  0.00    +0.000 A 
ATOM      7  C   UNL     1       6.178  -2.108  -0.081  0.00  0.00    +0.000 A 
ENDROOT
BRANCH   6   8
ATOM      8  C   UNL     1       8.490  -3.112  -0.090  0.00  0.00    +0.000 A 
ATOM      9  C   UNL     1       8.161  -4.322  -0.705  0.00  0.00    +0.000 A 
ATOM     10  N   UNL     1       8.933  -5.437  -0.709  0.00  0.00    +0.000 NA
ATOM     11  C   UNL     1      10.119  -5.353  -0.074  0.00  0.00    +0.000 A 
ATOM     12  C   UNL     1      10.573  -4.209   0.565  0.00  0.00    +0.000 A 
ATOM     13  C   UNL     1      11.901  -4.167   1.251  0.00  0.00    +0.000 C 
ATOM     14  C   UNL     1       9.738  -3.084   0.552  0.00  0.00    +0.000 A 
ENDBRANCH   6   8
BRANCH   1  15
ATOM     15  C   UNL     1       3.794  -1.240  -0.026  0.00  0.00    +0.000 C 
BRANCH  15  21
ATOM     16  C   UNL     1      -2.211  -2.108  -2.209  0.00  0.00    +0.000 C 
ATOM     17  C   UNL     1      -0.752  -1.941  -1.957  0.00  0.00    +0.000 A 
ATOM     18  C   UNL     1      -0.204  -1.870  -0.697  0.00  0.00    +0.000 A 
ATOM     19  N   UNL     1       1.107  -1.652  -0.456  0.00  0.00    +0.000 NA
ATOM     20  C   UNL     1       1.913  -1.521  -1.521  0.00  0.00    +0.000 A 
ATOM     21  N   UNL     1       3.249  -1.216  -1.361  0.00  0.00    +0.000 N 
ATOM     22  N   UNL     1       1.485  -1.636  -2.787  0.00  0.00    +0.000 NA
ATOM     23  C   UNL     1       0.165  -1.818  -2.978  0.00  0.00    +0.000 A 
ATOM     24  H   UNL     1       3.789  -1.605  -2.122  0.00  0.00    +0.000 HD
ENDBRANCH  15  21
ENDBRANCH   1  15
TORSDOF 3
