REMARK  Name = 
REMARK  5 active torsions:
REMARK  status: ('A' for Active; 'I' for Inactive)
REMARK    1  A    between atoms: N_1  and  C_2
REMARK    2  A    between atoms: C_2  and  C_3
REMARK    3  A    between atoms: C_3  and  C_4
REMARK    4  A    between atoms: N_10  and  C_11
REMARK    5  A    between atoms: C_11  and  C_12
REMARK                            x       y       z     vdW  Elec       q    Type
REMARK                         _______ _______ _______ _____ _____    ______ ____
ROOT
ATOM      1  C   UNL     1       4.592  -1.270  -0.421  0.00  0.00    +0.000 A 
ATOM      2  C   UNL     1       5.373  -0.875  -1.505  0.00  0.00    +0.000 A 
ATOM      3  N   UNL     1       6.722  -0.878  -1.551  0.00  0.00    +0.000 NA
ATOM      4  C   UNL     1       7.330  -1.337  -0.431  0.00  0.00    +0.000 A 
ATOM      5  C   UNL     1       8.710  -1.489  -0.182  0.00  0.00    +0.000 A 
ATOM      6  C   UNL     1       8.845  -2.027   1.079  0.00  0.00    +0.000 A 
ATOM      7  N   UNL     1       7.583  -2.194   1.609  0.00  0.00    +0.000 N 
ATOM      8  C   UNL     1       6.635  -1.761   0.704  0.00  0.00    +0.000 A 
ATOM      9  C   UNL     1       5.236  -1.711   0.740  0.00  0.00    +0.000 A 
ENDROOT
BRANCH   1  10
ATOM     10  C   UNL     1       3.088  -1.233  -0.504  0.00  0.00    +0.000 C 
BRANCH  10  11
ATOM     11  C   UNL     1       2.513   0.142  -0.150  0.00  0.00    +0.000 C 
BRANCH  11  12
ATOM     12  N   UNL     1       1.052   0.121  -0.211  0.00  0.00    +0.000 NA
ATOM     13  H   UNL     1       0.690   1.042   0.035  0.00  0.00    +0.000 HD
ATOM     14  H   UNL     1       0.686  -0.523   0.490  0.00  0.00    +0.000 HD
ENDBRANCH  11  12
ENDBRANCH  10  11
ENDBRANCH   1  10
BRANCH   7  15
ATOM     15  C   UNL     1       7.317  -2.846   2.888  0.00  0.00    +0.000 C 
BRANCH  15  16
ATOM     16  C   UNL     1       7.364  -1.869   4.034  0.00  0.00    +0.000 A 
ATOM     17  C   UNL     1       6.189  -1.271   4.511  0.00  0.00    +0.000 A 
ATOM     18  C   UNL     1       6.242  -0.323   5.534  0.00  0.00    +0.000 A 
ATOM     19  C   UNL     1       7.467   0.035   6.092  0.00  0.00    +0.000 A 
ATOM     20  C   UNL     1       8.639  -0.567   5.641  0.00  0.00    +0.000 A 
ATOM     21  C   UNL     1       8.589  -1.516   4.620  0.00  0.00    +0.000 A 
ENDBRANCH  15  16
ENDBRANCH   7  15
TORSDOF 5
