REMARK  Name = 
REMARK  5 active torsions:
REMARK  status: ('A' for Active; 'I' for Inactive)
REMARK    1  A    between atoms: C_2  and  C_4
REMARK    2  A    between atoms: C_7  and  N_8
REMARK    3  A    between atoms: N_8  and  C_9
REMARK    4  A    between atoms: C_9  and  C_10
REMARK    5  A    between atoms: C_15  and  N_16
REMARK                            x       y       z     vdW  Elec       q    Type
REMARK                         _______ _______ _______ _____ _____    ______ ____
ROOT
ATOM      1  C   UNL     1       5.144  -4.941  -3.351  0.00  0.00    +0.000 C 
ATOM      2  C   UNL     1       4.969  -4.395  -4.765  0.00  0.00    +0.000 C 
ATOM      3  C   UNL     1       3.767  -4.804  -3.990  0.00  0.00    +0.000 C 
ENDROOT
BRANCH   1   4
ATOM      4  C   UNL     1       5.582  -6.386  -3.134  0.00  0.00    +0.000 A 
ATOM      5  C   UNL     1       4.891  -7.224  -2.241  0.00  0.00    +0.000 A 
ATOM      6  C   UNL     1       5.169  -8.588  -2.173  0.00  0.00    +0.000 A 
ATOM      7  C   UNL     1       6.133  -9.128  -3.016  0.00  0.00    +0.000 A 
ATOM      8  F   UNL     1       6.351 -10.453  -2.948  0.00  0.00    +0.000 F 
ATOM      9  C   UNL     1       6.878  -8.337  -3.905  0.00  0.00    +0.000 A 
ATOM     10  C   UNL     1       6.616  -6.961  -3.898  0.00  0.00    +0.000 A 
BRANCH   9  11
ATOM     11  N   UNL     1       7.781  -8.867  -4.799  0.00  0.00    +0.000 N 
ATOM     12  C   UNL     1       7.476 -10.080  -5.562  0.00  0.00    +0.000 C 
ATOM     13  C   UNL     1       8.619 -11.085  -5.382  0.00  0.00    +0.000 C 
ATOM     14  O   UNL     1       9.885 -10.504  -5.753  0.00  0.00    +0.000 OA
ATOM     15  C   UNL     1      10.165  -9.347  -4.941  0.00  0.00    +0.000 C 
ATOM     16  C   UNL     1       9.081  -8.263  -5.093  0.00  0.00    +0.000 C 
ENDBRANCH   9  11
ENDBRANCH   1   4
BRANCH   1  17
ATOM     17  N   UNL     1       5.561  -4.013  -2.286  0.00  0.00    +0.000 N 
ATOM     18  H   UNL     1       4.844  -3.599  -1.699  0.00  0.00    +0.000 HD
BRANCH  17  22
ATOM     19  C   UNL     1       9.209  -1.851  -2.327  0.00  0.00    +0.000 A 
ATOM     20  C   UNL     1       8.873  -2.669  -3.401  0.00  0.00    +0.000 A 
ATOM     21  C   UNL     1       7.675  -3.388  -3.386  0.00  0.00    +0.000 A 
ATOM     22  C   UNL     1       6.767  -3.282  -2.327  0.00  0.00    +0.000 A 
ATOM     23  C   UNL     1       7.139  -2.497  -1.229  0.00  0.00    +0.000 A 
ATOM     24  C   UNL     1       8.349  -1.789  -1.222  0.00  0.00    +0.000 A 
BRANCH  19  26
ATOM     25  N   UNL     1      11.039  -0.768  -3.523  0.00  0.00    +0.000 N 
ATOM     26  C   UNL     1      10.476  -1.078  -2.310  0.00  0.00    +0.000 C 
ATOM     27  O   UNL     1      10.990  -0.702  -1.263  0.00  0.00    +0.000 OA
ATOM     28  H   UNL     1      11.854  -0.174  -3.497  0.00  0.00    +0.000 HD
ATOM     29  H   UNL     1      10.539  -0.844  -4.395  0.00  0.00    +0.000 HD
ENDBRANCH  19  26
ENDBRANCH  17  22
ENDBRANCH   1  17
TORSDOF 5
