REMARK  Name = 
REMARK  10 active torsions:
REMARK  status: ('A' for Active; 'I' for Inactive)
REMARK    1  A    between atoms: C_1  and  C_2
REMARK    2  A    between atoms: C_2  and  C_3
REMARK    3  A    between atoms: C_3  and  N_4
REMARK    4  A    between atoms: C_3  and  C_20
REMARK    5  A    between atoms: N_4  and  C_5
REMARK    6  A    between atoms: C_5  and  C_6
REMARK    7  A    between atoms: C_9  and  C_10
REMARK    8  A    between atoms: C_10  and  N_11
REMARK    9  A    between atoms: N_11  and  C_12
REMARK   10  A    between atoms: C_12  and  C_13
REMARK                            x       y       z     vdW  Elec       q    Type
REMARK                         _______ _______ _______ _____ _____    ______ ____
ROOT
ATOM      1  C   UNL     1      -7.200  15.685   1.653  0.00  0.00    +0.000 C 
ENDROOT
BRANCH   1   2
ATOM      2  C   UNL     1      -6.797  14.254   1.925  0.00  0.00    +0.000 A 
ATOM      3  C   UNL     1      -5.565  13.953   2.518  0.00  0.00    +0.000 A 
ATOM      4  C   UNL     1      -5.214  12.629   2.782  0.00  0.00    +0.000 A 
ATOM      5  C   UNL     1      -6.096  11.581   2.481  0.00  0.00    +0.000 A 
ATOM      6  C   UNL     1      -7.336  11.883   1.907  0.00  0.00    +0.000 A 
ATOM      7  C   UNL     1      -7.680  13.206   1.628  0.00  0.00    +0.000 A 
BRANCH   5   8
ATOM      8  C   UNL     1      -5.714  10.156   2.792  0.00  0.00    +0.000 C 
BRANCH   8   9
ATOM      9  N   UNL     1      -5.477  10.006   4.226  0.00  0.00    +0.000 NA
ATOM     10  H   UNL     1      -6.322  10.300   4.712  0.00  0.00    +0.000 HD
BRANCH   9  11
ATOM     11  C   UNL     1      -5.146   8.628   4.579  0.00  0.00    +0.000 C 
BRANCH  11  12
ATOM     12  C   UNL     1      -4.875   8.468   6.099  0.00  0.00    +0.000 C 
ATOM     13  C   UNL     1      -6.047   8.844   7.000  0.00  0.00    +0.000 C 
ATOM     14  C   UNL     1      -6.949   7.629   6.914  0.00  0.00    +0.000 C 
ATOM     15  C   UNL     1      -5.985   6.467   6.714  0.00  0.00    +0.000 C 
ATOM     16  N   UNL     1      -4.665   7.059   6.475  0.00  0.00    +0.000 NA
ATOM     17  H   UNL     1      -4.155   6.550   5.756  0.00  0.00    +0.000 HD
ENDBRANCH  11  12
ENDBRANCH   9  11
ENDBRANCH   8   9
ENDBRANCH   5   8
ENDBRANCH   1   2
BRANCH   1  18
ATOM     18  N   UNL     1      -6.286  16.347   0.723  0.00  0.00    +0.000 NA
ATOM     19  H   UNL     1      -5.338  16.275   1.088  0.00  0.00    +0.000 HD
BRANCH  18  20
ATOM     20  C   UNL     1      -6.576  17.765   0.455  0.00  0.00    +0.000 C 
BRANCH  20  21
ATOM     21  C   UNL     1      -7.916  17.865  -0.271  0.00  0.00    +0.000 A 
ATOM     22  C   UNL     1      -9.128  18.055   0.377  0.00  0.00    +0.000 A 
ATOM     23  S   UNL     1     -10.483  18.000  -0.649  0.00  0.00    +0.000 S 
ATOM     24  C   UNL     1      -9.504  17.754  -2.014  0.00  0.00    +0.000 A 
ATOM     25  N   UNL     1     -10.067  17.597  -3.243  0.00  0.00    +0.000 NA
ATOM     26  C   UNL     1      -9.217  17.413  -4.194  0.00  0.00    +0.000 A 
ATOM     27  N   UNL     1      -7.858  17.392  -4.031  0.00  0.00    +0.000 N 
ATOM     28  C   UNL     1      -7.233  17.610  -2.814  0.00  0.00    +0.000 A 
ATOM     29  O   UNL     1      -6.013  17.733  -2.738  0.00  0.00    +0.000 OA
ATOM     30  C   UNL     1      -8.153  17.750  -1.700  0.00  0.00    +0.000 A 
ATOM     31  H   UNL     1      -7.246  17.300  -4.829  0.00  0.00    +0.000 HD
ENDBRANCH  20  21
BRANCH  20  33
ATOM     32  C   UNL     1      -5.213  18.615   2.508  0.00  0.00    +0.000 C 
ATOM     33  C   UNL     1      -6.507  18.681   1.707  0.00  0.00    +0.000 C 
ENDBRANCH  20  33
ENDBRANCH  18  20
ENDBRANCH   1  18
TORSDOF 9
