REMARK  Name = 
REMARK  12 active torsions:
REMARK  status: ('A' for Active; 'I' for Inactive)
REMARK    1  A    between atoms: C_1  and  O_2
REMARK    2  A    between atoms: O_2  and  C_3
REMARK    3  A    between atoms: C_3  and  C_4
REMARK    4  A    between atoms: C_4  and  N_5
REMARK    5  A    between atoms: C_4  and  C_28
REMARK    6  A    between atoms: N_5  and  C_6
REMARK    7  A    between atoms: C_6  and  C_7
REMARK    8  A    between atoms: C_10  and  C_11
REMARK    9  A    between atoms: C_11  and  N_12
REMARK   10  A    between atoms: C_13  and  C_15
REMARK   11  A    between atoms: C_22  and  O_23
REMARK   12  A    between atoms: O_23  and  C_24
REMARK                            x       y       z     vdW  Elec       q    Type
REMARK                         _______ _______ _______ _____ _____    ______ ____
ROOT
ATOM      1  C   UNL     1       4.927   2.830   0.003  0.00  0.00    +0.000 A 
ATOM      2  C   UNL     1       4.077   3.870  -0.399  0.00  0.00    +0.000 A 
ATOM      3  C   UNL     1       4.488   5.203  -0.311  0.00  0.00    +0.000 A 
ATOM      4  C   UNL     1       5.759   5.526   0.182  0.00  0.00    +0.000 A 
ATOM      5  C   UNL     1       6.594   4.491   0.621  0.00  0.00    +0.000 A 
ATOM      6  C   UNL     1       6.185   3.158   0.528  0.00  0.00    +0.000 A 
ENDROOT
BRANCH   1   7
ATOM      7  C   UNL     1       4.488   1.382  -0.085  0.00  0.00    +0.000 C 
BRANCH   7   8
ATOM      8  N   UNL     1       4.187   0.984  -1.464  0.00  0.00    +0.000 NA
ATOM      9  H   UNL     1       3.390   1.540  -1.780  0.00  0.00    +0.000 HD
BRANCH   8  10
ATOM     10  C   UNL     1       3.762  -0.436  -1.579  0.00  0.00    +0.000 C 
BRANCH  10  11
ATOM     11  C   UNL     1       4.831  -1.428  -1.130  0.00  0.00    +0.000 A 
ATOM     12  C   UNL     1       5.875  -1.776  -1.986  0.00  0.00    +0.000 A 
ATOM     13  C   UNL     1       6.865  -2.639  -1.522  0.00  0.00    +0.000 A 
ATOM     14  C   UNL     1       6.797  -3.120  -0.219  0.00  0.00    +0.000 A 
ATOM     15  C   UNL     1       5.738  -2.722   0.571  0.00  0.00    +0.000 A 
ATOM     16  N   UNL     1       4.758  -1.894   0.148  0.00  0.00    +0.000 NA
ENDBRANCH  10  11
BRANCH  10  17
ATOM     17  C   UNL     1       2.412  -0.754  -0.886  0.00  0.00    +0.000 C 
BRANCH  17  19
ATOM     18  C   UNL     1       0.142  -0.186  -0.704  0.00  0.00    +0.000 C 
ATOM     19  O   UNL     1       1.383   0.148  -1.322  0.00  0.00    +0.000 OA
ENDBRANCH  17  19
ENDBRANCH  10  17
ENDBRANCH   8  10
ENDBRANCH   7   8
ENDBRANCH   1   7
BRANCH   4  20
ATOM     20  C   UNL     1       6.206   6.961   0.273  0.00  0.00    +0.000 C 
BRANCH  20  21
ATOM     21  N   UNL     1       5.802   7.553   1.523  0.00  0.00    +0.000 N 
ATOM     22  C   UNL     1       6.087   8.860   1.822  0.00  0.00    +0.000 C 
ATOM     23  O   UNL     1       6.632   9.608   1.016  0.00  0.00    +0.000 OA
ATOM     24  H   UNL     1       5.478   6.930   2.251  0.00  0.00    +0.000 HD
BRANCH  22  25
ATOM     25  C   UNL     1       5.644   9.336   3.136  0.00  0.00    +0.000 A 
ATOM     26  C   UNL     1       5.400  10.690   3.321  0.00  0.00    +0.000 A 
ATOM     27  S   UNL     1       4.823  11.069   4.876  0.00  0.00    +0.000 S 
ATOM     28  C   UNL     1       4.935   9.445   5.367  0.00  0.00    +0.000 A 
ATOM     29  N   UNL     1       4.589   9.103   6.621  0.00  0.00    +0.000 NA
ATOM     30  C   UNL     1       4.751   7.802   6.862  0.00  0.00    +0.000 A 
ATOM     31  N   UNL     1       5.210   6.872   6.016  0.00  0.00    +0.000 NA
ATOM     32  C   UNL     1       5.546   7.262   4.770  0.00  0.00    +0.000 A 
ATOM     33  C   UNL     1       5.403   8.601   4.370  0.00  0.00    +0.000 A 
BRANCH  32  34
ATOM     34  O   UNL     1       6.038   6.326   3.884  0.00  0.00    +0.000 OA
ATOM     35  C   UNL     1       6.081   5.001   4.407  0.00  0.00    +0.000 C 
ENDBRANCH  32  34
ENDBRANCH  22  25
ENDBRANCH  20  21
ENDBRANCH   4  20
TORSDOF 10
