REMARK  Name = 
REMARK  8 active torsions:
REMARK  status: ('A' for Active; 'I' for Inactive)
REMARK    1  A    between atoms: N_1  and  C_2
REMARK    2  A    between atoms: C_2  and  C_3
REMARK    3  A    between atoms: C_3  and  C_4
REMARK    4  A    between atoms: C_7  and  C_8
REMARK    5  A    between atoms: C_8  and  N_9
REMARK    6  A    between atoms: N_9  and  C_10
REMARK    7  A    between atoms: C_13  and  C_14
REMARK    8  A    between atoms: N_16  and  O_17
REMARK                            x       y       z     vdW  Elec       q    Type
REMARK                         _______ _______ _______ _____ _____    ______ ____
ROOT
ATOM      1  N   UNL     1       9.349  -1.687   0.124  0.00  0.00    +0.000 N 
ATOM      2  H   UNL     1       8.864  -2.575   0.004  0.00  0.00    +0.000 HD
ENDROOT
BRANCH   1   3
ATOM      3  C   UNL     1      10.736  -1.864   0.110  0.00  0.00    +0.000 A 
ATOM      4  C   UNL     1      11.638  -1.124   0.881  0.00  0.00    +0.000 A 
ATOM      5  C   UNL     1      13.026  -1.325   0.776  0.00  0.00    +0.000 A 
ATOM      6  C   UNL     1      13.550  -2.250  -0.138  0.00  0.00    +0.000 A 
ATOM      7  C   UNL     1      12.656  -2.981  -0.919  0.00  0.00    +0.000 A 
ATOM      8  C   UNL     1      11.275  -2.769  -0.814  0.00  0.00    +0.000 A 
BRANCH   6   9
ATOM      9  C   UNL     1      15.039  -2.455  -0.217  0.00  0.00    +0.000 C 
ATOM     10  N   UNL     1      15.786  -2.261   0.923  0.00  0.00    +0.000 N 
ATOM     11  N   UNL     1      15.739  -2.818  -1.264  0.00  0.00    +0.000 NA
ATOM     12  H   UNL     1      15.352  -2.564   1.787  0.00  0.00    +0.000 HD
ATOM     13  H   UNL     1      16.723  -2.633   0.809  0.00  0.00    +0.000 HD
BRANCH  11  14
ATOM     14  O   UNL     1      15.002  -2.938  -2.439  0.00  0.00    +0.000 OA
ATOM     15  H   UNL     1      15.684  -3.195  -3.086  0.00  0.00    +0.000 HD
ENDBRANCH  11  14
ENDBRANCH   6   9
ENDBRANCH   1   3
BRANCH   1  16
ATOM     16  C   UNL     1       8.728  -0.830   1.121  0.00  0.00    +0.000 C 
BRANCH  16  20
ATOM     17  C   UNL     1       4.482  -0.699   0.712  0.00  0.00    +0.000 A 
ATOM     18  C   UNL     1       5.018  -1.223   1.883  0.00  0.00    +0.000 A 
ATOM     19  C   UNL     1       6.404  -1.293   2.018  0.00  0.00    +0.000 A 
ATOM     20  C   UNL     1       7.229  -0.843   0.985  0.00  0.00    +0.000 A 
ATOM     21  C   UNL     1       6.603  -0.350  -0.154  0.00  0.00    +0.000 A 
ATOM     22  N   UNL     1       5.258  -0.275  -0.314  0.00  0.00    +0.000 NA
BRANCH  17  23
ATOM     23  C   UNL     1       2.988  -0.622   0.522  0.00  0.00    +0.000 C 
BRANCH  23  24
ATOM     24  C   UNL     1       2.466  -1.895  -0.146  0.00  0.00    +0.000 C 
BRANCH  24  25
ATOM     25  N   UNL     1       1.014  -1.850  -0.328  0.00  0.00    +0.000 NA
ATOM     26  H   UNL     1       0.719  -2.693  -0.820  0.00  0.00    +0.000 HD
ATOM     27  H   UNL     1       0.780  -1.073  -0.947  0.00  0.00    +0.000 HD
ENDBRANCH  24  25
ENDBRANCH  23  24
ENDBRANCH  17  23
ENDBRANCH  16  20
ENDBRANCH   1  16
TORSDOF 8
