REMARK  Name = 
REMARK  5 active torsions:
REMARK  status: ('A' for Active; 'I' for Inactive)
REMARK    1  A    between atoms: C_2  and  C_4
REMARK    2  A    between atoms: C_7  and  O_8
REMARK    3  A    between atoms: O_8  and  C_9
REMARK    4  A    between atoms: C_9  and  C_10
REMARK    5  A    between atoms: C_14  and  C_15
REMARK                            x       y       z     vdW  Elec       q    Type
REMARK                         _______ _______ _______ _____ _____    ______ ____
ROOT
ATOM      1  C   UNL     1       5.105   5.905  -0.177  0.00  0.00    +0.000 C 
ENDROOT
BRANCH   1   2
ATOM      2  C   UNL     1       6.013   7.046  -0.549  0.00  0.00    +0.000 A 
ATOM      3  C   UNL     1       7.317   6.796  -0.955  0.00  0.00    +0.000 A 
ATOM      4  N   UNL     1       8.213   7.761  -1.248  0.00  0.00    +0.000 NA
ATOM      5  C   UNL     1       7.790   9.043  -1.121  0.00  0.00    +0.000 A 
ATOM      6  C   UNL     1       6.511   9.434  -0.718  0.00  0.00    +0.000 A 
ATOM      7  C   UNL     1       5.624   8.386  -0.426  0.00  0.00    +0.000 A 
BRANCH   6   8
ATOM      8  C   UNL     1       6.110  10.850  -0.609  0.00  0.00    +0.000 A 
ATOM      9  C   UNL     1       6.614  11.842  -1.463  0.00  0.00    +0.000 A 
ATOM     10  C   UNL     1       6.195  13.167  -1.344  0.00  0.00    +0.000 A 
ATOM     11  C   UNL     1       5.266  13.477  -0.367  0.00  0.00    +0.000 A 
ATOM     12  N   UNL     1       4.752  12.569   0.484  0.00  0.00    +0.000 NA
ATOM     13  C   UNL     1       5.188  11.292   0.345  0.00  0.00    +0.000 A 
ENDBRANCH   6   8
ENDBRANCH   1   2
BRANCH   1  14
ATOM     14  O   UNL     1       3.739   6.242  -0.444  0.00  0.00    +0.000 OA
BRANCH  14  18
ATOM     15  C   UNL     1       1.111   3.238   0.558  0.00  0.00    +0.000 A 
ATOM     16  C   UNL     1       0.622   4.433   0.028  0.00  0.00    +0.000 A 
ATOM     17  C   UNL     1       1.522   5.447  -0.303  0.00  0.00    +0.000 A 
ATOM     18  C   UNL     1       2.875   5.225  -0.091  0.00  0.00    +0.000 A 
ATOM     19  N   UNL     1       3.372   4.086   0.432  0.00  0.00    +0.000 NA
ATOM     20  C   UNL     1       2.480   3.121   0.755  0.00  0.00    +0.000 A 
BRANCH  15  22
ATOM     21  N   UNL     1      -0.930   1.954   0.263  0.00  0.00    +0.000 N 
ATOM     22  C   UNL     1       0.252   2.097   0.933  0.00  0.00    +0.000 C 
ATOM     23  O   UNL     1       0.605   1.285   1.777  0.00  0.00    +0.000 OA
ATOM     24  H   UNL     1      -1.444   1.100   0.448  0.00  0.00    +0.000 HD
ATOM     25  H   UNL     1      -1.131   2.440  -0.599  0.00  0.00    +0.000 HD
ENDBRANCH  15  22
ENDBRANCH  14  18
ENDBRANCH   1  14
TORSDOF 5
