REMARK  Name = 
REMARK  12 active torsions:
REMARK  status: ('A' for Active; 'I' for Inactive)
REMARK    1  A    between atoms: C_1  and  C_2
REMARK    2  A    between atoms: C_2  and  N_3
REMARK    3  A    between atoms: N_3  and  C_4
REMARK    4  A    between atoms: C_4  and  C_5
REMARK    5  A    between atoms: C_6  and  C_8
REMARK    6  A    between atoms: C_11  and  O_12
REMARK    7  A    between atoms: O_12  and  C_13
REMARK    8  A    between atoms: C_13  and  C_14
REMARK    9  A    between atoms: C_14  and  C_15
REMARK   10  A    between atoms: C_14  and  C_16
REMARK   11  A    between atoms: C_14  and  C_17
REMARK   12  A    between atoms: C_21  and  C_22
REMARK                            x       y       z     vdW  Elec       q    Type
REMARK                         _______ _______ _______ _____ _____    ______ ____
ROOT
ATOM      1  C   UNL     1       4.863  -2.544   1.662  0.00  0.00    +0.000 A 
ATOM      2  C   UNL     1       4.445  -3.876   1.567  0.00  0.00    +0.000 A 
ATOM      3  C   UNL     1       5.079  -4.881   2.294  0.00  0.00    +0.000 A 
ATOM      4  C   UNL     1       6.175  -4.539   3.046  0.00  0.00    +0.000 A 
ATOM      5  N   UNL     1       6.644  -3.276   3.149  0.00  0.00    +0.000 NA
ATOM      6  C   UNL     1       5.981  -2.314   2.458  0.00  0.00    +0.000 A 
ENDROOT
BRANCH   1   8
ATOM      7  N   UNL     1       2.909  -1.307   0.592  0.00  0.00    +0.000 N 
ATOM      8  C   UNL     1       4.274  -1.376   0.933  0.00  0.00    +0.000 C 
ATOM      9  O   UNL     1       5.055  -0.461   0.654  0.00  0.00    +0.000 OA
BRANCH   7  11
ATOM     10  C   UNL     1       2.124   1.079   0.607  0.00  0.00    +0.000 C 
ATOM     11  C   UNL     1       2.473  -0.156  -0.216  0.00  0.00    +0.000 C 
ENDBRANCH   7  11
BRANCH   7  12
ATOM     12  C   UNL     1       1.943  -2.339   0.977  0.00  0.00    +0.000 C 
ATOM     13  C   UNL     1       0.466  -2.148   0.726  0.00  0.00    +0.000 C 
ENDBRANCH   7  12
ENDBRANCH   1   8
BRANCH   4  14
ATOM     14  O   UNL     1       6.832  -5.574   3.678  0.00  0.00    +0.000 OA
BRANCH  14  15
ATOM     15  C   UNL     1       8.006  -5.114   4.352  0.00  0.00    +0.000 C 
BRANCH  15  16
ATOM     16  C   UNL     1       8.770  -6.281   5.030  0.00  0.00    +0.000 C 
ATOM     17  C   UNL     1       7.808  -6.976   6.018  0.00  0.00    +0.000 C 
ATOM     18  C   UNL     1       9.191  -7.290   3.937  0.00  0.00    +0.000 C 
BRANCH  16  19
ATOM     19  C   UNL     1      10.026  -5.791   5.780  0.00  0.00    +0.000 A 
ATOM     20  C   UNL     1      10.416  -4.438   5.792  0.00  0.00    +0.000 A 
ATOM     21  C   UNL     1      11.578  -4.020   6.443  0.00  0.00    +0.000 A 
ATOM     22  C   UNL     1      12.371  -4.944   7.114  0.00  0.00    +0.000 A 
ATOM     23  C   UNL     1      11.998  -6.287   7.148  0.00  0.00    +0.000 A 
ATOM     24  C   UNL     1      10.838  -6.706   6.477  0.00  0.00    +0.000 A 
BRANCH  23  25
ATOM     25  C   UNL     1      12.786  -7.234   7.867  0.00  0.00    +0.000 C 
ATOM     26  N   UNL     1      13.431  -8.006   8.458  0.00  0.00    +0.000 NA
ENDBRANCH  23  25
ENDBRANCH  16  19
ENDBRANCH  15  16
ENDBRANCH  14  15
ENDBRANCH   4  14
TORSDOF 8
