REMARK  Name = 
REMARK  5 active torsions:
REMARK  status: ('A' for Active; 'I' for Inactive)
REMARK    1  A    between atoms: N_1  and  C_2
REMARK    2  A    between atoms: C_2  and  C_3
REMARK    3  A    between atoms: C_3  and  C_4
REMARK    4  A    between atoms: N_6  and  C_7
REMARK    5  A    between atoms: C_7  and  C_8
REMARK                            x       y       z     vdW  Elec       q    Type
REMARK                         _______ _______ _______ _____ _____    ______ ____
ROOT
ATOM      1  C   UNL     1       7.800   1.890  -0.551  0.00  0.00    +0.000 C 
ENDROOT
BRANCH   1   2
ATOM      2  C   UNL     1       7.536   2.690  -1.795  0.00  0.00    +0.000 A 
ATOM      3  C   UNL     1       6.860   3.901  -1.742  0.00  0.00    +0.000 A 
ATOM      4  N   UNL     1       6.572   4.631  -2.838  0.00  0.00    +0.000 NA
ATOM      5  C   UNL     1       6.988   4.135  -4.016  0.00  0.00    +0.000 A 
ATOM      6  C   UNL     1       6.689   4.820  -5.186  0.00  0.00    +0.000 A 
ATOM      7  C   UNL     1       7.121   4.357  -6.429  0.00  0.00    +0.000 A 
ATOM      8  C   UNL     1       7.868   3.189  -6.501  0.00  0.00    +0.000 A 
ATOM      9  C   UNL     1       8.157   2.481  -5.331  0.00  0.00    +0.000 A 
ATOM     10  C   UNL     1       7.720   2.925  -4.087  0.00  0.00    +0.000 A 
ATOM     11  N   UNL     1       7.995   2.204  -2.977  0.00  0.00    +0.000 NA
ENDBRANCH   1   2
BRANCH   1  14
ATOM     12  C   UNL     1       4.890   1.263   1.479  0.00  0.00    +0.000 A 
ATOM     13  C   UNL     1       5.905   2.118   1.102  0.00  0.00    +0.000 A 
ATOM     14  N   UNL     1       6.571   1.467   0.099  0.00  0.00    +0.000 N 
ATOM     15  C   UNL     1       5.926   0.283  -0.121  0.00  0.00    +0.000 A 
ATOM     16  N   UNL     1       4.918   0.125   0.707  0.00  0.00    +0.000 NA
BRANCH  12  17
ATOM     17  C   UNL     1       3.877   1.436   2.559  0.00  0.00    +0.000 C 
BRANCH  17  18
ATOM     18  C   UNL     1       4.387   0.906   3.903  0.00  0.00    +0.000 C 
BRANCH  18  19
ATOM     19  N   UNL     1       3.410   1.102   4.978  0.00  0.00    +0.000 NA
ATOM     20  H   UNL     1       3.787   0.711   5.842  0.00  0.00    +0.000 HD
ATOM     21  H   UNL     1       2.573   0.557   4.770  0.00  0.00    +0.000 HD
ENDBRANCH  18  19
ENDBRANCH  17  18
ENDBRANCH  12  17
ENDBRANCH   1  14
TORSDOF 5
