REMARK  Name = 
REMARK  7 active torsions:
REMARK  status: ('A' for Active; 'I' for Inactive)
REMARK    1  A    between atoms: C_1  and  C_2
REMARK    2  A    between atoms: C_2  and  C_3
REMARK    3  A    between atoms: C_7  and  C_8
REMARK    4  A    between atoms: C_8  and  C_9
REMARK    5  A    between atoms: C_9  and  N_10
REMARK    6  A    between atoms: N_10  and  C_11
REMARK    7  A    between atoms: C_14  and  C_15
REMARK                            x       y       z     vdW  Elec       q    Type
REMARK                         _______ _______ _______ _____ _____    ______ ____
ROOT
ATOM      1  C   UNL     1       3.197   3.740  -4.108  0.00  0.00    +0.000 C 
ENDROOT
BRANCH   1   2
ATOM      2  N   UNL     1       3.722   5.020  -4.618  0.00  0.00    +0.000 N 
ATOM      3  H   UNL     1       4.369   4.893  -5.396  0.00  0.00    +0.000 HD
BRANCH   2   4
ATOM      4  C   UNL     1       2.729   5.972  -4.922  0.00  0.00    +0.000 A 
ATOM      5  C   UNL     1       1.530   6.057  -4.203  0.00  0.00    +0.000 A 
ATOM      6  C   UNL     1       0.581   7.027  -4.503  0.00  0.00    +0.000 A 
ATOM      7  C   UNL     1       0.872   7.935  -5.505  0.00  0.00    +0.000 A 
ATOM      8  N   UNL     1       2.034   7.935  -6.215  0.00  0.00    +0.000 NA
ATOM      9  C   UNL     1       2.930   6.963  -5.889  0.00  0.00    +0.000 A 
BRANCH   7  10
ATOM     10  C   UNL     1      -0.116   9.010  -5.828  0.00  0.00    +0.000 C 
ATOM     11  N   UNL     1       0.245   9.869  -6.819  0.00  0.00    +0.000 N 
ATOM     12  O   UNL     1      -1.191   9.121  -5.232  0.00  0.00    +0.000 OA
ATOM     13  H   UNL     1       1.150   9.763  -7.268  0.00  0.00    +0.000 HD
ATOM     14  H   UNL     1      -0.361  10.641  -7.057  0.00  0.00    +0.000 HD
ENDBRANCH   7  10
ENDBRANCH   2   4
ENDBRANCH   1   2
BRANCH   1  15
ATOM     15  C   UNL     1       4.312   2.733  -3.808  0.00  0.00    +0.000 C 
BRANCH  15  20
ATOM     16  C   UNL     1       2.925   0.150  -1.350  0.00  0.00    +0.000 A 
ATOM     17  C   UNL     1       2.586  -0.891  -2.236  0.00  0.00    +0.000 A 
ATOM     18  C   UNL     1       2.860  -0.801  -3.601  0.00  0.00    +0.000 A 
ATOM     19  C   UNL     1       3.451   0.349  -4.120  0.00  0.00    +0.000 A 
ATOM     20  C   UNL     1       3.782   1.415  -3.273  0.00  0.00    +0.000 A 
ATOM     21  C   UNL     1       3.556   1.280  -1.890  0.00  0.00    +0.000 A 
BRANCH  16  23
ATOM     22  C   UNL     1       0.953  -0.025   0.155  0.00  0.00    +0.000 C 
ATOM     23  C   UNL     1       2.491   0.048   0.122  0.00  0.00    +0.000 C 
ATOM     24  C   UNL     1       3.142  -1.153   0.818  0.00  0.00    +0.000 C 
ATOM     25  C   UNL     1       4.354  -0.580   1.540  0.00  0.00    +0.000 C 
ATOM     26  O   UNL     1       4.286   0.847   1.456  0.00  0.00    +0.000 OA
ATOM     27  C   UNL     1       2.954   1.180   1.052  0.00  0.00    +0.000 C 
ENDBRANCH  16  23
ENDBRANCH  15  20
ENDBRANCH   1  15
TORSDOF 6
