REMARK  Name = 
REMARK  4 active torsions:
REMARK  status: ('A' for Active; 'I' for Inactive)
REMARK    1  A    between atoms: C_2  and  C_4
REMARK    2  A    between atoms: C_7  and  N_8
REMARK    3  A    between atoms: N_8  and  C_9
REMARK    4  A    between atoms: C_9  and  C_10
REMARK                            x       y       z     vdW  Elec       q    Type
REMARK                         _______ _______ _______ _____ _____    ______ ____
ROOT
ATOM      1  C   UNL     1       5.287   3.132  -9.216  0.00  0.00    +0.000 A 
ATOM      2  C   UNL     1       6.296   4.006  -8.848  0.00  0.00    +0.000 A 
ATOM      3  N   UNL     1       6.410   4.509  -7.585  0.00  0.00    +0.000 NA
ATOM      4  C   UNL     1       5.491   4.096  -6.683  0.00  0.00    +0.000 A 
ATOM      5  C   UNL     1       4.507   3.176  -7.072  0.00  0.00    +0.000 A 
ATOM      6  N   UNL     1       4.349   2.691  -8.335  0.00  0.00    +0.000 NA
ENDROOT
BRANCH   1   8
ATOM      7  N   UNL     1       4.115   1.854 -10.920  0.00  0.00    +0.000 N 
ATOM      8  C   UNL     1       5.194   2.650 -10.622  0.00  0.00    +0.000 C 
ATOM      9  O   UNL     1       6.016   2.954 -11.471  0.00  0.00    +0.000 OA
ATOM     10  H   UNL     1       3.981   1.543 -11.870  0.00  0.00    +0.000 HD
ATOM     11  H   UNL     1       3.402   1.683 -10.222  0.00  0.00    +0.000 HD
ENDBRANCH   1   8
BRANCH   4  12
ATOM     12  N   UNL     1       5.570   4.496  -5.335  0.00  0.00    +0.000 N 
ATOM     13  H   UNL     1       4.645   4.513  -4.918  0.00  0.00    +0.000 HD
BRANCH  12  14
ATOM     14  C   UNL     1       6.265   5.769  -5.114  0.00  0.00    +0.000 C 
BRANCH  14  15
ATOM     15  C   UNL     1       6.289   6.110  -3.610  0.00  0.00    +0.000 C 
ATOM     16  C   UNL     1       7.079   5.071  -2.797  0.00  0.00    +0.000 C 
ATOM     17  C   UNL     1       7.227   5.507  -1.340  0.00  0.00    +0.000 C 
ATOM     18  C   UNL     1       7.781   6.924  -1.234  0.00  0.00    +0.000 C 
ATOM     19  N   UNL     1       6.951   7.870  -1.980  0.00  0.00    +0.000 NA
ATOM     20  C   UNL     1       6.886   7.513  -3.400  0.00  0.00    +0.000 C 
ATOM     21  H   UNL     1       7.345   8.806  -1.884  0.00  0.00    +0.000 HD
ENDBRANCH  14  15
ENDBRANCH  12  14
ENDBRANCH   4  12
TORSDOF 4
