REMARK  Name = 
REMARK  6 active torsions:
REMARK  status: ('A' for Active; 'I' for Inactive)
REMARK    1  A    between atoms: C_1  and  C_2
REMARK    2  A    between atoms: C_2  and  C_3
REMARK    3  A    between atoms: O_8  and  C_9
REMARK    4  A    between atoms: C_13  and  C_14
REMARK    5  A    between atoms: C_14  and  N_15
REMARK    6  A    between atoms: C_19  and  C_20
REMARK                            x       y       z     vdW  Elec       q    Type
REMARK                         _______ _______ _______ _____ _____    ______ ____
ROOT
ATOM      1  C   UNL     1       6.756  -4.038  -0.135  0.00  0.00    +0.000 C 
ATOM      2  C   UNL     1       8.071  -3.644   0.512  0.00  0.00    +0.000 C 
ATOM      3  C   UNL     1       7.613  -2.909  -0.704  0.00  0.00    +0.000 C 
ENDROOT
BRANCH   1   4
ATOM      4  N   UNL     1       6.627  -5.251  -0.980  0.00  0.00    +0.000 N 
ATOM      5  C   UNL     1       6.933  -6.527  -0.444  0.00  0.00    +0.000 A 
ATOM      6  C   UNL     1       6.724  -7.635  -1.269  0.00  0.00    +0.000 A 
ATOM      7  C   UNL     1       7.055  -8.912  -0.817  0.00  0.00    +0.000 A 
ATOM      8  C   UNL     1       7.595  -9.058   0.457  0.00  0.00    +0.000 A 
ATOM      9  C   UNL     1       7.718  -7.916   1.237  0.00  0.00    +0.000 A 
ATOM     10  N   UNL     1       7.385  -6.663   0.818  0.00  0.00    +0.000 NA
ATOM     11  H   UNL     1       7.070  -5.175  -1.890  0.00  0.00    +0.000 HD
BRANCH   8  12
ATOM     12  C   UNL     1       8.018 -10.359   1.011  0.00  0.00    +0.000 C 
ATOM     13  N   UNL     1       8.351 -11.346   0.125  0.00  0.00    +0.000 N 
ATOM     14  O   UNL     1       8.097 -10.535   2.220  0.00  0.00    +0.000 OA
ATOM     15  H   UNL     1       8.519 -11.180  -0.857  0.00  0.00    +0.000 HD
ATOM     16  H   UNL     1       8.732 -12.199   0.519  0.00  0.00    +0.000 HD
ENDBRANCH   8  12
ENDBRANCH   1   4
BRANCH   1  21
ATOM     17  C   UNL     1       3.439  -2.403   0.403  0.00  0.00    +0.000 A 
ATOM     18  C   UNL     1       3.055  -2.844   1.671  0.00  0.00    +0.000 A 
ATOM     19  C   UNL     1       3.892  -3.708   2.370  0.00  0.00    +0.000 A 
ATOM     20  C   UNL     1       5.092  -4.107   1.795  0.00  0.00    +0.000 A 
ATOM     21  C   UNL     1       5.447  -3.622   0.540  0.00  0.00    +0.000 A 
ATOM     22  N   UNL     1       4.617  -2.772  -0.135  0.00  0.00    +0.000 NA
BRANCH  17  30
ATOM     23  C   UNL     1       3.126  -0.498  -2.493  0.00  0.00    +0.000 C 
ATOM     24  C   UNL     1       2.488  -1.715  -1.782  0.00  0.00    +0.000 C 
ATOM     25  C   UNL     1       3.060  -2.992  -2.424  0.00  0.00    +0.000 C 
ATOM     26  C   UNL     1       0.963  -1.702  -2.082  0.00  0.00    +0.000 C 
ATOM     27  O   UNL     1       0.317  -0.578  -1.487  0.00  0.00    +0.000 OA
ATOM     28  C   UNL     1       0.454  -0.590  -0.070  0.00  0.00    +0.000 C 
ATOM     29  C   UNL     1       1.929  -0.522   0.291  0.00  0.00    +0.000 C 
ATOM     30  O   UNL     1       2.616  -1.579  -0.354  0.00  0.00    +0.000 OA
ENDBRANCH  17  30
ENDBRANCH   1  21
TORSDOF 4
