REMARK  Name = 
REMARK  3 active torsions:
REMARK  status: ('A' for Active; 'I' for Inactive)
REMARK    1  A    between atoms: C_2  and  C_4
REMARK    2  A    between atoms: N_8  and  C_9
REMARK    3  A    between atoms: C_9  and  C_10
REMARK                            x       y       z     vdW  Elec       q    Type
REMARK                         _______ _______ _______ _____ _____    ______ ____
ROOT
ATOM      1  C   UNL     1       2.578   2.173  -1.276  0.00  0.00    +0.000 A 
ATOM      2  C   UNL     1       3.738   1.580  -0.795  0.00  0.00    +0.000 A 
ATOM      3  C   UNL     1       4.680   2.377  -0.147  0.00  0.00    +0.000 A 
ATOM      4  C   UNL     1       4.449   3.742   0.018  0.00  0.00    +0.000 A 
ATOM      5  N   UNL     1       5.415   4.456   0.757  0.00  0.00    +0.000 N 
ATOM      6  N   UNL     1       3.335   4.331  -0.465  0.00  0.00    +0.000 NA
ATOM      7  C   UNL     1       2.437   3.545  -1.117  0.00  0.00    +0.000 A 
ATOM      8  H   UNL     1       6.339   4.244   0.404  0.00  0.00    +0.000 HD
ENDROOT
BRANCH   1  10
ATOM      9  N   UNL     1       1.374   0.089  -1.574  0.00  0.00    +0.000 N 
ATOM     10  C   UNL     1       1.508   1.400  -1.938  0.00  0.00    +0.000 C 
ATOM     11  O   UNL     1       0.749   1.918  -2.746  0.00  0.00    +0.000 OA
ATOM     12  H   UNL     1       0.569  -0.399  -1.946  0.00  0.00    +0.000 HD
ATOM     13  H   UNL     1       1.800  -0.286  -0.737  0.00  0.00    +0.000 HD
ENDBRANCH   1  10
BRANCH   5  14
ATOM     14  C   UNL     1       5.193   5.806   1.311  0.00  0.00    +0.000 C 
ATOM     15  C   UNL     1       5.151   5.819   2.836  0.00  0.00    +0.000 C 
ATOM     16  C   UNL     1       3.916   6.141   2.063  0.00  0.00    +0.000 C 
BRANCH  14  17
ATOM     17  C   UNL     1       5.889   6.993   0.616  0.00  0.00    +0.000 C 
ATOM     18  C   UNL     1       5.432   7.198  -0.832  0.00  0.00    +0.000 C 
ATOM     19  C   UNL     1       6.178   6.316  -1.830  0.00  0.00    +0.000 C 
ATOM     20  N   UNL     1       7.631   6.458  -1.718  0.00  0.00    +0.000 NA
ATOM     21  C   UNL     1       8.107   6.143  -0.374  0.00  0.00    +0.000 C 
ATOM     22  C   UNL     1       7.422   6.971   0.710  0.00  0.00    +0.000 C 
ATOM     23  H   UNL     1       7.880   7.421  -1.942  0.00  0.00    +0.000 HD
ENDBRANCH  14  17
ENDBRANCH   5  14
TORSDOF 3
