REMARK  Name = 
REMARK  7 active torsions:
REMARK  status: ('A' for Active; 'I' for Inactive)
REMARK    1  A    between atoms: C_2  and  C_3
REMARK    2  A    between atoms: C_3  and  N_4
REMARK    3  A    between atoms: C_3  and  C_13
REMARK    4  A    between atoms: C_5  and  C_7
REMARK    5  A    between atoms: C_16  and  C_17
REMARK    6  A    between atoms: C_17  and  N_18
REMARK    7  A    between atoms: C_19  and  C_21
REMARK                            x       y       z     vdW  Elec       q    Type
REMARK                         _______ _______ _______ _____ _____    ______ ____
ROOT
ATOM      1  C   UNL     1       4.312   1.463  -0.094  0.00  0.00    +0.000 A 
ATOM      2  C   UNL     1       3.477   2.528  -0.474  0.00  0.00    +0.000 A 
ATOM      3  C   UNL     1       3.931   3.854  -0.431  0.00  0.00    +0.000 A 
ATOM      4  C   UNL     1       5.246   4.148  -0.050  0.00  0.00    +0.000 A 
ATOM      5  C   UNL     1       6.097   3.085   0.278  0.00  0.00    +0.000 A 
ATOM      6  C   UNL     1       5.643   1.761   0.243  0.00  0.00    +0.000 A 
ENDROOT
BRANCH   1   7
ATOM      7  C   UNL     1       3.736   0.050  -0.008  0.00  0.00    +0.000 C 
BRANCH   7   8
ATOM      8  N   UNL     1       3.832  -0.633  -1.294  0.00  0.00    +0.000 N 
ATOM      9  C   UNL     1       2.929  -1.625  -1.611  0.00  0.00    +0.000 C 
ATOM     10  O   UNL     1       2.020  -1.938  -0.848  0.00  0.00    +0.000 OA
ATOM     11  H   UNL     1       4.684  -0.538  -1.830  0.00  0.00    +0.000 HD
BRANCH   9  12
ATOM     12  C   UNL     1       3.136  -2.281  -2.981  0.00  0.00    +0.000 C 
ATOM     13  C   UNL     1       3.041  -1.213  -4.082  0.00  0.00    +0.000 C 
ATOM     14  C   UNL     1       3.028  -1.802  -5.489  0.00  0.00    +0.000 C 
ATOM     15  C   UNL     1       1.940  -2.855  -5.645  0.00  0.00    +0.000 C 
ATOM     16  C   UNL     1       2.113  -3.965  -4.616  0.00  0.00    +0.000 C 
ATOM     17  C   UNL     1       2.109  -3.409  -3.195  0.00  0.00    +0.000 C 
ENDBRANCH   9  12
ENDBRANCH   7   8
BRANCH   7  19
ATOM     18  N   UNL     1       4.840  -1.358   1.947  0.00  0.00    +0.000 NA
ATOM     19  C   UNL     1       4.336  -0.754   1.090  0.00  0.00    +0.000 C 
ENDBRANCH   7  19
ENDBRANCH   1   7
BRANCH   4  20
ATOM     20  C   UNL     1       5.732   5.575   0.049  0.00  0.00    +0.000 C 
BRANCH  20  21
ATOM     21  N   UNL     1       5.494   6.126   1.361  0.00  0.00    +0.000 N 
ATOM     22  C   UNL     1       5.797   7.436   1.653  0.00  0.00    +0.000 C 
ATOM     23  O   UNL     1       6.257   8.199   0.812  0.00  0.00    +0.000 OA
ATOM     24  H   UNL     1       5.358   5.469   2.123  0.00  0.00    +0.000 HD
BRANCH  22  25
ATOM     25  C   UNL     1       5.475   7.895   3.013  0.00  0.00    +0.000 A 
ATOM     26  C   UNL     1       5.241   9.243   3.250  0.00  0.00    +0.000 A 
ATOM     27  S   UNL     1       4.852   9.596   4.873  0.00  0.00    +0.000 S 
ATOM     28  C   UNL     1       5.033   7.968   5.327  0.00  0.00    +0.000 A 
ATOM     29  N   UNL     1       4.872   7.581   6.623  0.00  0.00    +0.000 NA
ATOM     30  C   UNL     1       5.067   6.321   6.830  0.00  0.00    +0.000 A 
ATOM     31  N   UNL     1       5.399   5.411   5.861  0.00  0.00    +0.000 N 
ATOM     32  C   UNL     1       5.538   5.751   4.535  0.00  0.00    +0.000 A 
ATOM     33  O   UNL     1       5.782   4.905   3.681  0.00  0.00    +0.000 OA
ATOM     34  C   UNL     1       5.356   7.160   4.252  0.00  0.00    +0.000 A 
ATOM     35  H   UNL     1       5.522   4.435   6.087  0.00  0.00    +0.000 HD
ENDBRANCH  22  25
ENDBRANCH  20  21
ENDBRANCH   4  20
TORSDOF 7
