REMARK  Name = 
REMARK  6 active torsions:
REMARK  status: ('A' for Active; 'I' for Inactive)
REMARK    1  A    between atoms: C_2  and  C_20
REMARK    2  A    between atoms: N_3  and  C_4
REMARK    3  A    between atoms: C_4  and  C_5
REMARK    4  A    between atoms: C_8  and  C_9
REMARK    5  A    between atoms: C_9  and  O_10
REMARK    6  A    between atoms: O_10  and  C_11
REMARK                            x       y       z     vdW  Elec       q    Type
REMARK                         _______ _______ _______ _____ _____    ______ ____
ROOT
ATOM      1  C   UNL     1       2.333   2.109  -1.245  0.00  0.00    +0.000 C 
ENDROOT
BRANCH   1   2
ATOM      2  C   UNL     1       3.250   3.155  -1.824  0.00  0.00    +0.000 A 
ATOM      3  C   UNL     1       2.875   4.505  -1.817  0.00  0.00    +0.000 A 
ATOM      4  C   UNL     1       3.721   5.482  -2.348  0.00  0.00    +0.000 A 
ATOM      5  C   UNL     1       4.954   5.130  -2.911  0.00  0.00    +0.000 A 
ATOM      6  C   UNL     1       5.317   3.777  -2.948  0.00  0.00    +0.000 A 
ATOM      7  C   UNL     1       4.470   2.799  -2.415  0.00  0.00    +0.000 A 
BRANCH   5   8
ATOM      8  C   UNL     1       5.870   6.197  -3.463  0.00  0.00    +0.000 C 
BRANCH   8   9
ATOM      9  O   UNL     1       7.137   6.218  -2.790  0.00  0.00    +0.000 OA
BRANCH   9  10
ATOM     10  C   UNL     1       7.151   6.877  -1.600  0.00  0.00    +0.000 C 
ATOM     11  O   UNL     1       6.188   7.452  -1.111  0.00  0.00    +0.000 OA
ATOM     12  N   UNL     1       8.375   6.815  -0.999  0.00  0.00    +0.000 N 
ATOM     13  C   UNL     1       8.660   7.398   0.274  0.00  0.00    +0.000 C 
ATOM     14  C   UNL     1       9.944   6.700   0.650  0.00  0.00    +0.000 C 
ATOM     15  O   UNL     1      10.588   6.368  -0.595  0.00  0.00    +0.000 OA
ATOM     16  C   UNL     1       9.591   6.407  -1.627  0.00  0.00    +0.000 C 
ENDBRANCH   9  10
ENDBRANCH   8   9
ENDBRANCH   5   8
ENDBRANCH   1   2
BRANCH   1  19
ATOM     17  O   UNL     1       0.481   0.059  -0.871  0.00  0.00    +0.000 OA
ATOM     18  C   UNL     1       0.531   0.610  -1.967  0.00  0.00    +0.000 C 
ATOM     19  N   UNL     1       1.456   1.580  -2.257  0.00  0.00    +0.000 N 
ATOM     20  H   UNL     1       1.328   2.153  -3.084  0.00  0.00    +0.000 HD
BRANCH  18  21
ATOM     21  C   UNL     1      -0.366   0.225  -3.063  0.00  0.00    +0.000 A 
ATOM     22  C   UNL     1      -0.947  -1.036  -3.076  0.00  0.00    +0.000 A 
ATOM     23  S   UNL     1      -1.913  -1.328  -4.452  0.00  0.00    +0.000 S 
ATOM     24  C   UNL     1      -1.634   0.241  -5.049  0.00  0.00    +0.000 A 
ATOM     25  N   UNL     1      -2.198   0.658  -6.214  0.00  0.00    +0.000 NA
ATOM     26  C   UNL     1      -1.933   1.884  -6.526  0.00  0.00    +0.000 A 
ATOM     27  N   UNL     1      -1.155   2.729  -5.781  0.00  0.00    +0.000 N 
ATOM     28  C   UNL     1      -0.532   2.340  -4.620  0.00  0.00    +0.000 A 
ATOM     29  O   UNL     1       0.206   3.102  -4.004  0.00  0.00    +0.000 OA
ATOM     30  C   UNL     1      -0.807   0.973  -4.217  0.00  0.00    +0.000 A 
ATOM     31  H   UNL     1      -0.977   3.674  -6.085  0.00  0.00    +0.000 HD
ENDBRANCH  18  21
ENDBRANCH   1  19
TORSDOF 6
