REMARK  Name = 
REMARK  9 active torsions:
REMARK  status: ('A' for Active; 'I' for Inactive)
REMARK    1  A    between atoms: C_1  and  C_2
REMARK    2  A    between atoms: C_2  and  C_3
REMARK    3  A    between atoms: C_3  and  N_4
REMARK    4  A    between atoms: N_4  and  C_5
REMARK    5  A    between atoms: C_5  and  C_6
REMARK    6  A    between atoms: N_14  and  C_15
REMARK    7  A    between atoms: C_15  and  C_16
REMARK    8  A    between atoms: C_19  and  C_20
REMARK    9  A    between atoms: C_20  and  N_21
REMARK                            x       y       z     vdW  Elec       q    Type
REMARK                         _______ _______ _______ _____ _____    ______ ____
ROOT
ATOM      1  C   UNL     1       6.438  -0.781  -2.718  0.00  0.00    +0.000 A 
ATOM      2  C   UNL     1       7.235  -1.782  -2.130  0.00  0.00    +0.000 A 
ATOM      3  C   UNL     1       8.617  -1.669  -2.150  0.00  0.00    +0.000 A 
ATOM      4  N   UNL     1       9.315  -0.667  -2.721  0.00  0.00    +0.000 NA
ATOM      5  C   UNL     1       8.529   0.262  -3.302  0.00  0.00    +0.000 A 
ATOM      6  C   UNL     1       7.135   0.283  -3.335  0.00  0.00    +0.000 A 
ATOM      7  C   UNL     1       6.765   1.470  -4.031  0.00  0.00    +0.000 A 
ATOM      8  C   UNL     1       7.921   2.118  -4.413  0.00  0.00    +0.000 A 
ATOM      9  N   UNL     1       8.985   1.365  -3.984  0.00  0.00    +0.000 N 
ENDROOT
BRANCH   1  10
ATOM     10  C   UNL     1       4.932  -0.894  -2.687  0.00  0.00    +0.000 C 
BRANCH  10  11
ATOM     11  N   UNL     1       4.424  -0.870  -1.315  0.00  0.00    +0.000 NA
ATOM     12  H   UNL     1       4.831  -1.641  -0.789  0.00  0.00    +0.000 HD
BRANCH  11  13
ATOM     13  C   UNL     1       2.968  -0.975  -1.284  0.00  0.00    +0.000 C 
BRANCH  13  15
ATOM     14  C   UNL     1       0.979  -1.092   0.256  0.00  0.00    +0.000 C 
ATOM     15  C   UNL     1       2.494  -0.997   0.169  0.00  0.00    +0.000 C 
ENDBRANCH  13  15
ENDBRANCH  11  13
ENDBRANCH  10  11
ENDBRANCH   1  10
BRANCH   9  16
ATOM     16  C   UNL     1      10.385   1.731  -4.127  0.00  0.00    +0.000 C 
BRANCH  16  17
ATOM     17  C   UNL     1      11.019   1.171  -5.371  0.00  0.00    +0.000 A 
ATOM     18  C   UNL     1      11.475   2.002  -6.397  0.00  0.00    +0.000 A 
ATOM     19  C   UNL     1      12.176   1.457  -7.472  0.00  0.00    +0.000 A 
ATOM     20  C   UNL     1      12.402   0.084  -7.506  0.00  0.00    +0.000 A 
ATOM     21  N   UNL     1      11.928  -0.749  -6.548  0.00  0.00    +0.000 NA
ATOM     22  C   UNL     1      11.255  -0.193  -5.512  0.00  0.00    +0.000 A 
BRANCH  20  23
ATOM     23  C   UNL     1      13.247  -0.534  -8.600  0.00  0.00    +0.000 C 
BRANCH  23  24
ATOM     24  N   UNL     1      12.739  -0.275  -9.950  0.00  0.00    +0.000 NA
ATOM     25  H   UNL     1      11.776  -0.613  -9.985  0.00  0.00    +0.000 HD
ATOM     26  H   UNL     1      13.257  -0.860 -10.603  0.00  0.00    +0.000 HD
ENDBRANCH  23  24
ENDBRANCH  20  23
ENDBRANCH  16  17
ENDBRANCH   9  16
TORSDOF 8
