REMARK  Name = 
REMARK  6 active torsions:
REMARK  status: ('A' for Active; 'I' for Inactive)
REMARK    1  A    between atoms: N_1  and  C_2
REMARK    2  A    between atoms: C_2  and  C_3
REMARK    3  A    between atoms: C_6  and  N_7
REMARK    4  A    between atoms: N_7  and  C_8
REMARK    5  A    between atoms: C_8  and  C_9
REMARK    6  A    between atoms: C_13  and  O_14
REMARK                            x       y       z     vdW  Elec       q    Type
REMARK                         _______ _______ _______ _____ _____    ______ ____
ROOT
ATOM      1  N   UNL     1       3.537  -4.599   3.105  0.00  0.00    +0.000 N 
ATOM      2  H   UNL     1       3.660  -5.391   2.479  0.00  0.00    +0.000 HD
ENDROOT
BRANCH   1   6
ATOM      3  C   UNL     1       3.057  -0.960   1.021  0.00  0.00    +0.000 A 
ATOM      4  C   UNL     1       4.295  -1.272   1.598  0.00  0.00    +0.000 A 
ATOM      5  C   UNL     1       4.486  -2.483   2.271  0.00  0.00    +0.000 A 
ATOM      6  C   UNL     1       3.441  -3.399   2.402  0.00  0.00    +0.000 A 
ATOM      7  C   UNL     1       2.236  -3.126   1.744  0.00  0.00    +0.000 A 
ATOM      8  C   UNL     1       2.035  -1.913   1.079  0.00  0.00    +0.000 A 
BRANCH   3   9
ATOM      9  C   UNL     1       2.812   0.390   0.403  0.00  0.00    +0.000 C 
BRANCH   9  10
ATOM     10  N   UNL     1       3.738   0.670  -0.688  0.00  0.00    +0.000 NA
ATOM     11  H   UNL     1       3.454   1.532  -1.149  0.00  0.00    +0.000 HD
ATOM     12  H   UNL     1       3.653  -0.068  -1.383  0.00  0.00    +0.000 HD
ENDBRANCH   9  10
ENDBRANCH   3   9
ENDBRANCH   1   6
BRANCH   1  13
ATOM     13  C   UNL     1       4.423  -4.664   4.260  0.00  0.00    +0.000 C 
BRANCH  13  14
ATOM     14  C   UNL     1       3.861  -5.667   5.237  0.00  0.00    +0.000 A 
ATOM     15  C   UNL     1       2.567  -5.488   5.762  0.00  0.00    +0.000 A 
ATOM     16  C   UNL     1       2.027  -6.407   6.661  0.00  0.00    +0.000 A 
ATOM     17  C   UNL     1       2.771  -7.521   7.049  0.00  0.00    +0.000 A 
ATOM     18  C   UNL     1       4.054  -7.696   6.535  0.00  0.00    +0.000 A 
ATOM     19  C   UNL     1       4.606  -6.778   5.648  0.00  0.00    +0.000 A 
BRANCH  18  20
ATOM     20  O   UNL     1       4.810  -8.779   6.878  0.00  0.00    +0.000 OA
ATOM     21  H   UNL     1       4.256  -9.385   7.394  0.00  0.00    +0.000 HD
ENDBRANCH  18  20
ENDBRANCH  13  14
ENDBRANCH   1  13
TORSDOF 6
