REMARK  Name = 
REMARK  13 active torsions:
REMARK  status: ('A' for Active; 'I' for Inactive)
REMARK    1  A    between atoms: C_1  and  N_2
REMARK    2  A    between atoms: N_2  and  C_3
REMARK    3  A    between atoms: N_2  and  C_4
REMARK    4  A    between atoms: C_4  and  C_5
REMARK    5  A    between atoms: C_5  and  N_6
REMARK    6  A    between atoms: C_7  and  C_9
REMARK    7  A    between atoms: C_12  and  N_13
REMARK    8  A    between atoms: N_13  and  C_14
REMARK    9  A    between atoms: C_14  and  C_15
REMARK   10  A    between atoms: C_15  and  C_16
REMARK   11  A    between atoms: C_15  and  C_17
REMARK   12  A    between atoms: C_15  and  C_18
REMARK   13  A    between atoms: C_22  and  C_23
REMARK                            x       y       z     vdW  Elec       q    Type
REMARK                         _______ _______ _______ _____ _____    ______ ____
ROOT
ATOM      1  N   UNL     1       8.348  -4.915  -6.690  0.00  0.00    +0.000 N 
ATOM      2  H   UNL     1       9.361  -4.906  -6.633  0.00  0.00    +0.000 HD
ENDROOT
BRANCH   1   6
ATOM      3  C   UNL     1       6.903  -2.690  -3.540  0.00  0.00    +0.000 A 
ATOM      4  C   UNL     1       6.459  -2.451  -4.835  0.00  0.00    +0.000 A 
ATOM      5  N   UNL     1       6.907  -3.158  -5.910  0.00  0.00    +0.000 NA
ATOM      6  C   UNL     1       7.829  -4.115  -5.663  0.00  0.00    +0.000 A 
ATOM      7  C   UNL     1       8.258  -4.337  -4.346  0.00  0.00    +0.000 A 
ATOM      8  N   UNL     1       7.823  -3.648  -3.261  0.00  0.00    +0.000 NA
BRANCH   3  10
ATOM      9  N   UNL     1       6.885  -2.175  -1.148  0.00  0.00    +0.000 N 
ATOM     10  C   UNL     1       6.395  -1.881  -2.405  0.00  0.00    +0.000 C 
ATOM     11  O   UNL     1       5.579  -0.977  -2.610  0.00  0.00    +0.000 OA
ATOM     12  H   UNL     1       7.711  -2.753  -1.070  0.00  0.00    +0.000 HD
BRANCH   9  13
ATOM     13  C   UNL     1       6.442  -1.410   0.001  0.00  0.00    +0.000 C 
BRANCH  13  14
ATOM     14  C   UNL     1       7.071  -1.850   1.342  0.00  0.00    +0.000 C 
BRANCH  14  16
ATOM     15  C   UNL     1       8.991  -0.390   1.148  0.00  0.00    +0.000 C 
ATOM     16  N   UNL     1       8.549  -1.773   1.355  0.00  0.00    +0.000 NA
ATOM     17  C   UNL     1       9.093  -2.268   2.625  0.00  0.00    +0.000 C 
ENDBRANCH  14  16
ENDBRANCH  13  14
ENDBRANCH   9  13
ENDBRANCH   3  10
ENDBRANCH   1   6
BRANCH   1  18
ATOM     18  C   UNL     1       7.834  -4.666  -8.043  0.00  0.00    +0.000 C 
BRANCH  18  19
ATOM     19  C   UNL     1       8.890  -5.010  -9.150  0.00  0.00    +0.000 C 
ATOM     20  C   UNL     1      10.151  -4.130  -8.976  0.00  0.00    +0.000 C 
ATOM     21  C   UNL     1       9.321  -6.489  -8.980  0.00  0.00    +0.000 C 
BRANCH  19  22
ATOM     22  C   UNL     1       8.275  -4.727 -10.543  0.00  0.00    +0.000 A 
ATOM     23  C   UNL     1       8.140  -5.729 -11.522  0.00  0.00    +0.000 A 
ATOM     24  C   UNL     1       7.537  -5.465 -12.754  0.00  0.00    +0.000 A 
ATOM     25  C   UNL     1       7.035  -4.197 -13.030  0.00  0.00    +0.000 A 
ATOM     26  C   UNL     1       7.145  -3.177 -12.080  0.00  0.00    +0.000 A 
ATOM     27  C   UNL     1       7.794  -3.435 -10.863  0.00  0.00    +0.000 A 
BRANCH  26  28
ATOM     28  C   UNL     1       6.527  -1.862 -12.410  0.00  0.00    +0.000 C 
ATOM     29  N   UNL     1       6.073  -1.084 -11.378  0.00  0.00    +0.000 N 
ATOM     30  O   UNL     1       6.367  -1.504 -13.566  0.00  0.00    +0.000 OA
ATOM     31  H   UNL     1       6.047  -1.367 -10.410  0.00  0.00    +0.000 HD
ATOM     32  H   UNL     1       5.552  -0.256 -11.642  0.00  0.00    +0.000 HD
ENDBRANCH  26  28
ENDBRANCH  19  22
ENDBRANCH  18  19
ENDBRANCH   1  18
TORSDOF 9
