REMARK  Name = 
REMARK  11 active torsions:
REMARK  status: ('A' for Active; 'I' for Inactive)
REMARK    1  A    between atoms: C_1  and  C_2
REMARK    2  A    between atoms: C_2  and  C_3
REMARK    3  A    between atoms: C_2  and  C_16
REMARK    4  A    between atoms: C_3  and  N_4
REMARK    5  A    between atoms: N_4  and  C_5
REMARK    6  A    between atoms: C_8  and  S_9
REMARK    7  A    between atoms: S_9  and  N_10
REMARK    8  A    between atoms: C_20  and  O_21
REMARK    9  A    between atoms: O_21  and  C_22
REMARK   10  A    between atoms: C_24  and  C_25
REMARK   11  A    between atoms: C_24  and  C_26
REMARK                            x       y       z     vdW  Elec       q    Type
REMARK                         _______ _______ _______ _____ _____    ______ ____
ROOT
ATOM      1  C   UNL     1       3.891  11.115  -1.553  0.00  0.00    +0.000 C 
ENDROOT
BRANCH   1   3
ATOM      2  C   UNL     1       2.176  11.320   0.342  0.00  0.00    +0.000 C 
ATOM      3  C   UNL     1       2.397  11.046  -1.149  0.00  0.00    +0.000 C 
BRANCH   3   4
ATOM      4  C   UNL     1       1.797   9.699  -1.552  0.00  0.00    +0.000 A 
ATOM      5  C   UNL     1       0.750   9.641  -2.477  0.00  0.00    +0.000 A 
ATOM      6  C   UNL     1       0.248   8.398  -2.853  0.00  0.00    +0.000 A 
ATOM      7  N   UNL     1       0.720   7.212  -2.403  0.00  0.00    +0.000 NA
ATOM      8  C   UNL     1       1.743   7.283  -1.530  0.00  0.00    +0.000 A 
ATOM      9  C   UNL     1       2.292   8.480  -1.068  0.00  0.00    +0.000 A 
BRANCH   8  10
ATOM     10  O   UNL     1       2.427   6.132  -1.184  0.00  0.00    +0.000 OA
BRANCH  10  11
ATOM     11  C   UNL     1       1.646   4.925  -1.042  0.00  0.00    +0.000 C 
ATOM     12  C   UNL     1       2.548   3.785  -0.610  0.00  0.00    +0.000 C 
ATOM     13  C   UNL     1       1.876   3.723  -1.954  0.00  0.00    +0.000 C 
ATOM     14  C   UNL     1       0.808   2.662  -2.080  0.00  0.00    +0.000 C 
ATOM     15  C   UNL     1       2.696   3.902  -3.204  0.00  0.00    +0.000 C 
ENDBRANCH  10  11
ENDBRANCH   8  10
ENDBRANCH   3   4
ENDBRANCH   1   3
BRANCH   1  16
ATOM     16  N   UNL     1       4.471  12.454  -1.371  0.00  0.00    +0.000 N 
ATOM     17  H   UNL     1       4.304  12.844  -0.441  0.00  0.00    +0.000 HD
BRANCH  16  18
ATOM     18  C   UNL     1       5.848  12.580  -1.672  0.00  0.00    +0.000 A 
ATOM     19  C   UNL     1       6.448  11.915  -2.749  0.00  0.00    +0.000 A 
ATOM     20  C   UNL     1       7.807  12.081  -3.033  0.00  0.00    +0.000 A 
ATOM     21  C   UNL     1       8.578  12.952  -2.259  0.00  0.00    +0.000 A 
ATOM     22  C   UNL     1       8.003  13.662  -1.207  0.00  0.00    +0.000 A 
ATOM     23  C   UNL     1       6.647  13.482  -0.939  0.00  0.00    +0.000 A 
ATOM     24  F   UNL     1       6.097  14.165   0.077  0.00  0.00    +0.000 F 
BRANCH  21  25
ATOM     25  S   UNL     1      10.308  13.095  -2.589  0.00  0.00    +0.000 S 
ATOM     26  O   UNL     1      10.967  13.658  -1.434  0.00  0.00    +0.000 OA
ATOM     27  O   UNL     1      10.769  11.885  -3.227  0.00  0.00    +0.000 OA
BRANCH  25  28
ATOM     28  N   UNL     1      10.341  14.285  -3.771  0.00  0.00    +0.000 NA
ATOM     29  H   UNL     1      10.868  15.092  -3.432  0.00  0.00    +0.000 HD
ATOM     30  H   UNL     1      10.704  13.898  -4.642  0.00  0.00    +0.000 HD
ENDBRANCH  25  28
ENDBRANCH  21  25
ENDBRANCH  16  18
ENDBRANCH   1  16
TORSDOF 8
