REMARK  Name = 
REMARK  7 active torsions:
REMARK  status: ('A' for Active; 'I' for Inactive)
REMARK    1  A    between atoms: C_2  and  C_3
REMARK    2  A    between atoms: N_5  and  C_6
REMARK    3  A    between atoms: C_6  and  C_7
REMARK    4  A    between atoms: C_10  and  C_11
REMARK    5  A    between atoms: N_13  and  C_14
REMARK    6  A    between atoms: C_14  and  C_15
REMARK    7  A    between atoms: C_15  and  N_16
REMARK                            x       y       z     vdW  Elec       q    Type
REMARK                         _______ _______ _______ _____ _____    ______ ____
ROOT
ATOM      1  C   UNL     1       6.538   3.165  -0.020  0.00  0.00    +0.000 A 
ATOM      2  C   UNL     1       5.855   3.679   1.087  0.00  0.00    +0.000 A 
ATOM      3  C   UNL     1       5.302   4.960   1.032  0.00  0.00    +0.000 A 
ATOM      4  C   UNL     1       5.476   5.712  -0.127  0.00  0.00    +0.000 A 
ATOM      5  N   UNL     1       6.226   5.286  -1.181  0.00  0.00    +0.000 NA
ATOM      6  C   UNL     1       6.727   4.028  -1.099  0.00  0.00    +0.000 A 
ENDROOT
BRANCH   4   7
ATOM      7  C   UNL     1       4.764   7.030  -0.293  0.00  0.00    +0.000 C 
ATOM      8  O   UNL     1       4.016   7.456   0.582  0.00  0.00    +0.000 OA
ATOM      9  N   UNL     1       4.994   7.705  -1.479  0.00  0.00    +0.000 N 
ATOM     10  H   UNL     1       5.695   7.337  -2.114  0.00  0.00    +0.000 HD
BRANCH   9  11
ATOM     11  C   UNL     1       4.373   8.988  -1.770  0.00  0.00    +0.000 C 
BRANCH  11  12
ATOM     12  C   UNL     1       5.219  10.166  -1.267  0.00  0.00    +0.000 C 
BRANCH  12  13
ATOM     13  N   UNL     1       6.543  10.202  -1.903  0.00  0.00    +0.000 NA
ATOM     14  H   UNL     1       7.036   9.340  -1.671  0.00  0.00    +0.000 HD
ATOM     15  H   UNL     1       7.086  10.958  -1.488  0.00  0.00    +0.000 HD
ENDBRANCH  12  13
ENDBRANCH  11  12
ENDBRANCH   9  11
ENDBRANCH   4   7
BRANCH   1  16
ATOM     16  C   UNL     1       6.965   1.719  -0.079  0.00  0.00    +0.000 C 
BRANCH  16  19
ATOM     17  C   UNL     1       4.698  -0.185  -2.206  0.00  0.00    +0.000 A 
ATOM     18  C   UNL     1       5.831   0.578  -2.017  0.00  0.00    +0.000 A 
ATOM     19  N   UNL     1       5.926   0.877  -0.674  0.00  0.00    +0.000 N 
ATOM     20  C   UNL     1       4.913   0.227   0.015  0.00  0.00    +0.000 A 
ATOM     21  C   UNL     1       4.619   0.174   1.387  0.00  0.00    +0.000 A 
ATOM     22  C   UNL     1       3.504  -0.561   1.799  0.00  0.00    +0.000 A 
ATOM     23  C   UNL     1       2.701  -1.223   0.876  0.00  0.00    +0.000 A 
ATOM     24  C   UNL     1       2.996  -1.165  -0.489  0.00  0.00    +0.000 A 
ATOM     25  C   UNL     1       4.122  -0.435  -0.930  0.00  0.00    +0.000 A 
BRANCH  17  27
ATOM     26  N   UNL     1       3.808  -0.997  -4.498  0.00  0.00    +0.000 NA
ATOM     27  C   UNL     1       4.210  -0.638  -3.474  0.00  0.00    +0.000 C 
ENDBRANCH  17  27
ENDBRANCH  16  19
ENDBRANCH   1  16
TORSDOF 7
