REMARK  Name = 
REMARK  6 active torsions:
REMARK  status: ('A' for Active; 'I' for Inactive)
REMARK    1  A    between atoms: N_1  and  C_2
REMARK    2  A    between atoms: C_2  and  C_3
REMARK    3  A    between atoms: C_3  and  C_4
REMARK    4  A    between atoms: C_7  and  C_8
REMARK    5  A    between atoms: C_8  and  N_9
REMARK    6  A    between atoms: C_14  and  C_15
REMARK                            x       y       z     vdW  Elec       q    Type
REMARK                         _______ _______ _______ _____ _____    ______ ____
ROOT
ATOM      1  N   UNL     1       9.519  -2.134  -0.813  0.00  0.00    +0.000 N 
ATOM      2  N   UNL     1       9.810  -2.908  -1.882  0.00  0.00    +0.000 NA
ATOM      3  N   UNL     1       9.716  -4.169  -1.493  0.00  0.00    +0.000 NA
ATOM      4  C   UNL     1       9.459  -4.177  -0.145  0.00  0.00    +0.000 A 
ATOM      5  C   UNL     1       9.158  -5.233   0.722  0.00  0.00    +0.000 A 
ATOM      6  C   UNL     1       8.933  -4.952   2.081  0.00  0.00    +0.000 A 
ATOM      7  C   UNL     1       9.080  -3.640   2.563  0.00  0.00    +0.000 A 
ATOM      8  C   UNL     1       9.351  -2.568   1.700  0.00  0.00    +0.000 A 
ATOM      9  C   UNL     1       9.488  -2.878   0.345  0.00  0.00    +0.000 A 
ENDROOT
BRANCH   6  10
ATOM     10  C   UNL     1       8.481  -6.087   2.936  0.00  0.00    +0.000 C 
ATOM     11  N   UNL     1       8.320  -5.883   4.277  0.00  0.00    +0.000 N 
ATOM     12  O   UNL     1       8.232  -7.188   2.457  0.00  0.00    +0.000 OA
ATOM     13  H   UNL     1       8.536  -5.035   4.773  0.00  0.00    +0.000 HD
ATOM     14  H   UNL     1       7.995  -6.677   4.813  0.00  0.00    +0.000 HD
ENDBRANCH   6  10
BRANCH   1  15
ATOM     15  C   UNL     1       8.877  -0.845  -1.021  0.00  0.00    +0.000 C 
BRANCH  15  19
ATOM     16  C   UNL     1       4.611  -1.629  -0.989  0.00  0.00    +0.000 A 
ATOM     17  C   UNL     1       5.236  -1.061   0.128  0.00  0.00    +0.000 A 
ATOM     18  C   UNL     1       6.602  -0.762   0.106  0.00  0.00    +0.000 A 
ATOM     19  C   UNL     1       7.371  -1.023  -1.036  0.00  0.00    +0.000 A 
ATOM     20  C   UNL     1       6.736  -1.573  -2.161  0.00  0.00    +0.000 A 
ATOM     21  C   UNL     1       5.371  -1.868  -2.139  0.00  0.00    +0.000 A 
BRANCH  16  22
ATOM     22  C   UNL     1       3.145  -1.989  -0.953  0.00  0.00    +0.000 C 
BRANCH  22  23
ATOM     23  C   UNL     1       2.250  -0.826  -1.392  0.00  0.00    +0.000 C 
BRANCH  23  24
ATOM     24  N   UNL     1       0.837  -1.198  -1.331  0.00  0.00    +0.000 NA
ATOM     25  H   UNL     1       0.266  -0.401  -1.611  0.00  0.00    +0.000 HD
ATOM     26  H   UNL     1       0.577  -1.411  -0.368  0.00  0.00    +0.000 HD
ENDBRANCH  23  24
ENDBRANCH  22  23
ENDBRANCH  16  22
ENDBRANCH  15  19
ENDBRANCH   1  15
TORSDOF 6
