REMARK  Name = 
REMARK  4 active torsions:
REMARK  status: ('A' for Active; 'I' for Inactive)
REMARK    1  A    between atoms: C_2  and  C_3
REMARK    2  A    between atoms: C_6  and  C_7
REMARK    3  A    between atoms: C_7  and  N_8
REMARK    4  A    between atoms: C_13  and  C_14
REMARK                            x       y       z     vdW  Elec       q    Type
REMARK                         _______ _______ _______ _____ _____    ______ ____
ROOT
ATOM      1  N   UNL     1      -4.017  -1.051   0.747  0.00  0.00    +0.000 N 
ATOM      2  C   UNL     1      -5.211  -1.773   0.696  0.00  0.00    +0.000 A 
ATOM      3  C   UNL     1      -6.451  -1.171   0.548  0.00  0.00    +0.000 A 
ATOM      4  C   UNL     1      -7.599  -1.943   0.680  0.00  0.00    +0.000 A 
ATOM      5  C   UNL     1      -7.476  -3.305   0.921  0.00  0.00    +0.000 A 
ATOM      6  C   UNL     1      -6.205  -3.864   0.999  0.00  0.00    +0.000 A 
ATOM      7  N   UNL     1      -5.087  -3.100   0.908  0.00  0.00    +0.000 NA
ATOM      8  H   UNL     1      -3.270  -1.742   0.816  0.00  0.00    +0.000 HD
ENDROOT
BRANCH   6   9
ATOM      9  C   UNL     1      -5.979  -5.308   1.169  0.00  0.00    +0.000 A 
ATOM     10  C   UNL     1      -4.832  -5.803   1.800  0.00  0.00    +0.000 A 
ATOM     11  N   UNL     1      -4.549  -7.121   1.988  0.00  0.00    +0.000 NA
ATOM     12  C   UNL     1      -5.453  -8.003   1.509  0.00  0.00    +0.000 A 
ATOM     13  C   UNL     1      -6.612  -7.623   0.862  0.00  0.00    +0.000 A 
ATOM     14  F   UNL     1      -7.472  -8.539   0.399  0.00  0.00    +0.000 F 
ATOM     15  C   UNL     1      -6.879  -6.271   0.689  0.00  0.00    +0.000 A 
ENDBRANCH   6   9
BRANCH   1  16
ATOM     16  C   UNL     1      -3.699   0.093  -0.130  0.00  0.00    +0.000 C 
ATOM     17  C   UNL     1      -4.354   1.457  -0.015  0.00  0.00    +0.000 C 
ATOM     18  C   UNL     1      -3.009   1.248   0.593  0.00  0.00    +0.000 C 
BRANCH  16  22
ATOM     19  C   UNL     1      -2.020  -1.062  -3.923  0.00  0.00    +0.000 A 
ATOM     20  C   UNL     1      -3.403  -0.948  -3.808  0.00  0.00    +0.000 A 
ATOM     21  C   UNL     1      -3.956  -0.572  -2.582  0.00  0.00    +0.000 A 
ATOM     22  C   UNL     1      -3.122  -0.313  -1.491  0.00  0.00    +0.000 A 
ATOM     23  N   UNL     1      -1.771  -0.434  -1.605  0.00  0.00    +0.000 NA
ATOM     24  C   UNL     1      -1.254  -0.796  -2.802  0.00  0.00    +0.000 A 
BRANCH  19  26
ATOM     25  N   UNL     1      -0.894  -1.741  -6.150  0.00  0.00    +0.000 NA
ATOM     26  C   UNL     1      -1.401  -1.438  -5.149  0.00  0.00    +0.000 C 
ENDBRANCH  19  26
ENDBRANCH  16  22
ENDBRANCH   1  16
TORSDOF 4
