REMARK  Name = 
REMARK  6 active torsions:
REMARK  status: ('A' for Active; 'I' for Inactive)
REMARK    1  A    between atoms: C_2  and  C_20
REMARK    2  A    between atoms: N_3  and  C_4
REMARK    3  A    between atoms: C_4  and  C_5
REMARK    4  A    between atoms: C_8  and  C_9
REMARK    5  A    between atoms: C_9  and  N_10
REMARK    6  A    between atoms: C_11  and  C_13
REMARK                            x       y       z     vdW  Elec       q    Type
REMARK                         _______ _______ _______ _____ _____    ______ ____
ROOT
ATOM      1  C   UNL     1       3.302  -3.406  -1.281  0.00  0.00    +0.000 A 
ATOM      2  C   UNL     1       4.576  -3.061  -1.753  0.00  0.00    +0.000 A 
ATOM      3  C   UNL     1       5.486  -4.050  -2.145  0.00  0.00    +0.000 A 
ATOM      4  C   UNL     1       5.132  -5.405  -2.098  0.00  0.00    +0.000 A 
ATOM      5  C   UNL     1       3.851  -5.748  -1.645  0.00  0.00    +0.000 A 
ATOM      6  C   UNL     1       2.942  -4.759  -1.251  0.00  0.00    +0.000 A 
ENDROOT
BRANCH   1   7
ATOM      7  C   UNL     1       2.320  -2.339  -0.863  0.00  0.00    +0.000 C 
BRANCH   7  10
ATOM      8  O   UNL     1       0.148  -0.583  -0.725  0.00  0.00    +0.000 OA
ATOM      9  C   UNL     1       0.473  -1.032  -1.819  0.00  0.00    +0.000 C 
ATOM     10  N   UNL     1       1.475  -1.958  -1.965  0.00  0.00    +0.000 N 
ATOM     11  H   UNL     1       1.848  -2.138  -2.891  0.00  0.00    +0.000 HD
BRANCH   9  12
ATOM     12  C   UNL     1      -0.224  -0.638  -3.052  0.00  0.00    +0.000 A 
ATOM     13  C   UNL     1      -1.522  -0.149  -2.993  0.00  0.00    +0.000 A 
ATOM     14  S   UNL     1      -2.178   0.227  -4.523  0.00  0.00    +0.000 S 
ATOM     15  C   UNL     1      -0.733  -0.203  -5.312  0.00  0.00    +0.000 A 
ATOM     16  N   UNL     1      -0.610  -0.092  -6.662  0.00  0.00    +0.000 NA
ATOM     17  C   UNL     1       0.550  -0.424  -7.121  0.00  0.00    +0.000 A 
ATOM     18  N   UNL     1       1.598  -0.864  -6.355  0.00  0.00    +0.000 N 
ATOM     19  C   UNL     1       1.511  -1.018  -4.993  0.00  0.00    +0.000 A 
ATOM     20  O   UNL     1       2.455  -1.453  -4.343  0.00  0.00    +0.000 OA
ATOM     21  C   UNL     1       0.229  -0.647  -4.423  0.00  0.00    +0.000 A 
ATOM     22  H   UNL     1       2.478  -1.120  -6.776  0.00  0.00    +0.000 HD
ENDBRANCH   9  12
ENDBRANCH   7  10
ENDBRANCH   1   7
BRANCH   4  23
ATOM     23  C   UNL     1       6.098  -6.476  -2.533  0.00  0.00    +0.000 C 
BRANCH  23  24
ATOM     24  N   UNL     1       6.933  -6.943  -1.455  0.00  0.00    +0.000 N 
ATOM     25  C   UNL     1       7.886  -7.915  -1.666  0.00  0.00    +0.000 C 
ATOM     26  O   UNL     1       8.105  -8.410  -2.770  0.00  0.00    +0.000 OA
ATOM     27  H   UNL     1       6.664  -6.794  -0.485  0.00  0.00    +0.000 HD
BRANCH  25  28
ATOM     28  C   UNL     1       8.690  -8.317  -0.421  0.00  0.00    +0.000 C 
ATOM     29  C   UNL     1       8.514  -9.776  -0.051  0.00  0.00    +0.000 C 
ATOM     30  C   UNL     1       8.990  -9.812   1.390  0.00  0.00    +0.000 C 
ATOM     31  C   UNL     1       8.668  -8.428   1.939  0.00  0.00    +0.000 C 
ATOM     32  N   UNL     1       8.232  -7.609   0.801  0.00  0.00    +0.000 NA
ATOM     33  H   UNL     1       8.675  -6.690   0.840  0.00  0.00    +0.000 HD
ENDBRANCH  25  28
ENDBRANCH  23  24
ENDBRANCH   4  23
TORSDOF 6
