REMARK  Name = 
REMARK  7 active torsions:
REMARK  status: ('A' for Active; 'I' for Inactive)
REMARK    1  A    between atoms: N_1  and  C_2
REMARK    2  A    between atoms: C_2  and  C_3
REMARK    3  A    between atoms: C_6  and  C_7
REMARK    4  A    between atoms: C_7  and  C_8
REMARK    5  A    between atoms: C_11  and  C_12
REMARK    6  A    between atoms: C_12  and  N_13
REMARK    7  A    between atoms: C_14  and  C_16
REMARK                            x       y       z     vdW  Elec       q    Type
REMARK                         _______ _______ _______ _____ _____    ______ ____
ROOT
ATOM      1  C   UNL     1       3.621  -6.615  -0.346  0.00  0.00    +0.000 A 
ATOM      2  C   UNL     1       2.335  -6.678  -0.896  0.00  0.00    +0.000 A 
ATOM      3  C   UNL     1       1.450  -7.703  -0.546  0.00  0.00    +0.000 A 
ATOM      4  C   UNL     1       1.847  -8.719   0.331  0.00  0.00    +0.000 A 
ATOM      5  C   UNL     1       3.165  -8.708   0.808  0.00  0.00    +0.000 A 
ATOM      6  C   UNL     1       4.039  -7.657   0.490  0.00  0.00    +0.000 A 
ENDROOT
BRANCH   1   7
ATOM      7  C   UNL     1       4.510  -5.428  -0.649  0.00  0.00    +0.000 C 
BRANCH   7  11
ATOM      8  C   UNL     1       3.805  -1.290   0.798  0.00  0.00    +0.000 C 
ATOM      9  C   UNL     1       2.830  -2.392   1.231  0.00  0.00    +0.000 C 
ATOM     10  C   UNL     1       2.935  -3.653   0.371  0.00  0.00    +0.000 C 
ATOM     11  C   UNL     1       4.364  -4.226   0.324  0.00  0.00    +0.000 C 
ATOM     12  C   UNL     1       5.368  -3.126  -0.077  0.00  0.00    +0.000 C 
ATOM     13  C   UNL     1       5.233  -1.858   0.768  0.00  0.00    +0.000 C 
BRANCH   8  14
ATOM     14  C   UNL     1       3.418  -0.627  -0.542  0.00  0.00    +0.000 C 
BRANCH  14  15
ATOM     15  N   UNL     1       2.100   0.007  -0.501  0.00  0.00    +0.000 NA
ATOM     16  H   UNL     1       1.389  -0.658  -0.805  0.00  0.00    +0.000 HD
ATOM     17  H   UNL     1       1.858   0.254   0.458  0.00  0.00    +0.000 HD
ENDBRANCH  14  15
ENDBRANCH   8  14
ENDBRANCH   7  11
ENDBRANCH   1   7
BRANCH   4  18
ATOM     18  C   UNL     1       0.888  -9.812   0.740  0.00  0.00    +0.000 C 
BRANCH  18  19
ATOM     19  N   UNL     1       0.954 -10.936  -0.152  0.00  0.00    +0.000 N 
ATOM     20  C   UNL     1       0.136 -12.032  -0.007  0.00  0.00    +0.000 C 
ATOM     21  O   UNL     1      -0.712 -12.107   0.876  0.00  0.00    +0.000 OA
ATOM     22  H   UNL     1       1.803 -11.031  -0.702  0.00  0.00    +0.000 HD
BRANCH  20  23
ATOM     23  C   UNL     1       0.294 -13.087  -1.017  0.00  0.00    +0.000 A 
ATOM     24  C   UNL     1      -0.773 -13.921  -1.325  0.00  0.00    +0.000 A 
ATOM     25  S   UNL     1      -0.421 -15.056  -2.551  0.00  0.00    +0.000 S 
ATOM     26  C   UNL     1       1.186 -14.511  -2.672  0.00  0.00    +0.000 A 
ATOM     27  N   UNL     1       2.061 -15.097  -3.533  0.00  0.00    +0.000 NA
ATOM     28  C   UNL     1       3.253 -14.599  -3.502  0.00  0.00    +0.000 A 
ATOM     29  N   UNL     1       3.644 -13.560  -2.698  0.00  0.00    +0.000 N 
ATOM     30  C   UNL     1       2.785 -12.910  -1.848  0.00  0.00    +0.000 A 
ATOM     31  O   UNL     1       3.152 -11.935  -1.192  0.00  0.00    +0.000 OA
ATOM     32  C   UNL     1       1.437 -13.454  -1.817  0.00  0.00    +0.000 A 
ATOM     33  H   UNL     1       4.587 -13.200  -2.739  0.00  0.00    +0.000 HD
ENDBRANCH  20  23
ENDBRANCH  18  19
ENDBRANCH   4  18
TORSDOF 7
