REMARK  Name = 
REMARK  9 active torsions:
REMARK  status: ('A' for Active; 'I' for Inactive)
REMARK    1  A    between atoms: C_2  and  C_21
REMARK    2  A    between atoms: N_3  and  C_4
REMARK    3  A    between atoms: C_4  and  C_5
REMARK    4  A    between atoms: C_8  and  C_9
REMARK    5  A    between atoms: C_9  and  N_10
REMARK    6  A    between atoms: N_10  and  CA_11
REMARK    7  A    between atoms: CA_11  and  C_12
REMARK    8  A    between atoms: CA_11  and  C_14
REMARK    9  A    between atoms: C_12  and  O_13
REMARK                            x       y       z     vdW  Elec       q    Type
REMARK                         _______ _______ _______ _____ _____    ______ ____
ROOT
ATOM      1  C   UNL     1      12.265  -6.459   4.228  0.00  0.00    +0.000 A 
ATOM      2  C   UNL     1      11.130  -6.998   4.846  0.00  0.00    +0.000 A 
ATOM      3  C   UNL     1      10.220  -6.168   5.503  0.00  0.00    +0.000 A 
ATOM      4  C   UNL     1      10.425  -4.782   5.539  0.00  0.00    +0.000 A 
ATOM      5  C   UNL     1      11.538  -4.241   4.884  0.00  0.00    +0.000 A 
ATOM      6  C   UNL     1      12.446  -5.070   4.228  0.00  0.00    +0.000 A 
ENDROOT
BRANCH   1   7
ATOM      7  C   UNL     1      13.265  -7.357   3.552  0.00  0.00    +0.000 C 
BRANCH   7  10
ATOM      8  O   UNL     1      11.914  -9.599   2.546  0.00  0.00    +0.000 OA
ATOM      9  C   UNL     1      12.203  -8.686   1.776  0.00  0.00    +0.000 C 
ATOM     10  N   UNL     1      12.914  -7.586   2.175  0.00  0.00    +0.000 N 
ATOM     11  H   UNL     1      12.985  -6.786   1.556  0.00  0.00    +0.000 HD
BRANCH   9  12
ATOM     12  C   UNL     1      11.836  -8.745   0.356  0.00  0.00    +0.000 A 
ATOM     13  C   UNL     1      11.566  -9.973  -0.232  0.00  0.00    +0.000 A 
ATOM     14  S   UNL     1      11.123  -9.863  -1.874  0.00  0.00    +0.000 S 
ATOM     15  C   UNL     1      11.238  -8.165  -1.845  0.00  0.00    +0.000 A 
ATOM     16  N   UNL     1      10.928  -7.427  -2.945  0.00  0.00    +0.000 NA
ATOM     17  C   UNL     1      11.022  -6.151  -2.773  0.00  0.00    +0.000 A 
ATOM     18  N   UNL     1      11.416  -5.546  -1.608  0.00  0.00    +0.000 N 
ATOM     19  C   UNL     1      11.823  -6.254  -0.503  0.00  0.00    +0.000 A 
ATOM     20  O   UNL     1      12.315  -5.687   0.467  0.00  0.00    +0.000 OA
ATOM     21  C   UNL     1      11.661  -7.692  -0.617  0.00  0.00    +0.000 A 
ATOM     22  H   UNL     1      11.512  -4.543  -1.552  0.00  0.00    +0.000 HD
ENDBRANCH   9  12
ENDBRANCH   7  10
ENDBRANCH   1   7
BRANCH   4  23
ATOM     23  C   UNL     1       9.424  -3.869   6.194  0.00  0.00    +0.000 C 
BRANCH  23  24
ATOM     24  N   UNL     1       9.229  -4.156   7.615  0.00  0.00    +0.000 NA
ATOM     25  H   UNL     1      10.140  -4.207   8.076  0.00  0.00    +0.000 HD
BRANCH  24  26
ATOM     26  CA  UNL     1       8.396  -3.111   8.270  0.00  0.00    +0.000 C 
BRANCH  26  27
ATOM     27  C   UNL     1       6.932  -3.185   7.750  0.00  0.00    +0.000 C 
ATOM     28  C   UNL     1       5.980  -2.118   8.261  0.00  0.00    +0.000 C 
ATOM     29  C   UNL     1       4.647  -2.662   7.778  0.00  0.00    +0.000 C 
ATOM     30  C   UNL     1       4.788  -4.169   7.950  0.00  0.00    +0.000 C 
ATOM     31  N   UNL     1       6.227  -4.445   8.060  0.00  0.00    +0.000 NA
ATOM     32  H   UNL     1       6.515  -5.159   7.386  0.00  0.00    +0.000 HD
ENDBRANCH  26  27
BRANCH  26  33
ATOM     33  C   UNL     1       8.528  -3.220   9.813  0.00  0.00    +0.000 C 
BRANCH  33  34
ATOM     34  O   UNL     1       8.067  -4.459  10.338  0.00  0.00    +0.000 OA
ATOM     35  H   UNL     1       7.434  -4.814   9.678  0.00  0.00    +0.000 HD
ENDBRANCH  33  34
ENDBRANCH  26  33
ENDBRANCH  24  26
ENDBRANCH  23  24
ENDBRANCH   4  23
TORSDOF 9
