REMARK  Name = 
REMARK  9 active torsions:
REMARK  status: ('A' for Active; 'I' for Inactive)
REMARK    1  A    between atoms: C_1  and  O_2
REMARK    2  A    between atoms: O_2  and  C_3
REMARK    3  A    between atoms: C_10  and  C_11
REMARK    4  A    between atoms: N_13  and  C_14
REMARK    5  A    between atoms: C_14  and  C_15
REMARK    6  A    between atoms: C_18  and  N_19
REMARK    7  A    between atoms: N_19  and  C_20
REMARK    8  A    between atoms: C_20  and  C_21
REMARK    9  A    between atoms: C_21  and  C_22
REMARK                            x       y       z     vdW  Elec       q    Type
REMARK                         _______ _______ _______ _____ _____    ______ ____
ROOT
ATOM      1  C   UNL     1       1.661   3.288   0.961  0.00  0.00    +0.000 A 
ATOM      2  C   UNL     1       0.673   2.339   0.679  0.00  0.00    +0.000 A 
ATOM      3  C   UNL     1      -0.465   2.690  -0.052  0.00  0.00    +0.000 A 
ATOM      4  C   UNL     1      -0.662   4.003  -0.491  0.00  0.00    +0.000 A 
ATOM      5  C   UNL     1       0.355   4.935  -0.256  0.00  0.00    +0.000 A 
ATOM      6  C   UNL     1       1.499   4.590   0.473  0.00  0.00    +0.000 A 
ENDROOT
BRANCH   4   7
ATOM      7  N   UNL     1      -1.776   4.416  -1.239  0.00  0.00    +0.000 N 
ATOM      8  H   UNL     1      -1.534   4.382  -2.229  0.00  0.00    +0.000 HD
BRANCH   7   9
ATOM      9  C   UNL     1      -3.061   3.746  -0.991  0.00  0.00    +0.000 C 
BRANCH   9  10
ATOM     10  C   UNL     1      -3.552   3.992   0.444  0.00  0.00    +0.000 C 
BRANCH  10  11
ATOM     11  C   UNL     1      -4.841   3.272   0.745  0.00  0.00    +0.000 A 
ATOM     12  C   UNL     1      -6.075   3.907   0.546  0.00  0.00    +0.000 A 
ATOM     13  C   UNL     1      -7.269   3.239   0.829  0.00  0.00    +0.000 A 
ATOM     14  C   UNL     1      -7.240   1.930   1.308  0.00  0.00    +0.000 A 
ATOM     15  C   UNL     1      -6.017   1.301   1.503  0.00  0.00    +0.000 A 
ATOM     16  F   UNL     1      -5.987   0.045   1.967  0.00  0.00    +0.000 F 
ATOM     17  C   UNL     1      -4.821   1.956   1.226  0.00  0.00    +0.000 A 
ENDBRANCH  10  11
ENDBRANCH   9  10
ENDBRANCH   7   9
ENDBRANCH   4   7
BRANCH   1  18
ATOM     18  C   UNL     1       2.888   2.895   1.736  0.00  0.00    +0.000 C 
BRANCH  18  21
ATOM     19  C   UNL     1       5.083   1.872   1.382  0.00  0.00    +0.000 C 
ATOM     20  O   UNL     1       5.303   1.908   2.593  0.00  0.00    +0.000 OA
ATOM     21  N   UNL     1       3.906   2.350   0.871  0.00  0.00    +0.000 N 
ATOM     22  H   UNL     1       3.720   2.306  -0.123  0.00  0.00    +0.000 HD
BRANCH  19  30
ATOM     23  C   UNL     1       5.158   1.419  -2.039  0.00  0.00    +0.000 A 
ATOM     24  N   UNL     1       5.442   1.100  -3.318  0.00  0.00    +0.000 NA
ATOM     25  C   UNL     1       6.620   0.528  -3.580  0.00  0.00    +0.000 A 
ATOM     26  N   UNL     1       7.574   0.229  -2.702  0.00  0.00    +0.000 NA
ATOM     27  C   UNL     1       7.247   0.549  -1.440  0.00  0.00    +0.000 A 
ATOM     28  S   UNL     1       8.350   0.241  -0.190  0.00  0.00    +0.000 S 
ATOM     29  C   UNL     1       7.281   0.862   0.972  0.00  0.00    +0.000 A 
ATOM     30  C   UNL     1       6.076   1.317   0.447  0.00  0.00    +0.000 A 
ATOM     31  C   UNL     1       6.062   1.137  -1.000  0.00  0.00    +0.000 A 
BRANCH  23  33
ATOM     32  C   UNL     1       3.431   2.731  -2.896  0.00  0.00    +0.000 C 
ATOM     33  O   UNL     1       3.940   2.012  -1.774  0.00  0.00    +0.000 OA
ENDBRANCH  23  33
ENDBRANCH  19  30
ENDBRANCH  18  21
ENDBRANCH   1  18
TORSDOF 8
