REMARK  Name = 
REMARK  5 active torsions:
REMARK  status: ('A' for Active; 'I' for Inactive)
REMARK    1  A    between atoms: C_1  and  C_2
REMARK    2  A    between atoms: C_2  and  C_3
REMARK    3  A    between atoms: C_2  and  C_14
REMARK    4  A    between atoms: C_3  and  N_4
REMARK    5  A    between atoms: C_8  and  C_9
REMARK                            x       y       z     vdW  Elec       q    Type
REMARK                         _______ _______ _______ _____ _____    ______ ____
ROOT
ATOM      1  N   UNL     1       2.833   0.719  -2.394  0.00  0.00    +0.000 N 
ATOM      2  C   UNL     1       3.445   1.473  -3.397  0.00  0.00    +0.000 A 
ATOM      3  C   UNL     1       4.602   2.245  -3.206  0.00  0.00    +0.000 A 
ATOM      4  N   UNL     1       5.244   2.940  -4.182  0.00  0.00    +0.000 NA
ATOM      5  C   UNL     1       4.691   2.807  -5.414  0.00  0.00    +0.000 A 
ATOM      6  C   UNL     1       3.549   2.049  -5.629  0.00  0.00    +0.000 A 
ATOM      7  N   UNL     1       2.904   1.379  -4.629  0.00  0.00    +0.000 NA
ATOM      8  H   UNL     1       1.913   0.452  -2.735  0.00  0.00    +0.000 HD
ENDROOT
BRANCH   5   9
ATOM      9  C   UNL     1       5.358   3.502  -6.548  0.00  0.00    +0.000 C 
ATOM     10  N   UNL     1       6.495   4.221  -6.258  0.00  0.00    +0.000 N 
ATOM     11  O   UNL     1       4.925   3.435  -7.692  0.00  0.00    +0.000 OA
ATOM     12  H   UNL     1       6.853   4.268  -5.315  0.00  0.00    +0.000 HD
ATOM     13  H   UNL     1       6.981   4.684  -7.008  0.00  0.00    +0.000 HD
ENDBRANCH   5   9
BRANCH   1  14
ATOM     14  C   UNL     1       2.928   1.199  -1.037  0.00  0.00    +0.000 C 
BRANCH  14  16
ATOM     15  C   UNL     1       0.795  -0.021  -0.244  0.00  0.00    +0.000 C 
ATOM     16  C   UNL     1       2.261   0.264  -0.064  0.00  0.00    +0.000 C 
BRANCH  16  17
ATOM     17  C   UNL     1       2.808   0.323   1.367  0.00  0.00    +0.000 C 
ATOM     18  C   UNL     1       2.613  -0.981   2.167  0.00  0.00    +0.000 C 
ATOM     19  C   UNL     1       3.034  -0.838   3.631  0.00  0.00    +0.000 C 
ATOM     20  C   UNL     1       2.327   0.337   4.297  0.00  0.00    +0.000 C 
ATOM     21  C   UNL     1       2.631   1.633   3.559  0.00  0.00    +0.000 C 
ATOM     22  C   UNL     1       2.216   1.544   2.097  0.00  0.00    +0.000 C 
ENDBRANCH  16  17
ENDBRANCH  14  16
ENDBRANCH   1  14
TORSDOF 4
