REMARK  Name = 
REMARK  10 active torsions:
REMARK  status: ('A' for Active; 'I' for Inactive)
REMARK    1  A    between atoms: C_1  and  C_2
REMARK    2  A    between atoms: C_2  and  C_3
REMARK    3  A    between atoms: C_5  and  O_6
REMARK    4  A    between atoms: O_6  and  C_7
REMARK    5  A    between atoms: C_12  and  C_13
REMARK    6  A    between atoms: C_13  and  C_16
REMARK    7  A    between atoms: C_16  and  N_17
REMARK    8  A    between atoms: N_17  and  C_18
REMARK    9  A    between atoms: C_21  and  S_22
REMARK   10  A    between atoms: S_22  and  C_23
REMARK                            x       y       z     vdW  Elec       q    Type
REMARK                         _______ _______ _______ _____ _____    ______ ____
ROOT
ATOM      1  C   UNL     1      -7.606   0.144   0.855  0.00  0.00    +0.000 C 
ATOM      2  F   UNL     1      -8.095  -1.055   1.296  0.00  0.00    +0.000 F 
ATOM      3  F   UNL     1      -8.455   1.086   1.376  0.00  0.00    +0.000 F 
ENDROOT
BRANCH   1   9
ATOM      4  C   UNL     1      -3.797   0.760   1.038  0.00  0.00    +0.000 A 
ATOM      5  C   UNL     1      -3.591   0.726   2.411  0.00  0.00    +0.000 A 
ATOM      6  C   UNL     1      -4.678   0.526   3.251  0.00  0.00    +0.000 A 
ATOM      7  F   UNL     1      -4.488   0.512   4.576  0.00  0.00    +0.000 F 
ATOM      8  C   UNL     1      -5.961   0.348   2.742  0.00  0.00    +0.000 A 
ATOM      9  C   UNL     1      -6.184   0.357   1.356  0.00  0.00    +0.000 A 
ATOM     10  C   UNL     1      -5.077   0.558   0.513  0.00  0.00    +0.000 A 
BRANCH   4  11
ATOM     11  O   UNL     1      -2.802   0.982   0.119  0.00  0.00    +0.000 OA
BRANCH  11  16
ATOM     12  C   UNL     1       0.307   4.132   0.902  0.00  0.00    +0.000 C 
ATOM     13  C   UNL     1      -0.942   3.850   0.068  0.00  0.00    +0.000 C 
ATOM     14  C   UNL     1      -1.303   5.030  -0.829  0.00  0.00    +0.000 C 
ATOM     15  C   UNL     1      -2.135   3.319   0.901  0.00  0.00    +0.000 C 
ATOM     16  C   UNL     1      -1.732   1.874   0.508  0.00  0.00    +0.000 C 
ATOM     17  C   UNL     1      -0.927   2.481  -0.666  0.00  0.00    +0.000 C 
ENDBRANCH  11  16
ENDBRANCH   4  11
ENDBRANCH   1   9
BRANCH   1  18
ATOM     18  C   UNL     1      -7.753   0.189  -0.687  0.00  0.00    +0.000 C 
BRANCH  18  19
ATOM     19  N   UNL     1      -9.137   0.008  -1.176  0.00  0.00    +0.000 N 
ATOM     20  H   UNL     1      -9.808   0.561  -0.641  0.00  0.00    +0.000 HD
BRANCH  19  21
ATOM     21  C   UNL     1      -9.342   0.070  -2.560  0.00  0.00    +0.000 A 
ATOM     22  C   UNL     1      -8.372  -0.314  -3.494  0.00  0.00    +0.000 A 
ATOM     23  C   UNL     1      -8.649  -0.311  -4.859  0.00  0.00    +0.000 A 
ATOM     24  C   UNL     1      -9.921   0.064  -5.246  0.00  0.00    +0.000 A 
ATOM     25  N   UNL     1     -10.922   0.417  -4.402  0.00  0.00    +0.000 NA
ATOM     26  C   UNL     1     -10.603   0.387  -3.085  0.00  0.00    +0.000 A 
BRANCH  24  27
ATOM     27  S   UNL     1     -10.331   0.071  -6.973  0.00  0.00    +0.000 S 
ATOM     28  C   UNL     1     -12.019   0.598  -7.053  0.00  0.00    +0.000 C 
ATOM     29  O   UNL     1      -9.513   1.095  -7.601  0.00  0.00    +0.000 OA
ATOM     30  O   UNL     1     -10.271  -1.307  -7.431  0.00  0.00    +0.000 OA
ENDBRANCH  24  27
ENDBRANCH  19  21
ENDBRANCH  18  19
ENDBRANCH   1  18
TORSDOF 7
