REMARK  Name = 
REMARK  2 active torsions:
REMARK  status: ('A' for Active; 'I' for Inactive)
REMARK    1  A    between atoms: C_7  and  C_8
REMARK    2  A    between atoms: C_8  and  N_9
REMARK                            x       y       z     vdW  Elec       q    Type
REMARK                         _______ _______ _______ _____ _____    ______ ____
ROOT
ATOM      1  N   UNL     1       1.028   0.369   0.182  0.00  0.00    +0.000 NA
ATOM      2  C   UNL     1       2.289   0.132   0.230  0.00  0.00    +0.000 C 
ATOM      3  N   UNL     1       2.781  -1.078   0.577  0.00  0.00    +0.000 N 
ATOM      4  N   UNL     1       3.268   1.058   0.017  0.00  0.00    +0.000 N 
ATOM      5  C   UNL     1       4.315   0.784  -0.974  0.00  0.00    +0.000 C 
ATOM      6  C   UNL     1       5.608   1.410  -0.470  0.00  0.00    +0.000 C 
ATOM      7  C   UNL     1       5.464   2.932  -0.291  0.00  0.00    +0.000 C 
ATOM      8  C   UNL     1       4.228   3.232   0.588  0.00  0.00    +0.000 C 
ATOM      9  C   UNL     1       2.960   2.486   0.148  0.00  0.00    +0.000 C 
ATOM     10  H   UNL     1       0.520  -0.497   0.365  0.00  0.00    +0.000 HD
ATOM     11  H   UNL     1       2.134  -1.673   1.075  0.00  0.00    +0.000 HD
ATOM     12  H   UNL     1       3.651  -0.985   1.083  0.00  0.00    +0.000 HD
ENDROOT
BRANCH   7  13
ATOM     13  C   UNL     1       5.406   3.703  -1.630  0.00  0.00    +0.000 C 
BRANCH  13  14
ATOM     14  N   UNL     1       6.573   3.498  -2.482  0.00  0.00    +0.000 N 
ATOM     15  C   UNL     1       7.852   3.836  -2.114  0.00  0.00    +0.000 A 
ATOM     16  C   UNL     1       8.709   3.414  -3.101  0.00  0.00    +0.000 A 
ATOM     17  C   UNL     1       7.927   2.830  -4.131  0.00  0.00    +0.000 A 
ATOM     18  C   UNL     1       8.249   2.229  -5.364  0.00  0.00    +0.000 A 
ATOM     19  C   UNL     1       7.218   1.773  -6.180  0.00  0.00    +0.000 A 
ATOM     20  F   UNL     1       7.519   1.189  -7.348  0.00  0.00    +0.000 F 
ATOM     21  C   UNL     1       5.887   1.916  -5.815  0.00  0.00    +0.000 A 
ATOM     22  C   UNL     1       5.543   2.501  -4.591  0.00  0.00    +0.000 A 
ATOM     23  C   UNL     1       6.582   2.936  -3.748  0.00  0.00    +0.000 A 
ENDBRANCH  13  14
ENDBRANCH   7  13
TORSDOF 2
