REMARK  Name = 
REMARK  7 active torsions:
REMARK  status: ('A' for Active; 'I' for Inactive)
REMARK    1  A    between atoms: C_2  and  C_4
REMARK    2  A    between atoms: C_7  and  N_8
REMARK    3  A    between atoms: N_8  and  C_9
REMARK    4  A    between atoms: C_9  and  C_10
REMARK    5  A    between atoms: C_10  and  C_13
REMARK    6  A    between atoms: C_15  and  C_16
REMARK    7  A    between atoms: C_20  and  C_21
REMARK                            x       y       z     vdW  Elec       q    Type
REMARK                         _______ _______ _______ _____ _____    ______ ____
ROOT
ATOM      1  C   UNL     1       6.118  -6.670  -2.744  0.00  0.00    +0.000 C 
ATOM      2  F   UNL     1       7.418  -6.257  -2.841  0.00  0.00    +0.000 F 
ATOM      3  F   UNL     1       6.047  -7.326  -1.538  0.00  0.00    +0.000 F 
ENDROOT
BRANCH   1   4
ATOM      4  C   UNL     1       5.730  -7.572  -3.909  0.00  0.00    +0.000 A 
ATOM      5  C   UNL     1       5.960  -8.943  -3.801  0.00  0.00    +0.000 A 
ATOM      6  C   UNL     1       5.688  -9.797  -4.880  0.00  0.00    +0.000 A 
ATOM      7  C   UNL     1       5.190  -9.205  -6.047  0.00  0.00    +0.000 A 
ATOM      8  C   UNL     1       4.972  -7.837  -6.078  0.00  0.00    +0.000 A 
ATOM      9  N   UNL     1       5.226  -7.016  -5.042  0.00  0.00    +0.000 NA
BRANCH   6  10
ATOM     10  C   UNL     1       5.902 -11.259  -4.774  0.00  0.00    +0.000 A 
ATOM     11  C   UNL     1       6.932 -11.793  -3.977  0.00  0.00    +0.000 A 
ATOM     12  C   UNL     1       7.114 -13.172  -3.847  0.00  0.00    +0.000 A 
ATOM     13  C   UNL     1       6.263 -14.050  -4.510  0.00  0.00    +0.000 A 
ATOM     14  C   UNL     1       5.225 -13.553  -5.301  0.00  0.00    +0.000 A 
ATOM     15  C   UNL     1       5.063 -12.168  -5.446  0.00  0.00    +0.000 A 
BRANCH  14  16
ATOM     16  C   UNL     1       4.314 -14.525  -5.962  0.00  0.00    +0.000 C 
ATOM     17  N   UNL     1       3.050 -14.100  -6.269  0.00  0.00    +0.000 N 
ATOM     18  O   UNL     1       4.657 -15.677  -6.178  0.00  0.00    +0.000 OA
ATOM     19  H   UNL     1       2.652 -13.243  -5.917  0.00  0.00    +0.000 HD
ATOM     20  H   UNL     1       2.411 -14.816  -6.590  0.00  0.00    +0.000 HD
ENDBRANCH  14  16
ENDBRANCH   6  10
ENDBRANCH   1   4
BRANCH   1  21
ATOM     21  C   UNL     1       5.193  -5.438  -2.656  0.00  0.00    +0.000 C 
BRANCH  21  22
ATOM     22  N   UNL     1       5.509  -4.565  -1.510  0.00  0.00    +0.000 N 
ATOM     23  H   UNL     1       5.834  -5.050  -0.675  0.00  0.00    +0.000 HD
BRANCH  22  27
ATOM     24  C   UNL     1       3.505  -0.932  -0.788  0.00  0.00    +0.000 A 
ATOM     25  C   UNL     1       3.084  -1.751  -1.839  0.00  0.00    +0.000 A 
ATOM     26  C   UNL     1       3.729  -2.969  -2.077  0.00  0.00    +0.000 A 
ATOM     27  C   UNL     1       4.777  -3.410  -1.260  0.00  0.00    +0.000 A 
ATOM     28  C   UNL     1       5.197  -2.568  -0.223  0.00  0.00    +0.000 A 
ATOM     29  C   UNL     1       4.575  -1.338   0.012  0.00  0.00    +0.000 A 
BRANCH  24  31
ATOM     30  N   UNL     1       1.554   0.516  -0.871  0.00  0.00    +0.000 N 
ATOM     31  C   UNL     1       2.871   0.383  -0.526  0.00  0.00    +0.000 C 
ATOM     32  O   UNL     1       3.481   1.300   0.008  0.00  0.00    +0.000 OA
ATOM     33  H   UNL     1       1.104   1.378  -0.589  0.00  0.00    +0.000 HD
ATOM     34  H   UNL     1       0.966  -0.281  -1.066  0.00  0.00    +0.000 HD
ENDBRANCH  24  31
ENDBRANCH  22  27
ENDBRANCH  21  22
ENDBRANCH   1  21
TORSDOF 7
