REMARK  Name = 
REMARK  4 active torsions:
REMARK  status: ('A' for Active; 'I' for Inactive)
REMARK    1  A    between atoms: C_2  and  C_4
REMARK    2  A    between atoms: N_8  and  C_9
REMARK    3  A    between atoms: C_9  and  C_10
REMARK    4  A    between atoms: C_14  and  C_15
REMARK                            x       y       z     vdW  Elec       q    Type
REMARK                         _______ _______ _______ _____ _____    ______ ____
ROOT
ATOM      1  C   UNL     1       4.620   4.629   2.180  0.00  0.00    +0.000 A 
ATOM      2  C   UNL     1       4.301   5.101   0.931  0.00  0.00    +0.000 A 
ATOM      3  N   UNL     1       5.040   4.865  -0.176  0.00  0.00    +0.000 NA
ATOM      4  C   UNL     1       6.154   4.132  -0.030  0.00  0.00    +0.000 A 
ATOM      5  N   UNL     1       6.940   3.862  -1.113  0.00  0.00    +0.000 N 
ATOM      6  N   UNL     1       6.553   3.623   1.142  0.00  0.00    +0.000 NA
ATOM      7  C   UNL     1       5.776   3.881   2.224  0.00  0.00    +0.000 A 
ATOM      8  H   UNL     1       7.769   3.325  -0.922  0.00  0.00    +0.000 HD
ENDROOT
BRANCH   1  10
ATOM      9  N   UNL     1       2.686   5.613   3.310  0.00  0.00    +0.000 N 
ATOM     10  C   UNL     1       3.831   4.869   3.398  0.00  0.00    +0.000 C 
ATOM     11  O   UNL     1       4.187   4.407   4.476  0.00  0.00    +0.000 OA
ATOM     12  H   UNL     1       2.176   5.766   4.173  0.00  0.00    +0.000 HD
ATOM     13  H   UNL     1       2.309   6.037   2.476  0.00  0.00    +0.000 HD
ENDBRANCH   1  10
BRANCH   5  14
ATOM     14  C   UNL     1       6.612   4.303  -2.440  0.00  0.00    +0.000 C 
BRANCH  14  15
ATOM     15  C   UNL     1       7.214   5.655  -2.734  0.00  0.00    +0.000 A 
ATOM     16  C   UNL     1       8.481   5.790  -3.296  0.00  0.00    +0.000 A 
ATOM     17  C   UNL     1       8.960   7.068  -3.540  0.00  0.00    +0.000 A 
ATOM     18  N   UNL     1       8.284   8.202  -3.246  0.00  0.00    +0.000 NA
ATOM     19  C   UNL     1       7.067   8.075  -2.661  0.00  0.00    +0.000 A 
ATOM     20  C   UNL     1       6.505   6.820  -2.420  0.00  0.00    +0.000 A 
BRANCH  19  21
ATOM     21  C   UNL     1       6.380   9.323  -2.290  0.00  0.00    +0.000 A 
ATOM     22  C   UNL     1       6.520  10.507  -3.027  0.00  0.00    +0.000 A 
ATOM     23  C   UNL     1       5.828  11.660  -2.654  0.00  0.00    +0.000 A 
ATOM     24  C   UNL     1       5.008  11.605  -1.540  0.00  0.00    +0.000 A 
ATOM     25  N   UNL     1       4.849  10.500  -0.784  0.00  0.00    +0.000 NA
ATOM     26  C   UNL     1       5.544   9.402  -1.173  0.00  0.00    +0.000 A 
ENDBRANCH  19  21
ENDBRANCH  14  15
ENDBRANCH   5  14
TORSDOF 4
