REMARK  Name = 
REMARK  4 active torsions:
REMARK  status: ('A' for Active; 'I' for Inactive)
REMARK    1  A    between atoms: C_2  and  C_4
REMARK    2  A    between atoms: N_8  and  C_9
REMARK    3  A    between atoms: C_9  and  C_10
REMARK    4  A    between atoms: C_14  and  C_15
REMARK                            x       y       z     vdW  Elec       q    Type
REMARK                         _______ _______ _______ _____ _____    ______ ____
ROOT
ATOM      1  C   UNL     1       4.978  -0.175  -5.949  0.00  0.00    +0.000 C 
ATOM      2  C   UNL     1       5.042   1.319  -6.265  0.00  0.00    +0.000 C 
ATOM      3  C   UNL     1       3.748   0.595  -6.397  0.00  0.00    +0.000 C 
ENDROOT
BRANCH   1   8
ATOM      4  C   UNL     1       3.182  -3.035  -1.980  0.00  0.00    +0.000 A 
ATOM      5  C   UNL     1       2.469  -2.365  -2.969  0.00  0.00    +0.000 A 
ATOM      6  C   UNL     1       3.151  -1.536  -3.862  0.00  0.00    +0.000 A 
ATOM      7  C   UNL     1       4.527  -1.382  -3.752  0.00  0.00    +0.000 A 
ATOM      8  N   UNL     1       5.270  -0.510  -4.546  0.00  0.00    +0.000 N 
ATOM      9  N   UNL     1       5.224  -2.017  -2.785  0.00  0.00    +0.000 NA
ATOM     10  C   UNL     1       4.549  -2.822  -1.921  0.00  0.00    +0.000 A 
ATOM     11  H   UNL     1       6.248  -0.653  -4.300  0.00  0.00    +0.000 HD
BRANCH   4  13
ATOM     12  N   UNL     1       1.347  -4.492  -1.337  0.00  0.00    +0.000 N 
ATOM     13  C   UNL     1       2.539  -3.920  -0.986  0.00  0.00    +0.000 C 
ATOM     14  O   UNL     1       3.062  -4.156   0.094  0.00  0.00    +0.000 OA
ATOM     15  H   UNL     1       0.957  -5.160  -0.684  0.00  0.00    +0.000 HD
ATOM     16  H   UNL     1       1.005  -4.513  -2.287  0.00  0.00    +0.000 HD
ENDBRANCH   4  13
ENDBRANCH   1   8
BRANCH   1  17
ATOM     17  C   UNL     1       5.584  -1.139  -6.969  0.00  0.00    +0.000 A 
ATOM     18  C   UNL     1       4.897  -2.283  -7.396  0.00  0.00    +0.000 A 
ATOM     19  C   UNL     1       5.412  -3.101  -8.401  0.00  0.00    +0.000 A 
ATOM     20  C   UNL     1       6.629  -2.783  -9.007  0.00  0.00    +0.000 A 
ATOM     21  C   UNL     1       7.362  -1.651  -8.619  0.00  0.00    +0.000 A 
ATOM     22  C   UNL     1       6.829  -0.870  -7.574  0.00  0.00    +0.000 A 
BRANCH  21  23
ATOM     23  C   UNL     1       8.599  -1.236  -9.321  0.00  0.00    +0.000 A 
ATOM     24  C   UNL     1       8.745  -1.415 -10.704  0.00  0.00    +0.000 A 
ATOM     25  C   UNL     1       9.888  -0.949 -11.338  0.00  0.00    +0.000 A 
ATOM     26  N   UNL     1      10.893  -0.315 -10.703  0.00  0.00    +0.000 NA
ATOM     27  C   UNL     1      10.751  -0.150  -9.374  0.00  0.00    +0.000 A 
ATOM     28  C   UNL     1       9.650  -0.591  -8.653  0.00  0.00    +0.000 A 
ENDBRANCH  21  23
ENDBRANCH   1  17
TORSDOF 4
