REMARK  Name = 
REMARK  4 active torsions:
REMARK  status: ('A' for Active; 'I' for Inactive)
REMARK    1  A    between atoms: C_2  and  C_3
REMARK    2  A    between atoms: N_7  and  C_8
REMARK    3  A    between atoms: C_8  and  C_9
REMARK    4  A    between atoms: C_13  and  C_14
REMARK                            x       y       z     vdW  Elec       q    Type
REMARK                         _______ _______ _______ _____ _____    ______ ____
ROOT
ATOM      1  C   UNL     1      -4.462   1.150  -0.208  0.00  0.00    +0.000 C 
ATOM      2  C   UNL     1      -4.481   2.293  -1.209  0.00  0.00    +0.000 C 
ATOM      3  C   UNL     1      -4.389   2.615   0.244  0.00  0.00    +0.000 C 
ENDROOT
BRANCH   1   8
ATOM      4  C   UNL     1      -0.396  -1.203  -2.558  0.00  0.00    +0.000 A 
ATOM      5  C   UNL     1      -1.584  -0.737  -3.118  0.00  0.00    +0.000 A 
ATOM      6  C   UNL     1      -2.586  -0.216  -2.288  0.00  0.00    +0.000 A 
ATOM      7  C   UNL     1      -2.367  -0.159  -0.916  0.00  0.00    +0.000 A 
ATOM      8  N   UNL     1      -3.269   0.335   0.017  0.00  0.00    +0.000 N 
ATOM      9  N   UNL     1      -1.217  -0.611  -0.365  0.00  0.00    +0.000 NA
ATOM     10  C   UNL     1      -0.265  -1.117  -1.185  0.00  0.00    +0.000 A 
ATOM     11  H   UNL     1      -2.852   0.272   0.938  0.00  0.00    +0.000 HD
BRANCH   4  13
ATOM     12  N   UNL     1       1.528  -2.193  -3.983  0.00  0.00    +0.000 NA
ATOM     13  C   UNL     1       0.658  -1.748  -3.349  0.00  0.00    +0.000 C 
ENDBRANCH   4  13
ENDBRANCH   1   8
BRANCH   1  14
ATOM     14  C   UNL     1      -5.782   0.494   0.215  0.00  0.00    +0.000 A 
ATOM     15  C   UNL     1      -6.030   0.271   1.566  0.00  0.00    +0.000 A 
ATOM     16  C   UNL     1      -7.328   0.018   1.940  0.00  0.00    +0.000 A 
ATOM     17  N   UNL     1      -8.340  -0.068   1.065  0.00  0.00    +0.000 NA
ATOM     18  C   UNL     1      -7.991   0.071  -0.237  0.00  0.00    +0.000 A 
ATOM     19  N   UNL     1      -6.758   0.342  -0.703  0.00  0.00    +0.000 NA
BRANCH  18  20
ATOM     20  C   UNL     1      -9.116   0.055  -1.240  0.00  0.00    +0.000 C 
ATOM     21  N   UNL     1     -10.387   0.050  -0.708  0.00  0.00    +0.000 N 
ATOM     22  O   UNL     1      -8.952   0.075  -2.455  0.00  0.00    +0.000 OA
ATOM     23  H   UNL     1     -10.514   0.092   0.296  0.00  0.00    +0.000 HD
ATOM     24  H   UNL     1     -11.175   0.104  -1.333  0.00  0.00    +0.000 HD
ENDBRANCH  18  20
ENDBRANCH   1  14
TORSDOF 4
