REMARK  Name = 
REMARK  6 active torsions:
REMARK  status: ('A' for Active; 'I' for Inactive)
REMARK    1  A    between atoms: C_2  and  C_25
REMARK    2  A    between atoms: N_3  and  C_4
REMARK    3  A    between atoms: C_4  and  C_5
REMARK    4  A    between atoms: C_8  and  C_9
REMARK    5  A    between atoms: C_9  and  N_10
REMARK    6  A    between atoms: C_11  and  C_13
REMARK                            x       y       z     vdW  Elec       q    Type
REMARK                         _______ _______ _______ _____ _____    ______ ____
ROOT
ATOM      1  C   UNL     1       3.255   2.296  -2.821  0.00  0.00    +0.000 A 
ATOM      2  C   UNL     1       3.145   3.681  -2.920  0.00  0.00    +0.000 A 
ATOM      3  C   UNL     1       3.956   4.373  -3.823  0.00  0.00    +0.000 A 
ATOM      4  C   UNL     1       4.885   3.680  -4.601  0.00  0.00    +0.000 A 
ATOM      5  C   UNL     1       4.934   2.300  -4.428  0.00  0.00    +0.000 A 
ATOM      6  N   UNL     1       4.152   1.597  -3.565  0.00  0.00    +0.000 NA
ENDROOT
BRANCH   1   7
ATOM      7  C   UNL     1       2.326   1.528  -1.900  0.00  0.00    +0.000 C 
BRANCH   7  10
ATOM      8  O   UNL     1       1.880   3.369   0.198  0.00  0.00    +0.000 OA
ATOM      9  C   UNL     1       2.535   2.353   0.420  0.00  0.00    +0.000 C 
ATOM     10  N   UNL     1       2.808   1.405  -0.540  0.00  0.00    +0.000 N 
ATOM     11  H   UNL     1       3.358   0.595  -0.263  0.00  0.00    +0.000 HD
BRANCH   9  12
ATOM     12  C   UNL     1       3.072   2.069   1.790  0.00  0.00    +0.000 A 
ATOM     13  C   UNL     1       2.788   2.954   2.826  0.00  0.00    +0.000 A 
ATOM     14  C   UNL     1       3.277   2.666   4.095  0.00  0.00    +0.000 A 
ATOM     15  C   UNL     1       4.037   1.516   4.283  0.00  0.00    +0.000 A 
ATOM     16  C   UNL     1       4.276   0.694   3.191  0.00  0.00    +0.000 A 
ATOM     17  N   UNL     1       3.807   0.932   1.945  0.00  0.00    +0.000 NA
ENDBRANCH   9  12
ENDBRANCH   7  10
ENDBRANCH   1   7
BRANCH   4  18
ATOM     18  C   UNL     1       5.786   4.383  -5.582  0.00  0.00    +0.000 C 
BRANCH  18  19
ATOM     19  N   UNL     1       5.200   4.472  -6.900  0.00  0.00    +0.000 N 
ATOM     20  C   UNL     1       5.869   5.037  -7.962  0.00  0.00    +0.000 C 
ATOM     21  O   UNL     1       7.016   5.457  -7.867  0.00  0.00    +0.000 OA
ATOM     22  H   UNL     1       4.192   4.386  -6.956  0.00  0.00    +0.000 HD
BRANCH  20  23
ATOM     23  C   UNL     1       5.142   5.057  -9.244  0.00  0.00    +0.000 A 
ATOM     24  C   UNL     1       5.840   5.052 -10.446  0.00  0.00    +0.000 A 
ATOM     25  S   UNL     1       4.828   5.052 -11.823  0.00  0.00    +0.000 S 
ATOM     26  C   UNL     1       3.423   5.098 -10.861  0.00  0.00    +0.000 A 
ATOM     27  N   UNL     1       2.184   5.138 -11.423  0.00  0.00    +0.000 NA
ATOM     28  C   UNL     1       1.214   5.174 -10.572  0.00  0.00    +0.000 A 
ATOM     29  N   UNL     1       1.367   5.169  -9.212  0.00  0.00    +0.000 N 
ATOM     30  C   UNL     1       2.597   5.110  -8.600  0.00  0.00    +0.000 A 
ATOM     31  O   UNL     1       2.697   5.061  -7.380  0.00  0.00    +0.000 OA
ATOM     32  C   UNL     1       3.724   5.083  -9.511  0.00  0.00    +0.000 A 
ATOM     33  H   UNL     1       0.568   5.176  -8.595  0.00  0.00    +0.000 HD
ENDBRANCH  20  23
ENDBRANCH  18  19
ENDBRANCH   4  18
TORSDOF 6
