REMARK  Name = 
REMARK  7 active torsions:
REMARK  status: ('A' for Active; 'I' for Inactive)
REMARK    1  A    between atoms: C_1  and  C_2
REMARK    2  A    between atoms: C_2  and  N_3
REMARK    3  A    between atoms: C_2  and  C_18
REMARK    4  A    between atoms: C_7  and  C_8
REMARK    5  A    between atoms: C_8  and  N_9
REMARK    6  A    between atoms: N_9  and  C_10
REMARK    7  A    between atoms: C_13  and  N_14
REMARK                            x       y       z     vdW  Elec       q    Type
REMARK                         _______ _______ _______ _____ _____    ______ ____
ROOT
ATOM      1  N   UNL     1      -4.440   5.414   8.892  0.00  0.00    +0.000 N 
ATOM      2  C   UNL     1      -3.180   5.912   8.669  0.00  0.00    +0.000 A 
ATOM      3  N   UNL     1      -2.207   5.002   8.559  0.00  0.00    +0.000 NA
ATOM      4  C   UNL     1      -1.059   5.417   8.003  0.00  0.00    +0.000 A 
ATOM      5  C   UNL     1      -0.838   6.710   7.577  0.00  0.00    +0.000 A 
ATOM      6  C   UNL     1      -1.828   7.603   7.912  0.00  0.00    +0.000 A 
ATOM      7  N   UNL     1      -3.000   7.226   8.447  0.00  0.00    +0.000 NA
ATOM      8  H   UNL     1      -4.416   4.479   9.283  0.00  0.00    +0.000 HD
ENDROOT
BRANCH   1  10
ATOM      9  C   UNL     1      -5.366   6.451  10.897  0.00  0.00    +0.000 C 
ATOM     10  C   UNL     1      -5.464   6.311   9.366  0.00  0.00    +0.000 C 
BRANCH  10  11
ATOM     11  C   UNL     1      -6.872   5.918   8.965  0.00  0.00    +0.000 A 
ATOM     12  C   UNL     1      -7.685   6.648   8.112  0.00  0.00    +0.000 A 
ATOM     13  S   UNL     1      -9.325   6.158   8.205  0.00  0.00    +0.000 S 
ATOM     14  C   UNL     1      -8.945   4.902   9.292  0.00  0.00    +0.000 A 
ATOM     15  N   UNL     1      -9.901   4.163   9.916  0.00  0.00    +0.000 NA
ATOM     16  C   UNL     1      -9.430   3.224  10.670  0.00  0.00    +0.000 A 
ATOM     17  N   UNL     1      -8.098   2.912  10.808  0.00  0.00    +0.000 N 
ATOM     18  C   UNL     1      -7.101   3.611  10.170  0.00  0.00    +0.000 A 
ATOM     19  O   UNL     1      -5.926   3.262  10.221  0.00  0.00    +0.000 OA
ATOM     20  C   UNL     1      -7.581   4.766   9.441  0.00  0.00    +0.000 A 
ATOM     21  H   UNL     1      -7.804   2.110  11.343  0.00  0.00    +0.000 HD
ENDBRANCH  10  11
ENDBRANCH   1  10
BRANCH   5  22
ATOM     22  C   UNL     1       0.270   7.041   6.629  0.00  0.00    +0.000 C 
BRANCH  22  23
ATOM     23  N   UNL     1       0.021   6.314   5.375  0.00  0.00    +0.000 NA
ATOM     24  H   UNL     1      -0.957   6.458   5.113  0.00  0.00    +0.000 HD
BRANCH  23  25
ATOM     25  C   UNL     1       0.860   6.748   4.258  0.00  0.00    +0.000 C 
ATOM     26  C   UNL     1       2.322   6.334   4.407  0.00  0.00    +0.000 C 
ATOM     27  C   UNL     1       2.416   4.900   3.888  0.00  0.00    +0.000 C 
ATOM     28  C   UNL     1       1.174   4.658   3.019  0.00  0.00    +0.000 C 
ATOM     29  C   UNL     1       0.447   6.009   2.976  0.00  0.00    +0.000 C 
BRANCH  28  30
ATOM     30  N   UNL     1       0.319   3.606   3.569  0.00  0.00    +0.000 NA
ATOM     31  H   UNL     1      -0.178   3.972   4.382  0.00  0.00    +0.000 HD
ATOM     32  H   UNL     1       0.894   2.838   3.921  0.00  0.00    +0.000 HD
ENDBRANCH  28  30
ENDBRANCH  23  25
ENDBRANCH  22  23
ENDBRANCH   5  22
TORSDOF 6
