REMARK  Name = 
REMARK  9 active torsions:
REMARK  status: ('A' for Active; 'I' for Inactive)
REMARK    1  A    between atoms: C_1  and  O_2
REMARK    2  A    between atoms: O_2  and  C_3
REMARK    3  A    between atoms: C_10  and  C_11
REMARK    4  A    between atoms: N_13  and  C_14
REMARK    5  A    between atoms: C_14  and  C_15
REMARK    6  A    between atoms: C_18  and  C_19
REMARK    7  A    between atoms: C_19  and  N_20
REMARK    8  A    between atoms: N_20  and  C_21
REMARK    9  A    between atoms: C_21  and  C_22
REMARK                            x       y       z     vdW  Elec       q    Type
REMARK                         _______ _______ _______ _____ _____    ______ ____
ROOT
ATOM      1  C   UNL     1       2.938  -0.108  -3.512  0.00  0.00    +0.000 C 
ENDROOT
BRANCH   1   2
ATOM      2  C   UNL     1       1.725  -0.969  -3.256  0.00  0.00    +0.000 A 
ATOM      3  C   UNL     1       1.819  -2.367  -3.287  0.00  0.00    +0.000 A 
ATOM      4  C   UNL     1       0.701  -3.165  -3.011  0.00  0.00    +0.000 A 
ATOM      5  C   UNL     1      -0.539  -2.585  -2.702  0.00  0.00    +0.000 A 
ATOM      6  C   UNL     1      -0.638  -1.187  -2.714  0.00  0.00    +0.000 A 
ATOM      7  C   UNL     1       0.477  -0.389  -2.997  0.00  0.00    +0.000 A 
BRANCH   5   8
ATOM      8  C   UNL     1      -1.744  -3.442  -2.367  0.00  0.00    +0.000 C 
BRANCH   8   9
ATOM      9  N   UNL     1      -1.497  -4.268  -1.185  0.00  0.00    +0.000 NA
ATOM     10  H   UNL     1      -1.297  -3.654  -0.395  0.00  0.00    +0.000 HD
BRANCH   9  11
ATOM     11  C   UNL     1      -2.670  -5.084  -0.832  0.00  0.00    +0.000 C 
BRANCH  11  12
ATOM     12  C   UNL     1      -2.420  -5.939   0.400  0.00  0.00    +0.000 A 
ATOM     13  C   UNL     1      -1.381  -6.869   0.412  0.00  0.00    +0.000 A 
ATOM     14  C   UNL     1      -1.161  -7.626   1.557  0.00  0.00    +0.000 A 
ATOM     15  C   UNL     1      -1.985  -7.447   2.662  0.00  0.00    +0.000 A 
ATOM     16  C   UNL     1      -3.001  -6.512   2.568  0.00  0.00    +0.000 A 
ATOM     17  N   UNL     1      -3.236  -5.755   1.471  0.00  0.00    +0.000 NA
ENDBRANCH  11  12
ENDBRANCH   9  11
ENDBRANCH   8   9
ENDBRANCH   5   8
ENDBRANCH   1   2
BRANCH   1  20
ATOM     18  C   UNL     1       4.170   0.873  -5.405  0.00  0.00    +0.000 C 
ATOM     19  O   UNL     1       5.017   1.348  -4.655  0.00  0.00    +0.000 OA
ATOM     20  N   UNL     1       3.111   0.152  -4.919  0.00  0.00    +0.000 N 
ATOM     21  H   UNL     1       2.372  -0.142  -5.540  0.00  0.00    +0.000 HD
BRANCH  18  29
ATOM     22  C   UNL     1       2.221  -0.210  -8.035  0.00  0.00    +0.000 A 
ATOM     23  N   UNL     1       1.705  -0.564  -9.229  0.00  0.00    +0.000 NA
ATOM     24  C   UNL     1       2.333  -0.162 -10.334  0.00  0.00    +0.000 A 
ATOM     25  N   UNL     1       3.439   0.572 -10.400  0.00  0.00    +0.000 NA
ATOM     26  C   UNL     1       3.933   0.890  -9.191  0.00  0.00    +0.000 A 
ATOM     27  S   UNL     1       5.336   1.839  -9.088  0.00  0.00    +0.000 S 
ATOM     28  C   UNL     1       5.310   1.780  -7.389  0.00  0.00    +0.000 A 
ATOM     29  C   UNL     1       4.254   1.040  -6.867  0.00  0.00    +0.000 A 
ATOM     30  C   UNL     1       3.411   0.535  -7.950  0.00  0.00    +0.000 A 
BRANCH  22  32
ATOM     31  C   UNL     1       0.295  -1.230  -7.174  0.00  0.00    +0.000 C 
ATOM     32  O   UNL     1       1.526  -0.566  -6.896  0.00  0.00    +0.000 OA
ENDBRANCH  22  32
ENDBRANCH  18  29
ENDBRANCH   1  20
TORSDOF 8
