REMARK  Name = 
REMARK  6 active torsions:
REMARK  status: ('A' for Active; 'I' for Inactive)
REMARK    1  A    between atoms: C_2  and  C_25
REMARK    2  A    between atoms: N_3  and  C_4
REMARK    3  A    between atoms: C_4  and  C_5
REMARK    4  A    between atoms: C_8  and  C_9
REMARK    5  A    between atoms: C_9  and  N_10
REMARK    6  A    between atoms: C_11  and  C_13
REMARK                            x       y       z     vdW  Elec       q    Type
REMARK                         _______ _______ _______ _____ _____    ______ ____
ROOT
ATOM      1  C   UNL     1       3.157   2.527   2.643  0.00  0.00    +0.000 A 
ATOM      2  C   UNL     1       2.992   3.913   2.612  0.00  0.00    +0.000 A 
ATOM      3  C   UNL     1       3.814   4.727   3.387  0.00  0.00    +0.000 A 
ATOM      4  C   UNL     1       4.772   4.132   4.202  0.00  0.00    +0.000 A 
ATOM      5  N   UNL     1       4.964   2.788   4.237  0.00  0.00    +0.000 NA
ATOM      6  C   UNL     1       4.161   2.024   3.462  0.00  0.00    +0.000 A 
ENDROOT
BRANCH   1   7
ATOM      7  C   UNL     1       2.285   1.617   1.837  0.00  0.00    +0.000 C 
BRANCH   7  10
ATOM      8  O   UNL     1       0.293  -0.014   0.789  0.00  0.00    +0.000 OA
ATOM      9  C   UNL     1       0.195   0.354   1.958  0.00  0.00    +0.000 C 
ATOM     10  N   UNL     1       1.119   1.177   2.564  0.00  0.00    +0.000 N 
ATOM     11  H   UNL     1       0.980   1.412   3.543  0.00  0.00    +0.000 HD
BRANCH   9  12
ATOM     12  C   UNL     1      -0.947  -0.091   2.798  0.00  0.00    +0.000 A 
ATOM     13  C   UNL     1      -1.884  -0.965   2.264  0.00  0.00    +0.000 A 
ATOM     14  N   UNL     1      -2.944  -1.421   2.980  0.00  0.00    +0.000 NA
ATOM     15  C   UNL     1      -3.023  -0.959   4.247  0.00  0.00    +0.000 A 
ATOM     16  C   UNL     1      -2.088  -0.082   4.781  0.00  0.00    +0.000 A 
ATOM     17  N   UNL     1      -1.022   0.375   4.080  0.00  0.00    +0.000 NA
ENDBRANCH   9  12
ENDBRANCH   7  10
ENDBRANCH   1   7
BRANCH   4  18
ATOM     18  C   UNL     1       5.637   4.980   5.102  0.00  0.00    +0.000 C 
BRANCH  18  19
ATOM     19  N   UNL     1       6.866   5.394   4.469  0.00  0.00    +0.000 N 
ATOM     20  C   UNL     1       7.021   6.621   3.887  0.00  0.00    +0.000 C 
ATOM     21  O   UNL     1       6.113   7.446   3.844  0.00  0.00    +0.000 OA
ATOM     22  H   UNL     1       7.537   4.654   4.284  0.00  0.00    +0.000 HD
BRANCH  20  23
ATOM     23  C   UNL     1       8.365   6.936   3.382  0.00  0.00    +0.000 A 
ATOM     24  C   UNL     1       8.766   8.260   3.266  0.00  0.00    +0.000 A 
ATOM     25  S   UNL     1      10.363   8.446   2.698  0.00  0.00    +0.000 S 
ATOM     26  C   UNL     1      10.562   6.763   2.546  0.00  0.00    +0.000 A 
ATOM     27  N   UNL     1      11.722   6.236   2.067  0.00  0.00    +0.000 NA
ATOM     28  C   UNL     1      11.722   4.948   1.970  0.00  0.00    +0.000 A 
ATOM     29  N   UNL     1      10.674   4.139   2.322  0.00  0.00    +0.000 N 
ATOM     30  C   UNL     1       9.509   4.623   2.866  0.00  0.00    +0.000 A 
ATOM     31  O   UNL     1       8.633   3.865   3.269  0.00  0.00    +0.000 OA
ATOM     32  C   UNL     1       9.438   6.068   2.953  0.00  0.00    +0.000 A 
ATOM     33  H   UNL     1      10.745   3.135   2.249  0.00  0.00    +0.000 HD
ENDBRANCH  20  23
ENDBRANCH  18  19
ENDBRANCH   4  18
TORSDOF 6
