REMARK  Name = 
REMARK  8 active torsions:
REMARK  status: ('A' for Active; 'I' for Inactive)
REMARK    1  A    between atoms: C_1  and  C_2
REMARK    2  A    between atoms: C_2  and  C_3
REMARK    3  A    between atoms: C_2  and  N_4
REMARK    4  A    between atoms: C_2  and  C_5
REMARK    5  A    between atoms: C_5  and  C_6
REMARK    6  A    between atoms: C_10  and  C_11
REMARK    7  A    between atoms: C_11  and  N_12
REMARK    8  A    between atoms: C_17  and  C_18
REMARK                            x       y       z     vdW  Elec       q    Type
REMARK                         _______ _______ _______ _____ _____    ______ ____
ROOT
ATOM      1  C   UNL     1       7.409   1.375   2.276  0.00  0.00    +0.000 C 
ENDROOT
BRANCH   1   2
ATOM      2  N   UNL     1       8.236   2.044   1.274  0.00  0.00    +0.000 N 
ATOM      3  C   UNL     1       7.759   2.988   0.398  0.00  0.00    +0.000 A 
ATOM      4  C   UNL     1       8.819   3.460  -0.343  0.00  0.00    +0.000 A 
ATOM      5  C   UNL     1       9.987   2.781   0.095  0.00  0.00    +0.000 A 
ATOM      6  C   UNL     1      11.345   2.854  -0.282  0.00  0.00    +0.000 A 
ATOM      7  C   UNL     1      12.286   2.038   0.365  0.00  0.00    +0.000 A 
ATOM      8  C   UNL     1      11.881   1.177   1.387  0.00  0.00    +0.000 A 
ATOM      9  C   UNL     1      10.540   1.092   1.778  0.00  0.00    +0.000 A 
ATOM     10  C   UNL     1       9.604   1.903   1.115  0.00  0.00    +0.000 A 
BRANCH   7  11
ATOM     11  C   UNL     1      13.731   2.083   0.015  0.00  0.00    +0.000 C 
ATOM     12  N   UNL     1      14.067   2.519  -1.238  0.00  0.00    +0.000 N 
ATOM     13  O   UNL     1      14.596   1.713   0.798  0.00  0.00    +0.000 OA
ATOM     14  H   UNL     1      13.394   2.604  -1.986  0.00  0.00    +0.000 HD
ATOM     15  H   UNL     1      15.044   2.448  -1.490  0.00  0.00    +0.000 HD
ENDBRANCH   7  11
ENDBRANCH   1   2
BRANCH   1  20
ATOM     16  C   UNL     1       4.645  -0.863   1.262  0.00  0.00    +0.000 A 
ATOM     17  C   UNL     1       5.286  -1.988   0.754  0.00  0.00    +0.000 A 
ATOM     18  C   UNL     1       6.674  -2.011   0.730  0.00  0.00    +0.000 A 
ATOM     19  C   UNL     1       7.385  -0.921   1.217  0.00  0.00    +0.000 A 
ATOM     20  C   UNL     1       6.685   0.173   1.718  0.00  0.00    +0.000 A 
ATOM     21  N   UNL     1       5.326   0.200   1.760  0.00  0.00    +0.000 NA
BRANCH  16  22
ATOM     22  C   UNL     1       3.138  -0.756   1.196  0.00  0.00    +0.000 C 
BRANCH  22  24
ATOM     23  C   UNL     1       3.028  -0.782  -1.364  0.00  0.00    +0.000 C 
ATOM     24  C   UNL     1       2.608  -0.047  -0.081  0.00  0.00    +0.000 C 
ATOM     25  C   UNL     1       3.064   1.419  -0.148  0.00  0.00    +0.000 C 
BRANCH  24  26
ATOM     26  N   UNL     1       1.129  -0.065  -0.044  0.00  0.00    +0.000 NA
ATOM     27  H   UNL     1       0.764   0.435  -0.856  0.00  0.00    +0.000 HD
ATOM     28  H   UNL     1       0.802   0.455   0.770  0.00  0.00    +0.000 HD
ENDBRANCH  24  26
ENDBRANCH  22  24
ENDBRANCH  16  22
ENDBRANCH   1  20
TORSDOF 6
