REMARK  Name = 
REMARK  6 active torsions:
REMARK  status: ('A' for Active; 'I' for Inactive)
REMARK    1  A    between atoms: C_2  and  C_3
REMARK    2  A    between atoms: C_6  and  C_7
REMARK    3  A    between atoms: C_11  and  C_12
REMARK    4  A    between atoms: C_12  and  N_13
REMARK    5  A    between atoms: N_13  and  C_14
REMARK    6  A    between atoms: C_17  and  C_18
REMARK                            x       y       z     vdW  Elec       q    Type
REMARK                         _______ _______ _______ _____ _____    ______ ____
ROOT
ATOM      1  C   UNL     1      -6.166   1.367  -2.424  0.00  0.00    +0.000 C 
ATOM      2  C   UNL     1      -7.078   2.582  -2.408  0.00  0.00    +0.000 C 
ATOM      3  C   UNL     1      -7.648   1.254  -2.773  0.00  0.00    +0.000 C 
ENDROOT
BRANCH   1   8
ATOM      4  C   UNL     1      -5.907  -0.908   0.477  0.00  0.00    +0.000 A 
ATOM      5  N   UNL     1      -5.126  -0.283   1.381  0.00  0.00    +0.000 NA
ATOM      6  C   UNL     1      -4.625   0.903   1.006  0.00  0.00    +0.000 A 
ATOM      7  C   UNL     1      -4.889   1.488  -0.211  0.00  0.00    +0.000 A 
ATOM      8  C   UNL     1      -5.725   0.798  -1.073  0.00  0.00    +0.000 A 
ATOM      9  N   UNL     1      -6.207  -0.411  -0.735  0.00  0.00    +0.000 NA
BRANCH   4  13
ATOM     10  C   UNL     1      -7.614  -4.683   1.381  0.00  0.00    +0.000 A 
ATOM     11  C   UNL     1      -6.869  -4.039   2.366  0.00  0.00    +0.000 A 
ATOM     12  C   UNL     1      -6.302  -2.795   2.090  0.00  0.00    +0.000 A 
ATOM     13  C   UNL     1      -6.491  -2.220   0.832  0.00  0.00    +0.000 A 
ATOM     14  N   UNL     1      -7.229  -2.851  -0.131  0.00  0.00    +0.000 NA
ATOM     15  C   UNL     1      -7.768  -4.055   0.159  0.00  0.00    +0.000 A 
BRANCH  10  17
ATOM     16  N   UNL     1      -8.680  -6.996   1.807  0.00  0.00    +0.000 NA
ATOM     17  C   UNL     1      -8.204  -5.958   1.616  0.00  0.00    +0.000 C 
ENDBRANCH  10  17
ENDBRANCH   4  13
ENDBRANCH   1   8
BRANCH   1  18
ATOM     18  N   UNL     1      -5.251   1.053  -3.549  0.00  0.00    +0.000 N 
ATOM     19  H   UNL     1      -5.042   0.057  -3.638  0.00  0.00    +0.000 HD
BRANCH  18  20
ATOM     20  C   UNL     1      -4.156   1.865  -3.890  0.00  0.00    +0.000 A 
ATOM     21  C   UNL     1      -3.263   1.448  -4.884  0.00  0.00    +0.000 A 
ATOM     22  C   UNL     1      -2.214   2.280  -5.283  0.00  0.00    +0.000 A 
ATOM     23  C   UNL     1      -2.101   3.523  -4.678  0.00  0.00    +0.000 A 
ATOM     24  N   UNL     1      -2.965   3.989  -3.737  0.00  0.00    +0.000 NA
ATOM     25  C   UNL     1      -3.970   3.154  -3.394  0.00  0.00    +0.000 A 
BRANCH  23  26
ATOM     26  C   UNL     1      -0.979   4.446  -5.032  0.00  0.00    +0.000 C 
ATOM     27  N   UNL     1      -0.985   5.640  -4.361  0.00  0.00    +0.000 N 
ATOM     28  O   UNL     1      -0.115   4.158  -5.849  0.00  0.00    +0.000 OA
ATOM     29  H   UNL     1      -1.724   5.825  -3.691  0.00  0.00    +0.000 HD
ATOM     30  H   UNL     1      -0.254   6.316  -4.523  0.00  0.00    +0.000 HD
ENDBRANCH  23  26
ENDBRANCH  18  20
ENDBRANCH   1  18
TORSDOF 6
