REMARK  Name = 
REMARK  7 active torsions:
REMARK  status: ('A' for Active; 'I' for Inactive)
REMARK    1  A    between atoms: C_1  and  C_2
REMARK    2  A    between atoms: C_2  and  N_3
REMARK    3  A    between atoms: C_2  and  C_19
REMARK    4  A    between atoms: C_7  and  C_8
REMARK    5  A    between atoms: C_8  and  O_9
REMARK    6  A    between atoms: C_8  and  C_10
REMARK    7  A    between atoms: C_10  and  C_11
REMARK                            x       y       z     vdW  Elec       q    Type
REMARK                         _______ _______ _______ _____ _____    ______ ____
ROOT
ATOM      1  N   UNL     1       1.163  -0.161  -0.201  0.00  0.00    +0.000 N 
ATOM      2  C   UNL     1       0.353   0.553  -1.074  0.00  0.00    +0.000 A 
ATOM      3  C   UNL     1       0.989   1.154  -2.156  0.00  0.00    +0.000 A 
ATOM      4  C   UNL     1       0.273   1.965  -3.030  0.00  0.00    +0.000 A 
ATOM      5  C   UNL     1      -1.099   2.135  -2.856  0.00  0.00    +0.000 A 
ATOM      6  C   UNL     1      -1.660   1.469  -1.767  0.00  0.00    +0.000 A 
ATOM      7  N   UNL     1      -0.966   0.710  -0.873  0.00  0.00    +0.000 NA
ATOM      8  H   UNL     1       1.601  -0.953  -0.652  0.00  0.00    +0.000 HD
ENDROOT
BRANCH   1  10
ATOM      9  C   UNL     1       0.452   0.856   1.945  0.00  0.00    +0.000 C 
ATOM     10  C   UNL     1       0.816  -0.432   1.188  0.00  0.00    +0.000 C 
BRANCH  10  11
ATOM     11  C   UNL     1      -0.114  -1.590   1.489  0.00  0.00    +0.000 A 
ATOM     12  C   UNL     1      -1.495  -1.500   1.561  0.00  0.00    +0.000 A 
ATOM     13  S   UNL     1      -2.244  -2.945   2.079  0.00  0.00    +0.000 S 
ATOM     14  C   UNL     1      -0.750  -3.757   2.168  0.00  0.00    +0.000 A 
ATOM     15  N   UNL     1      -0.672  -5.050   2.584  0.00  0.00    +0.000 NA
ATOM     16  C   UNL     1       0.527  -5.530   2.601  0.00  0.00    +0.000 A 
ATOM     17  N   UNL     1       1.654  -4.842   2.223  0.00  0.00    +0.000 N 
ATOM     18  C   UNL     1       1.622  -3.543   1.764  0.00  0.00    +0.000 A 
ATOM     19  O   UNL     1       2.634  -2.978   1.362  0.00  0.00    +0.000 OA
ATOM     20  C   UNL     1       0.299  -2.945   1.781  0.00  0.00    +0.000 A 
ATOM     21  H   UNL     1       2.557  -5.291   2.226  0.00  0.00    +0.000 HD
ENDBRANCH  10  11
ENDBRANCH   1  10
BRANCH   5  22
ATOM     22  C   UNL     1      -1.940   3.044  -3.729  0.00  0.00    +0.000 C 
BRANCH  22  23
ATOM     23  O   UNL     1      -2.030   4.320  -3.096  0.00  0.00    +0.000 OA
ATOM     24  H   UNL     1      -1.174   4.501  -2.671  0.00  0.00    +0.000 HD
ENDBRANCH  22  23
BRANCH  22  25
ATOM     25  C   UNL     1      -1.385   3.248  -5.155  0.00  0.00    +0.000 C 
BRANCH  25  26
ATOM     26  C   UNL     1      -2.193   4.209  -6.058  0.00  0.00    +0.000 C 
ATOM     27  C   UNL     1      -3.609   3.711  -6.383  0.00  0.00    +0.000 C 
ATOM     28  C   UNL     1      -3.599   2.533  -7.357  0.00  0.00    +0.000 C 
ATOM     29  N   UNL     1      -2.891   2.861  -8.597  0.00  0.00    +0.000 NA
ATOM     30  C   UNL     1      -1.510   3.266  -8.333  0.00  0.00    +0.000 C 
ATOM     31  C   UNL     1      -1.440   4.461  -7.381  0.00  0.00    +0.000 C 
ATOM     32  H   UNL     1      -3.377   3.632  -9.057  0.00  0.00    +0.000 HD
ENDBRANCH  25  26
ENDBRANCH  22  25
ENDBRANCH   5  22
TORSDOF 6
