REMARK  Name = 
REMARK  5 active torsions:
REMARK  status: ('A' for Active; 'I' for Inactive)
REMARK    1  A    between atoms: C_2  and  C_18
REMARK    2  A    between atoms: N_3  and  C_4
REMARK    3  A    between atoms: C_4  and  C_5
REMARK    4  A    between atoms: C_8  and  C_9
REMARK    5  A    between atoms: C_9  and  C_10
REMARK                            x       y       z     vdW  Elec       q    Type
REMARK                         _______ _______ _______ _____ _____    ______ ____
ROOT
ATOM      1  O   UNL     1       3.171   0.811  -1.478  0.00  0.00    +0.000 OA
ATOM      2  C   UNL     1       3.402  -0.077  -0.676  0.00  0.00    +0.000 C 
ATOM      3  N   UNL     1       2.806  -1.324  -0.698  0.00  0.00    +0.000 N 
ATOM      4  H   UNL     1       3.252  -2.064  -0.175  0.00  0.00    +0.000 HD
ENDROOT
BRANCH   2   5
ATOM      5  C   UNL     1       4.519  -0.044   0.260  0.00  0.00    +0.000 A 
ATOM      6  C   UNL     1       5.741   0.527  -0.057  0.00  0.00    +0.000 A 
ATOM      7  S   UNL     1       6.998  -0.138   0.906  0.00  0.00    +0.000 S 
ATOM      8  C   UNL     1       5.886  -1.028   1.845  0.00  0.00    +0.000 A 
ATOM      9  N   UNL     1       6.271  -1.952   2.765  0.00  0.00    +0.000 NA
ATOM     10  C   UNL     1       5.293  -2.483   3.424  0.00  0.00    +0.000 A 
ATOM     11  N   UNL     1       3.970  -2.136   3.288  0.00  0.00    +0.000 N 
ATOM     12  C   UNL     1       3.534  -1.207   2.376  0.00  0.00    +0.000 A 
ATOM     13  O   UNL     1       2.361  -0.858   2.308  0.00  0.00    +0.000 OA
ATOM     14  C   UNL     1       4.589  -0.694   1.529  0.00  0.00    +0.000 A 
ATOM     15  H   UNL     1       3.264  -2.525   3.898  0.00  0.00    +0.000 HD
ENDBRANCH   2   5
BRANCH   3  16
ATOM     16  C   UNL     1       2.041  -1.788  -1.828  0.00  0.00    +0.000 C 
BRANCH  16  17
ATOM     17  C   UNL     1       2.937  -2.525  -2.796  0.00  0.00    +0.000 A 
ATOM     18  C   UNL     1       3.641  -1.824  -3.767  0.00  0.00    +0.000 A 
ATOM     19  N   UNL     1       4.499  -2.421  -4.628  0.00  0.00    +0.000 NA
ATOM     20  C   UNL     1       4.648  -3.763  -4.487  0.00  0.00    +0.000 A 
ATOM     21  C   UNL     1       3.958  -4.463  -3.503  0.00  0.00    +0.000 A 
ATOM     22  N   UNL     1       3.108  -3.865  -2.631  0.00  0.00    +0.000 NA
BRANCH  20  23
ATOM     23  C   UNL     1       5.543  -4.467  -5.474  0.00  0.00    +0.000 C 
BRANCH  23  24
ATOM     24  C   UNL     1       4.822  -4.930  -6.704  0.00  0.00    +0.000 A 
ATOM     25  C   UNL     1       4.188  -4.053  -7.566  0.00  0.00    +0.000 A 
ATOM     26  N   UNL     1       3.515  -4.441  -8.668  0.00  0.00    +0.000 NA
ATOM     27  C   UNL     1       3.492  -5.760  -8.902  0.00  0.00    +0.000 A 
ATOM     28  N   UNL     1       4.083  -6.705  -8.153  0.00  0.00    +0.000 NA
ATOM     29  C   UNL     1       4.742  -6.260  -7.066  0.00  0.00    +0.000 A 
ENDBRANCH  23  24
ENDBRANCH  20  23
ENDBRANCH  16  17
ENDBRANCH   3  16
TORSDOF 5
