REMARK  Name = 
REMARK  8 active torsions:
REMARK  status: ('A' for Active; 'I' for Inactive)
REMARK    1  A    between atoms: C_1  and  C_2
REMARK    2  A    between atoms: C_2  and  N_3
REMARK    3  A    between atoms: C_2  and  C_25
REMARK    4  A    between atoms: N_3  and  C_4
REMARK    5  A    between atoms: C_4  and  C_5
REMARK    6  A    between atoms: C_8  and  C_9
REMARK    7  A    between atoms: C_9  and  N_10
REMARK    8  A    between atoms: C_11  and  C_13
REMARK                            x       y       z     vdW  Elec       q    Type
REMARK                         _______ _______ _______ _____ _____    ______ ____
ROOT
ATOM      1  C   UNL     1       3.016   0.373  -3.701  0.00  0.00    +0.000 C 
ATOM      2  C   UNL     1       4.489   0.025  -3.984  0.00  0.00    +0.000 C 
ATOM      3  C   UNL     1       5.082   0.848  -5.123  0.00  0.00    +0.000 C 
ATOM      4  C   UNL     1       4.954   2.364  -4.885  0.00  0.00    +0.000 C 
ATOM      5  C   UNL     1       3.475   2.712  -4.665  0.00  0.00    +0.000 C 
ATOM      6  C   UNL     1       2.838   1.896  -3.538  0.00  0.00    +0.000 C 
ENDROOT
BRANCH   1   7
ATOM      7  C   UNL     1       2.036  -0.187  -4.762  0.00  0.00    +0.000 C 
BRANCH   7   8
ATOM      8  N   UNL     1       2.040  -1.651  -4.753  0.00  0.00    +0.000 NA
ATOM      9  H   UNL     1       2.987  -1.989  -4.923  0.00  0.00    +0.000 HD
BRANCH   8  11
ATOM     10  C   UNL     1      -0.289  -1.911  -5.651  0.00  0.00    +0.000 C 
ATOM     11  C   UNL     1       1.197  -2.254  -5.804  0.00  0.00    +0.000 C 
BRANCH  11  12
ATOM     12  C   UNL     1       1.377  -3.774  -5.812  0.00  0.00    +0.000 A 
ATOM     13  C   UNL     1       1.038  -4.536  -4.691  0.00  0.00    +0.000 A 
ATOM     14  C   UNL     1       1.188  -5.918  -4.739  0.00  0.00    +0.000 A 
ATOM     15  C   UNL     1       1.687  -6.506  -5.893  0.00  0.00    +0.000 A 
ATOM     16  C   UNL     1       2.025  -5.681  -6.953  0.00  0.00    +0.000 A 
ATOM     17  N   UNL     1       1.884  -4.337  -6.940  0.00  0.00    +0.000 NA
ENDBRANCH  11  12
ENDBRANCH   8  11
ENDBRANCH   7   8
ENDBRANCH   1   7
BRANCH   4  18
ATOM     18  C   UNL     1       5.828   2.893  -3.727  0.00  0.00    +0.000 C 
BRANCH  18  19
ATOM     19  N   UNL     1       7.234   2.657  -3.970  0.00  0.00    +0.000 N 
ATOM     20  C   UNL     1       8.247   3.441  -3.491  0.00  0.00    +0.000 C 
ATOM     21  O   UNL     1       8.056   4.430  -2.790  0.00  0.00    +0.000 OA
ATOM     22  H   UNL     1       7.479   1.839  -4.509  0.00  0.00    +0.000 HD
BRANCH  20  23
ATOM     23  C   UNL     1       9.598   2.962  -3.810  0.00  0.00    +0.000 A 
ATOM     24  C   UNL     1      10.666   3.265  -2.978  0.00  0.00    +0.000 A 
ATOM     25  S   UNL     1      12.130   2.534  -3.462  0.00  0.00    +0.000 S 
ATOM     26  C   UNL     1      11.395   1.824  -4.821  0.00  0.00    +0.000 A 
ATOM     27  N   UNL     1      12.103   1.029  -5.668  0.00  0.00    +0.000 NA
ATOM     28  C   UNL     1      11.422   0.571  -6.666  0.00  0.00    +0.000 A 
ATOM     29  N   UNL     1      10.102   0.851  -6.906  0.00  0.00    +0.000 N 
ATOM     30  C   UNL     1       9.351   1.656  -6.086  0.00  0.00    +0.000 A 
ATOM     31  O   UNL     1       8.172   1.882  -6.336  0.00  0.00    +0.000 OA
ATOM     32  C   UNL     1      10.058   2.161  -4.921  0.00  0.00    +0.000 A 
ATOM     33  H   UNL     1       9.628   0.470  -7.712  0.00  0.00    +0.000 HD
ENDBRANCH  20  23
ENDBRANCH  18  19
ENDBRANCH   4  18
TORSDOF 7
