REMARK  Name = 
REMARK  9 active torsions:
REMARK  status: ('A' for Active; 'I' for Inactive)
REMARK    1  A    between atoms: N_1  and  C_2
REMARK    2  A    between atoms: C_2  and  C_3
REMARK    3  A    between atoms: C_3  and  C_4
REMARK    4  A    between atoms: C_3  and  N_25
REMARK    5  A    between atoms: C_4  and  C_5
REMARK    6  A    between atoms: C_8  and  C_9
REMARK    7  A    between atoms: C_9  and  N_10
REMARK    8  A    between atoms: C_11  and  C_13
REMARK    9  A    between atoms: C_30  and  C_31
REMARK                            x       y       z     vdW  Elec       q    Type
REMARK                         _______ _______ _______ _____ _____    ______ ____
ROOT
ATOM      1  C   UNL     1       1.866  -1.056  -1.187  0.00  0.00    +0.000 A 
ATOM      2  C   UNL     1       1.708  -2.446  -1.214  0.00  0.00    +0.000 A 
ATOM      3  C   UNL     1       0.992  -3.076  -2.239  0.00  0.00    +0.000 A 
ATOM      4  C   UNL     1       0.386  -2.333  -3.257  0.00  0.00    +0.000 A 
ATOM      5  C   UNL     1       0.529  -0.942  -3.239  0.00  0.00    +0.000 A 
ATOM      6  C   UNL     1       1.270  -0.314  -2.224  0.00  0.00    +0.000 A 
ENDROOT
BRANCH   1   7
ATOM      7  C   UNL     1       2.606  -0.307  -0.085  0.00  0.00    +0.000 C 
BRANCH   7   8
ATOM      8  C   UNL     1       3.338  -1.107   1.045  0.00  0.00    +0.000 C 
BRANCH   8   9
ATOM      9  N   UNL     1       3.772  -0.153   2.084  0.00  0.00    +0.000 N 
ATOM     10  C   UNL     1       3.895  -0.414   3.429  0.00  0.00    +0.000 A 
ATOM     11  C   UNL     1       4.035  -1.681   3.964  0.00  0.00    +0.000 A 
ATOM     12  C   UNL     1       4.196  -1.863   5.336  0.00  0.00    +0.000 A 
ATOM     13  C   UNL     1       4.215  -0.757   6.163  0.00  0.00    +0.000 A 
ATOM     14  C   UNL     1       4.088   0.505   5.588  0.00  0.00    +0.000 A 
ATOM     15  N   UNL     1       3.915   0.675   4.234  0.00  0.00    +0.000 NA
ATOM     16  H   UNL     1       3.561   0.831   1.950  0.00  0.00    +0.000 HD
BRANCH  14  17
ATOM     17  C   UNL     1       4.178   1.729   6.497  0.00  0.00    +0.000 C 
ATOM     18  F   UNL     1       4.375   1.405   7.814  0.00  0.00    +0.000 F 
ATOM     19  F   UNL     1       5.211   2.563   6.181  0.00  0.00    +0.000 F 
ATOM     20  F   UNL     1       3.052   2.497   6.488  0.00  0.00    +0.000 F 
ENDBRANCH  14  17
ENDBRANCH   8   9
BRANCH   8  21
ATOM     21  C   UNL     1       4.565  -1.862   0.427  0.00  0.00    +0.000 C 
BRANCH  21  22
ATOM     22  N   UNL     1       5.213  -2.873   1.274  0.00  0.00    +0.000 NA
ATOM     23  H   UNL     1       6.076  -3.180   0.826  0.00  0.00    +0.000 HD
ATOM     24  H   UNL     1       4.622  -3.699   1.348  0.00  0.00    +0.000 HD
ENDBRANCH  21  22
ENDBRANCH   8  21
ENDBRANCH   7   8
ENDBRANCH   1   7
BRANCH   4  25
ATOM     25  C   UNL     1      -0.452  -3.028  -4.301  0.00  0.00    +0.000 C 
BRANCH  25  26
ATOM     26  N   UNL     1      -1.801  -3.248  -3.827  0.00  0.00    +0.000 N 
ATOM     27  C   UNL     1      -2.674  -4.050  -4.516  0.00  0.00    +0.000 C 
ATOM     28  O   UNL     1      -2.332  -4.654  -5.529  0.00  0.00    +0.000 OA
ATOM     29  H   UNL     1      -2.149  -2.614  -3.115  0.00  0.00    +0.000 HD
BRANCH  27  30
ATOM     30  C   UNL     1      -4.026  -4.202  -3.960  0.00  0.00    +0.000 A 
ATOM     31  C   UNL     1      -4.794  -5.301  -4.321  0.00  0.00    +0.000 A 
ATOM     32  S   UNL     1      -6.329  -5.345  -3.580  0.00  0.00    +0.000 S 
ATOM     33  C   UNL     1      -6.042  -3.873  -2.779  0.00  0.00    +0.000 A 
ATOM     34  N   UNL     1      -6.995  -3.314  -1.984  0.00  0.00    +0.000 NA
ATOM     35  C   UNL     1      -6.660  -2.177  -1.471  0.00  0.00    +0.000 A 
ATOM     36  N   UNL     1      -5.455  -1.557  -1.669  0.00  0.00    +0.000 N 
ATOM     37  C   UNL     1      -4.448  -2.104  -2.429  0.00  0.00    +0.000 A 
ATOM     38  O   UNL     1      -3.357  -1.549  -2.535  0.00  0.00    +0.000 OA
ATOM     39  C   UNL     1      -4.781  -3.366  -3.056  0.00  0.00    +0.000 A 
ATOM     40  H   UNL     1      -5.247  -0.677  -1.221  0.00  0.00    +0.000 HD
ENDBRANCH  27  30
ENDBRANCH  25  26
ENDBRANCH   4  25
TORSDOF 9
