REMARK  Name = 
REMARK  8 active torsions:
REMARK  status: ('A' for Active; 'I' for Inactive)
REMARK    1  A    between atoms: C_1  and  O_2
REMARK    2  A    between atoms: O_2  and  C_3
REMARK    3  A    between atoms: C_3  and  C_5
REMARK    4  A    between atoms: C_5  and  N_6
REMARK    5  A    between atoms: C_5  and  C_7
REMARK    6  A    between atoms: C_10  and  C_11
REMARK    7  A    between atoms: C_11  and  O_12
REMARK    8  A    between atoms: O_12  and  C_13
REMARK                            x       y       z     vdW  Elec       q    Type
REMARK                         _______ _______ _______ _____ _____    ______ ____
ROOT
ATOM      1  C   UNL     1       4.988   1.211   2.400  0.00  0.00    +0.000 A 
ATOM      2  C   UNL     1       4.959   2.611   2.465  0.00  0.00    +0.000 A 
ATOM      3  C   UNL     1       5.242   3.273   3.660  0.00  0.00    +0.000 A 
ATOM      4  C   UNL     1       5.570   2.548   4.812  0.00  0.00    +0.000 A 
ATOM      5  C   UNL     1       5.620   1.151   4.748  0.00  0.00    +0.000 A 
ATOM      6  C   UNL     1       5.350   0.489   3.549  0.00  0.00    +0.000 A 
ENDROOT
BRANCH   1   7
ATOM      7  C   UNL     1       4.580   0.504   1.121  0.00  0.00    +0.000 C 
BRANCH   7   8
ATOM      8  N   UNL     1       3.389  -0.347   1.370  0.00  0.00    +0.000 NA
ATOM      9  H   UNL     1       3.662  -1.085   2.018  0.00  0.00    +0.000 HD
ATOM     10  H   UNL     1       3.175  -0.846   0.503  0.00  0.00    +0.000 HD
ENDBRANCH   7   8
BRANCH   7  11
ATOM     11  C   UNL     1       5.723  -0.324   0.502  0.00  0.00    +0.000 C 
ATOM     12  O   UNL     1       5.658  -1.528   0.277  0.00  0.00    +0.000 OA
BRANCH  11  14
ATOM     13  C   UNL     1       7.884  -0.237  -0.394  0.00  0.00    +0.000 C 
ATOM     14  O   UNL     1       6.790   0.468   0.191  0.00  0.00    +0.000 OA
ENDBRANCH  11  14
ENDBRANCH   7  11
ENDBRANCH   1   7
BRANCH   4  15
ATOM     15  C   UNL     1       5.869   3.265   6.102  0.00  0.00    +0.000 C 
BRANCH  15  16
ATOM     16  O   UNL     1       4.667   3.493   6.837  0.00  0.00    +0.000 OA
BRANCH  16  17
ATOM     17  C   UNL     1       4.821   4.159   8.026  0.00  0.00    +0.000 A 
ATOM     18  C   UNL     1       6.032   4.586   8.563  0.00  0.00    +0.000 A 
ATOM     19  C   UNL     1       6.018   5.249   9.776  0.00  0.00    +0.000 A 
ATOM     20  N   UNL     1       4.898   5.510  10.478  0.00  0.00    +0.000 NA
ATOM     21  C   UNL     1       3.735   5.085   9.938  0.00  0.00    +0.000 A 
ATOM     22  C   UNL     1       3.648   4.412   8.730  0.00  0.00    +0.000 A 
ENDBRANCH  16  17
ENDBRANCH  15  16
ENDBRANCH   4  15
TORSDOF 7
