REMARK  Name = 
REMARK  5 active torsions:
REMARK  status: ('A' for Active; 'I' for Inactive)
REMARK    1  A    between atoms: C_2  and  C_4
REMARK    2  A    between atoms: C_7  and  O_8
REMARK    3  A    between atoms: O_8  and  C_9
REMARK    4  A    between atoms: C_9  and  C_10
REMARK    5  A    between atoms: C_14  and  C_15
REMARK                            x       y       z     vdW  Elec       q    Type
REMARK                         _______ _______ _______ _____ _____    ______ ____
ROOT
ATOM      1  C   UNL     1       5.058   3.341   4.832  0.00  0.00    +0.000 C 
ENDROOT
BRANCH   1   2
ATOM      2  C   UNL     1       6.014   4.241   5.576  0.00  0.00    +0.000 A 
ATOM      3  C   UNL     1       7.074   3.704   6.307  0.00  0.00    +0.000 A 
ATOM      4  C   UNL     1       7.891   4.566   7.017  0.00  0.00    +0.000 A 
ATOM      5  N   UNL     1       7.718   5.906   7.060  0.00  0.00    +0.000 NA
ATOM      6  C   UNL     1       6.672   6.429   6.376  0.00  0.00    +0.000 A 
ATOM      7  C   UNL     1       5.814   5.623   5.626  0.00  0.00    +0.000 A 
BRANCH   6   8
ATOM      8  C   UNL     1       6.491   7.885   6.474  0.00  0.00    +0.000 A 
ATOM      9  C   UNL     1       7.575   8.746   6.679  0.00  0.00    +0.000 A 
ATOM     10  N   UNL     1       7.495  10.102   6.745  0.00  0.00    +0.000 NA
ATOM     11  C   UNL     1       6.261  10.637   6.614  0.00  0.00    +0.000 A 
ATOM     12  C   UNL     1       5.122   9.880   6.429  0.00  0.00    +0.000 A 
ATOM     13  F   UNL     1       3.923  10.462   6.308  0.00  0.00    +0.000 F 
ATOM     14  C   UNL     1       5.233   8.499   6.363  0.00  0.00    +0.000 A 
ENDBRANCH   6   8
ENDBRANCH   1   2
BRANCH   1  15
ATOM     15  O   UNL     1       4.547   4.009   3.672  0.00  0.00    +0.000 OA
BRANCH  15  19
ATOM     16  C   UNL     1       1.793   1.753   1.608  0.00  0.00    +0.000 A 
ATOM     17  C   UNL     1       2.107   3.038   1.159  0.00  0.00    +0.000 A 
ATOM     18  C   UNL     1       3.041   3.797   1.867  0.00  0.00    +0.000 A 
ATOM     19  C   UNL     1       3.627   3.238   2.993  0.00  0.00    +0.000 A 
ATOM     20  N   UNL     1       3.338   2.002   3.453  0.00  0.00    +0.000 NA
ATOM     21  C   UNL     1       2.421   1.291   2.756  0.00  0.00    +0.000 A 
BRANCH  16  23
ATOM     22  N   UNL     1       0.617   1.043  -0.394  0.00  0.00    +0.000 N 
ATOM     23  C   UNL     1       0.812   0.872   0.946  0.00  0.00    +0.000 C 
ATOM     24  O   UNL     1       0.225  -0.005   1.567  0.00  0.00    +0.000 OA
ATOM     25  H   UNL     1       0.023   0.359  -0.848  0.00  0.00    +0.000 HD
ATOM     26  H   UNL     1       1.254   1.566  -0.978  0.00  0.00    +0.000 HD
ENDBRANCH  16  23
ENDBRANCH  15  19
ENDBRANCH   1  15
TORSDOF 5
