REMARK  Name = 
REMARK  7 active torsions:
REMARK  status: ('A' for Active; 'I' for Inactive)
REMARK    1  A    between atoms: N_1  and  C_2
REMARK    2  A    between atoms: C_2  and  C_3
REMARK    3  A    between atoms: C_7  and  C_8
REMARK    4  A    between atoms: C_8  and  C_9
REMARK    5  A    between atoms: C_9  and  N_10
REMARK    6  A    between atoms: N_10  and  C_11
REMARK    7  A    between atoms: C_14  and  C_15
REMARK                            x       y       z     vdW  Elec       q    Type
REMARK                         _______ _______ _______ _____ _____    ______ ____
ROOT
ATOM      1  N   UNL     1       1.711  -7.283   0.501  0.00  0.00    +0.000 N 
ATOM      2  H   UNL     1       1.614  -7.417  -0.504  0.00  0.00    +0.000 HD
ENDROOT
BRANCH   1   3
ATOM      3  C   UNL     1       2.124  -8.480   1.130  0.00  0.00    +0.000 A 
ATOM      4  C   UNL     1       1.480  -9.677   0.771  0.00  0.00    +0.000 A 
ATOM      5  C   UNL     1       1.798 -10.899   1.393  0.00  0.00    +0.000 A 
ATOM      6  C   UNL     1       2.770 -10.949   2.399  0.00  0.00    +0.000 A 
ATOM      7  C   UNL     1       3.394  -9.763   2.785  0.00  0.00    +0.000 A 
ATOM      8  C   UNL     1       3.065  -8.560   2.173  0.00  0.00    +0.000 A 
ATOM      9  F   UNL     1       3.715  -7.471   2.611  0.00  0.00    +0.000 F 
BRANCH   6  10
ATOM     10  C   UNL     1       3.192 -12.188   3.111  0.00  0.00    +0.000 C 
ATOM     11  N   UNL     1       2.597 -13.371   2.786  0.00  0.00    +0.000 N 
ATOM     12  O   UNL     1       4.061 -12.162   3.976  0.00  0.00    +0.000 OA
ATOM     13  H   UNL     1       1.870 -13.496   2.104  0.00  0.00    +0.000 HD
ATOM     14  H   UNL     1       2.917 -14.185   3.300  0.00  0.00    +0.000 HD
ENDBRANCH   6  10
ENDBRANCH   1   3
BRANCH   1  15
ATOM     15  C   UNL     1       2.447  -6.059   0.856  0.00  0.00    +0.000 C 
BRANCH  15  16
ATOM     16  C   UNL     1       1.957  -4.836   0.085  0.00  0.00    +0.000 C 
BRANCH  16  21
ATOM     17  C   UNL     1       4.611  -2.261   0.191  0.00  0.00    +0.000 A 
ATOM     18  C   UNL     1       4.225  -1.420   1.231  0.00  0.00    +0.000 A 
ATOM     19  C   UNL     1       3.061  -1.712   1.932  0.00  0.00    +0.000 A 
ATOM     20  C   UNL     1       2.308  -2.825   1.571  0.00  0.00    +0.000 A 
ATOM     21  C   UNL     1       2.739  -3.612   0.506  0.00  0.00    +0.000 A 
ATOM     22  N   UNL     1       3.884  -3.351  -0.173  0.00  0.00    +0.000 NA
BRANCH  17  23
ATOM     23  C   UNL     1       5.874  -1.973  -0.595  0.00  0.00    +0.000 C 
BRANCH  23  24
ATOM     24  N   UNL     1       7.078  -1.915   0.241  0.00  0.00    +0.000 NA
ATOM     25  H   UNL     1       7.892  -1.878  -0.370  0.00  0.00    +0.000 HD
ATOM     26  H   UNL     1       7.150  -2.798   0.747  0.00  0.00    +0.000 HD
ENDBRANCH  23  24
ENDBRANCH  17  23
ENDBRANCH  16  21
ENDBRANCH  15  16
ENDBRANCH   1  15
TORSDOF 7
