REMARK  Name = 
REMARK  5 active torsions:
REMARK  status: ('A' for Active; 'I' for Inactive)
REMARK    1  A    between atoms: N_1  and  C_2
REMARK    2  A    between atoms: C_2  and  C_3
REMARK    3  A    between atoms: C_3  and  C_4
REMARK    4  A    between atoms: C_8  and  C_9
REMARK    5  A    between atoms: C_9  and  N_10
REMARK                            x       y       z     vdW  Elec       q    Type
REMARK                         _______ _______ _______ _____ _____    ______ ____
ROOT
ATOM      1  C   UNL     1       4.563  -0.371  -1.289  0.00  0.00    +0.000 A 
ATOM      2  C   UNL     1       5.333  -1.537  -1.347  0.00  0.00    +0.000 A 
ATOM      3  C   UNL     1       6.717  -1.456  -1.479  0.00  0.00    +0.000 A 
ATOM      4  C   UNL     1       7.340  -0.212  -1.585  0.00  0.00    +0.000 A 
ATOM      5  C   UNL     1       6.583   0.976  -1.554  0.00  0.00    +0.000 A 
ATOM      6  C   UNL     1       5.198   0.882  -1.376  0.00  0.00    +0.000 A 
ENDROOT
BRANCH   1   7
ATOM      7  C   UNL     1       3.054  -0.452  -1.218  0.00  0.00    +0.000 C 
BRANCH   7   8
ATOM      8  C   UNL     1       2.414  -0.413  -2.613  0.00  0.00    +0.000 C 
BRANCH   8   9
ATOM      9  N   UNL     1       0.955  -0.450  -2.523  0.00  0.00    +0.000 NA
ATOM     10  H   UNL     1       0.557  -0.383  -3.458  0.00  0.00    +0.000 HD
ATOM     11  H   UNL     1       0.620   0.366  -2.013  0.00  0.00    +0.000 HD
ENDBRANCH   8   9
ENDBRANCH   7   8
ENDBRANCH   1   7
BRANCH   5  12
ATOM     12  C   UNL     1       7.225   2.277  -1.948  0.00  0.00    +0.000 C 
BRANCH  12  13
ATOM     13  N   UNL     1       7.322   3.341  -0.950  0.00  0.00    +0.000 N 
ATOM     14  C   UNL     1       7.115   4.658  -1.308  0.00  0.00    +0.000 A 
ATOM     15  N   UNL     1       7.894   5.477  -0.657  0.00  0.00    +0.000 NA
ATOM     16  C   UNL     1       8.608   4.681   0.205  0.00  0.00    +0.000 A 
ATOM     17  C   UNL     1       9.671   5.023   1.051  0.00  0.00    +0.000 A 
ATOM     18  C   UNL     1      10.238   4.029   1.855  0.00  0.00    +0.000 A 
ATOM     19  C   UNL     1       9.713   2.736   1.850  0.00  0.00    +0.000 A 
ATOM     20 CL   UNL     1      10.397   1.549   2.897  0.00  0.00    +0.000 Cl
ATOM     21  C   UNL     1       8.669   2.364   0.993  0.00  0.00    +0.000 A 
ATOM     22  C   UNL     1       8.174   3.356   0.137  0.00  0.00    +0.000 A 
ENDBRANCH  12  13
ENDBRANCH   5  12
TORSDOF 5
