REMARK  Name = 
REMARK  5 active torsions:
REMARK  status: ('A' for Active; 'I' for Inactive)
REMARK    1  A    between atoms: C_2  and  C_4
REMARK    2  A    between atoms: N_8  and  C_9
REMARK    3  A    between atoms: C_9  and  C_10
REMARK    4  A    between atoms: C_10  and  C_13
REMARK    5  A    between atoms: C_17  and  C_18
REMARK                            x       y       z     vdW  Elec       q    Type
REMARK                         _______ _______ _______ _____ _____    ______ ____
ROOT
ATOM      1  C   UNL     1       6.578  -5.077   4.594  0.00  0.00    +0.000 C 
ATOM      2  F   UNL     1       7.757  -4.879   3.931  0.00  0.00    +0.000 F 
ATOM      3  F   UNL     1       6.698  -4.376   5.761  0.00  0.00    +0.000 F 
ENDROOT
BRANCH   1   4
ATOM      4  C   UNL     1       6.304  -6.548   4.851  0.00  0.00    +0.000 A 
ATOM      5  C   UNL     1       5.590  -6.938   5.992  0.00  0.00    +0.000 A 
ATOM      6  C   UNL     1       5.294  -8.279   6.208  0.00  0.00    +0.000 A 
ATOM      7  C   UNL     1       5.693  -9.239   5.276  0.00  0.00    +0.000 A 
ATOM      8  C   UNL     1       6.380  -8.888   4.099  0.00  0.00    +0.000 A 
ATOM      9  C   UNL     1       6.702  -7.529   3.922  0.00  0.00    +0.000 A 
BRANCH   8  10
ATOM     10  C   UNL     1       6.685  -9.904   3.065  0.00  0.00    +0.000 A 
ATOM     11  C   UNL     1       5.793 -10.958   2.813  0.00  0.00    +0.000 A 
ATOM     12  C   UNL     1       6.080 -11.882   1.820  0.00  0.00    +0.000 A 
ATOM     13  N   UNL     1       7.184 -11.834   1.053  0.00  0.00    +0.000 NA
ATOM     14  C   UNL     1       8.038 -10.819   1.295  0.00  0.00    +0.000 A 
ATOM     15  C   UNL     1       7.841  -9.853   2.273  0.00  0.00    +0.000 A 
ENDBRANCH   8  10
ENDBRANCH   1   4
BRANCH   1  16
ATOM     16  C   UNL     1       5.430  -4.461   3.749  0.00  0.00    +0.000 C 
BRANCH  16  21
ATOM     17  C   UNL     1       3.003  -0.751   1.227  0.00  0.00    +0.000 A 
ATOM     18  C   UNL     1       2.477  -1.858   1.883  0.00  0.00    +0.000 A 
ATOM     19  C   UNL     1       3.322  -2.648   2.666  0.00  0.00    +0.000 A 
ATOM     20  C   UNL     1       4.671  -2.323   2.775  0.00  0.00    +0.000 A 
ATOM     21  N   UNL     1       5.546  -3.005   3.599  0.00  0.00    +0.000 N 
ATOM     22  N   UNL     1       5.192  -1.265   2.127  0.00  0.00    +0.000 NA
ATOM     23  C   UNL     1       4.361  -0.507   1.364  0.00  0.00    +0.000 A 
ATOM     24  H   UNL     1       6.489  -2.657   3.426  0.00  0.00    +0.000 HD
BRANCH  17  26
ATOM     25  N   UNL     1       0.858   0.259   0.704  0.00  0.00    +0.000 N 
ATOM     26  C   UNL     1       2.185   0.151   0.392  0.00  0.00    +0.000 C 
ATOM     27  O   UNL     1       2.679   0.802  -0.521  0.00  0.00    +0.000 OA
ATOM     28  H   UNL     1       0.336   0.961   0.194  0.00  0.00    +0.000 HD
ATOM     29  H   UNL     1       0.481  -0.047   1.588  0.00  0.00    +0.000 HD
ENDBRANCH  17  26
ENDBRANCH  16  21
ENDBRANCH   1  16
TORSDOF 5
