REMARK  Name = 
REMARK  6 active torsions:
REMARK  status: ('A' for Active; 'I' for Inactive)
REMARK    1  A    between atoms: C_2  and  C_4
REMARK    2  A    between atoms: C_8  and  C_9
REMARK    3  A    between atoms: C_9  and  O_10
REMARK    4  A    between atoms: O_10  and  C_11
REMARK    5  A    between atoms: C_15  and  N_16
REMARK    6  A    between atoms: C_19  and  N_20
REMARK                            x       y       z     vdW  Elec       q    Type
REMARK                         _______ _______ _______ _____ _____    ______ ____
ROOT
ATOM      1  C   UNL     1       8.625  -0.404   3.916  0.00  0.00    +0.000 A 
ATOM      2  C   UNL     1       8.933   0.937   4.175  0.00  0.00    +0.000 A 
ATOM      3  C   UNL     1      10.240   1.246   4.540  0.00  0.00    +0.000 A 
ATOM      4  C   UNL     1      11.157   0.220   4.666  0.00  0.00    +0.000 A 
ATOM      5  C   UNL     1      10.779  -1.101   4.425  0.00  0.00    +0.000 A 
ATOM      6  N   UNL     1       9.518  -1.407   4.049  0.00  0.00    +0.000 NA
ENDROOT
BRANCH   5   7
ATOM      7  N   UNL     1      11.699  -2.103   4.637  0.00  0.00    +0.000 N 
ATOM      8  C   UNL     1      11.252  -3.420   5.048  0.00  0.00    +0.000 C 
ATOM      9  C   UNL     1      12.190  -3.897   6.160  0.00  0.00    +0.000 C 
ATOM     10  C   UNL     1      13.666  -3.852   5.730  0.00  0.00    +0.000 C 
ATOM     11  C   UNL     1      14.026  -2.474   5.148  0.00  0.00    +0.000 C 
ATOM     12  C   UNL     1      13.040  -2.010   4.073  0.00  0.00    +0.000 C 
BRANCH  10  13
ATOM     13  N   UNL     1      13.988  -4.927   4.783  0.00  0.00    +0.000 NA
ATOM     14  H   UNL     1      13.457  -4.815   3.920  0.00  0.00    +0.000 HD
ATOM     15  H   UNL     1      13.702  -5.825   5.174  0.00  0.00    +0.000 HD
ENDBRANCH  10  13
ENDBRANCH   5   7
BRANCH   1  16
ATOM     16  O   UNL     1       7.311  -0.732   3.623  0.00  0.00    +0.000 OA
BRANCH  16  17
ATOM     17  C   UNL     1       7.202  -1.910   2.804  0.00  0.00    +0.000 C 
BRANCH  17  22
ATOM     18  C   UNL     1       3.559  -1.641   1.645  0.00  0.00    +0.000 A 
ATOM     19  C   UNL     1       3.059  -2.901   1.985  0.00  0.00    +0.000 A 
ATOM     20  C   UNL     1       3.877  -3.820   2.640  0.00  0.00    +0.000 A 
ATOM     21  C   UNL     1       5.207  -3.494   2.929  0.00  0.00    +0.000 A 
ATOM     22  C   UNL     1       5.735  -2.241   2.576  0.00  0.00    +0.000 A 
ATOM     23  C   UNL     1       4.891  -1.314   1.943  0.00  0.00    +0.000 A 
BRANCH  18  25
ATOM     24  N   UNL     1       1.378  -0.714   1.060  0.00  0.00    +0.000 N 
ATOM     25  C   UNL     1       2.739  -0.657   0.885  0.00  0.00    +0.000 C 
ATOM     26  O   UNL     1       3.246   0.164   0.148  0.00  0.00    +0.000 OA
ATOM     27  H   UNL     1       0.837  -0.009   0.576  0.00  0.00    +0.000 HD
ATOM     28  H   UNL     1       0.943  -1.216   1.815  0.00  0.00    +0.000 HD
ENDBRANCH  18  25
ENDBRANCH  17  22
ENDBRANCH  16  17
ENDBRANCH   1  16
TORSDOF 6
