REMARK  Name = 
REMARK  7 active torsions:
REMARK  status: ('A' for Active; 'I' for Inactive)
REMARK    1  A    between atoms: N_1  and  C_2
REMARK    2  A    between atoms: C_2  and  C_3
REMARK    3  A    between atoms: C_3  and  O_4
REMARK    4  A    between atoms: O_4  and  C_5
REMARK    5  A    between atoms: N_13  and  C_14
REMARK    6  A    between atoms: C_14  and  C_15
REMARK    7  A    between atoms: C_18  and  C_19
REMARK                            x       y       z     vdW  Elec       q    Type
REMARK                         _______ _______ _______ _____ _____    ______ ____
ROOT
ATOM      1  C   UNL     1       4.977   2.521   0.542  0.00  0.00    +0.000 A 
ATOM      2  N   UNL     1       4.562   3.313   1.556  0.00  0.00    +0.000 NA
ATOM      3  C   UNL     1       5.253   4.445   1.782  0.00  0.00    +0.000 A 
ATOM      4  N   UNL     1       6.332   4.911   1.127  0.00  0.00    +0.000 NA
ATOM      5  C   UNL     1       6.704   4.086   0.129  0.00  0.00    +0.000 A 
ATOM      6  C   UNL     1       6.085   2.895  -0.220  0.00  0.00    +0.000 A 
ATOM      7  C   UNL     1       6.800   2.357  -1.323  0.00  0.00    +0.000 A 
ATOM      8  C   UNL     1       7.829   3.228  -1.616  0.00  0.00    +0.000 A 
ATOM      9  N   UNL     1       7.769   4.273  -0.723  0.00  0.00    +0.000 N 
ENDROOT
BRANCH   1  10
ATOM     10  O   UNL     1       4.360   1.308   0.313  0.00  0.00    +0.000 OA
BRANCH  10  11
ATOM     11  C   UNL     1       2.987   1.304   0.716  0.00  0.00    +0.000 C 
BRANCH  11  12
ATOM     12  C   UNL     1       2.398  -0.086   0.436  0.00  0.00    +0.000 C 
BRANCH  12  13
ATOM     13  N   UNL     1       2.441  -0.436  -0.989  0.00  0.00    +0.000 NA
ATOM     14  H   UNL     1       2.134  -1.399  -1.109  0.00  0.00    +0.000 HD
ATOM     15  H   UNL     1       3.417  -0.406  -1.292  0.00  0.00    +0.000 HD
ENDBRANCH  12  13
ENDBRANCH  11  12
ENDBRANCH  10  11
ENDBRANCH   1  10
BRANCH   9  16
ATOM     16  C   UNL     1       8.728   5.372  -0.656  0.00  0.00    +0.000 C 
BRANCH  16  17
ATOM     17  C   UNL     1       8.372   6.478  -1.613  0.00  0.00    +0.000 A 
ATOM     18  C   UNL     1       7.211   7.239  -1.442  0.00  0.00    +0.000 A 
ATOM     19  C   UNL     1       6.850   8.178  -2.403  0.00  0.00    +0.000 A 
ATOM     20  C   UNL     1       7.680   8.345  -3.501  0.00  0.00    +0.000 A 
ATOM     21  N   UNL     1       8.855   7.675  -3.673  0.00  0.00    +0.000 NA
ATOM     22  C   UNL     1       9.167   6.762  -2.722  0.00  0.00    +0.000 A 
BRANCH  20  23
ATOM     23  C   UNL     1       7.254   9.261  -4.607  0.00  0.00    +0.000 C 
ATOM     24  N   UNL     1       8.121   9.363  -5.660  0.00  0.00    +0.000 N 
ATOM     25  O   UNL     1       6.189   9.867  -4.592  0.00  0.00    +0.000 OA
ATOM     26  H   UNL     1       8.970   8.808  -5.664  0.00  0.00    +0.000 HD
ATOM     27  H   UNL     1       7.858   9.909  -6.466  0.00  0.00    +0.000 HD
ENDBRANCH  20  23
ENDBRANCH  16  17
ENDBRANCH   9  16
TORSDOF 7
