REMARK  Name = 
REMARK  4 active torsions:
REMARK  status: ('A' for Active; 'I' for Inactive)
REMARK    1  A    between atoms: C_2  and  C_4
REMARK    2  A    between atoms: C_7  and  N_8
REMARK    3  A    between atoms: N_8  and  C_9
REMARK    4  A    between atoms: C_9  and  C_10
REMARK                            x       y       z     vdW  Elec       q    Type
REMARK                         _______ _______ _______ _____ _____    ______ ____
ROOT
ATOM      1  C   UNL     1       8.774   1.797   1.919  0.00  0.00    +0.000 A 
ATOM      2  C   UNL     1       8.720   2.676   2.988  0.00  0.00    +0.000 A 
ATOM      3  N   UNL     1       7.567   3.291   3.373  0.00  0.00    +0.000 NA
ATOM      4  C   UNL     1       6.460   3.019   2.645  0.00  0.00    +0.000 A 
ATOM      5  C   UNL     1       6.548   2.148   1.548  0.00  0.00    +0.000 A 
ATOM      6  N   UNL     1       7.680   1.501   1.165  0.00  0.00    +0.000 NA
ENDROOT
BRANCH   1   8
ATOM      7  N   UNL     1      10.005   0.288   0.483  0.00  0.00    +0.000 N 
ATOM      8  C   UNL     1      10.056   1.134   1.558  0.00  0.00    +0.000 C 
ATOM      9  O   UNL     1      11.093   1.327   2.179  0.00  0.00    +0.000 OA
ATOM     10  H   UNL     1      10.847  -0.185   0.180  0.00  0.00    +0.000 HD
ATOM     11  H   UNL     1       9.134   0.156  -0.019  0.00  0.00    +0.000 HD
ENDBRANCH   1   8
BRANCH   4  12
ATOM     12  N   UNL     1       5.224   3.654   2.929  0.00  0.00    +0.000 N 
ATOM     13  H   UNL     1       4.458   3.048   2.658  0.00  0.00    +0.000 HD
BRANCH  12  14
ATOM     14  C   UNL     1       5.030   4.269   4.269  0.00  0.00    +0.000 C 
ATOM     15  C   UNL     1       5.094   3.384   5.504  0.00  0.00    +0.000 C 
ATOM     16  C   UNL     1       3.766   3.877   5.035  0.00  0.00    +0.000 C 
BRANCH  14  17
ATOM     17  C   UNL     1       5.435   5.732   4.378  0.00  0.00    +0.000 A 
ATOM     18  C   UNL     1       4.609   6.770   3.918  0.00  0.00    +0.000 A 
ATOM     19  C   UNL     1       4.957   8.104   4.122  0.00  0.00    +0.000 A 
ATOM     20  C   UNL     1       6.141   8.379   4.784  0.00  0.00    +0.000 A 
ATOM     21  N   UNL     1       6.989   7.426   5.219  0.00  0.00    +0.000 NA
ATOM     22  C   UNL     1       6.620   6.139   4.993  0.00  0.00    +0.000 A 
ENDBRANCH  14  17
ENDBRANCH  12  14
ENDBRANCH   4  12
TORSDOF 4
