REMARK  Name = 
REMARK  7 active torsions:
REMARK  status: ('A' for Active; 'I' for Inactive)
REMARK    1  A    between atoms: C_2  and  C_3
REMARK    2  A    between atoms: C_6  and  C_7
REMARK    3  A    between atoms: N_9  and  C_10
REMARK    4  A    between atoms: C_10  and  C_11
REMARK    5  A    between atoms: C_14  and  C_15
REMARK    6  A    between atoms: C_15  and  N_16
REMARK    7  A    between atoms: C_17  and  C_19
REMARK                            x       y       z     vdW  Elec       q    Type
REMARK                         _______ _______ _______ _____ _____    ______ ____
ROOT
ATOM      1  C   UNL     1      10.407   0.383  -0.463  0.00  0.00    +0.000 A 
ATOM      2  C   UNL     1      11.388   1.327  -0.137  0.00  0.00    +0.000 A 
ATOM      3  C   UNL     1      12.662   0.920   0.280  0.00  0.00    +0.000 A 
ATOM      4  C   UNL     1      12.987  -0.442   0.364  0.00  0.00    +0.000 A 
ATOM      5  C   UNL     1      11.998  -1.382   0.041  0.00  0.00    +0.000 A 
ATOM      6  C   UNL     1      10.728  -0.976  -0.383  0.00  0.00    +0.000 A 
ENDROOT
BRANCH   1   7
ATOM      7  C   UNL     1       9.039   0.826  -0.899  0.00  0.00    +0.000 C 
BRANCH   7  10
ATOM      8  C   UNL     1       7.787   1.452  -2.892  0.00  0.00    +0.000 C 
ATOM      9  O   UNL     1       6.777   1.669  -2.223  0.00  0.00    +0.000 OA
ATOM     10  N   UNL     1       8.963   1.026  -2.326  0.00  0.00    +0.000 N 
ATOM     11  H   UNL     1       9.752   0.759  -2.901  0.00  0.00    +0.000 HD
BRANCH   8  15
ATOM     12  C   UNL     1       6.630   3.683  -4.679  0.00  0.00    +0.000 C 
ATOM     13  C   UNL     1       8.097   3.988  -4.989  0.00  0.00    +0.000 C 
ATOM     14  C   UNL     1       8.856   2.664  -4.845  0.00  0.00    +0.000 C 
ATOM     15  C   UNL     1       7.822   1.623  -4.407  0.00  0.00    +0.000 C 
ATOM     16  C   UNL     1       6.499   2.185  -4.938  0.00  0.00    +0.000 C 
BRANCH  12  18
ATOM     17  N   UNL     1       4.920   5.186  -6.277  0.00  0.00    +0.000 NA
ATOM     18  C   UNL     1       5.695   4.505  -5.552  0.00  0.00    +0.000 C 
ENDBRANCH  12  18
ENDBRANCH   8  15
ENDBRANCH   7  10
ENDBRANCH   1   7
BRANCH   4  19
ATOM     19  C   UNL     1      14.363  -0.916   0.779  0.00  0.00    +0.000 C 
BRANCH  19  20
ATOM     20  N   UNL     1      14.473  -1.120   2.202  0.00  0.00    +0.000 N 
ATOM     21  C   UNL     1      15.637  -1.553   2.793  0.00  0.00    +0.000 C 
ATOM     22  O   UNL     1      16.661  -1.778   2.151  0.00  0.00    +0.000 OA
ATOM     23  H   UNL     1      13.604  -1.293   2.696  0.00  0.00    +0.000 HD
BRANCH  21  24
ATOM     24  C   UNL     1      15.596  -1.675   4.252  0.00  0.00    +0.000 A 
ATOM     25  C   UNL     1      16.749  -1.502   5.007  0.00  0.00    +0.000 A 
ATOM     26  S   UNL     1      16.487  -1.647   6.688  0.00  0.00    +0.000 S 
ATOM     27  C   UNL     1      14.834  -1.991   6.459  0.00  0.00    +0.000 A 
ATOM     28  N   UNL     1      14.018  -2.258   7.514  0.00  0.00    +0.000 NA
ATOM     29  C   UNL     1      12.797  -2.526   7.192  0.00  0.00    +0.000 A 
ATOM     30  N   UNL     1      12.313  -2.538   5.908  0.00  0.00    +0.000 N 
ATOM     31  C   UNL     1      13.088  -2.232   4.820  0.00  0.00    +0.000 A 
ATOM     32  O   UNL     1      12.603  -2.174   3.695  0.00  0.00    +0.000 OA
ATOM     33  C   UNL     1      14.482  -1.960   5.124  0.00  0.00    +0.000 A 
ATOM     34  H   UNL     1      11.339  -2.731   5.722  0.00  0.00    +0.000 HD
ENDBRANCH  21  24
ENDBRANCH  19  20
ENDBRANCH   4  19
TORSDOF 7
