REMARK  Name = 
REMARK  7 active torsions:
REMARK  status: ('A' for Active; 'I' for Inactive)
REMARK    1  A    between atoms: C_1  and  C_2
REMARK    2  A    between atoms: C_2  and  N_3
REMARK    3  A    between atoms: C_2  and  C_13
REMARK    4  A    between atoms: C_4  and  C_6
REMARK    5  A    between atoms: C_16  and  C_17
REMARK    6  A    between atoms: C_17  and  N_18
REMARK    7  A    between atoms: C_19  and  C_21
REMARK                            x       y       z     vdW  Elec       q    Type
REMARK                         _______ _______ _______ _____ _____    ______ ____
ROOT
ATOM      1  C   UNL     1       4.936  -0.489  -7.214  0.00  0.00    +0.000 C 
ATOM      2  C   UNL     1       5.337  -1.487  -8.023  0.00  0.00    +0.000 C 
ATOM      3  C   UNL     1       5.171  -1.472  -9.517  0.00  0.00    +0.000 C 
ATOM      4  C   UNL     1       4.913  -0.066 -10.085  0.00  0.00    +0.000 C 
ATOM      5  C   UNL     1       3.809   0.583  -9.239  0.00  0.00    +0.000 C 
ATOM      6  C   UNL     1       4.220   0.727  -7.768  0.00  0.00    +0.000 C 
ENDROOT
BRANCH   1   8
ATOM      7  C   UNL     1       6.035   0.685  -5.251  0.00  0.00    +0.000 C 
ATOM      8  C   UNL     1       5.235  -0.525  -5.727  0.00  0.00    +0.000 C 
BRANCH   8   9
ATOM      9  N   UNL     1       3.986  -0.664  -5.008  0.00  0.00    +0.000 N 
ATOM     10  C   UNL     1       3.901  -1.400  -3.854  0.00  0.00    +0.000 C 
ATOM     11  O   UNL     1       4.906  -1.871  -3.318  0.00  0.00    +0.000 OA
ATOM     12  H   UNL     1       3.154  -0.180  -5.339  0.00  0.00    +0.000 HD
BRANCH  10  13
ATOM     13  C   UNL     1       2.518  -1.583  -3.233  0.00  0.00    +0.000 C 
ATOM     14  C   UNL     1       2.528  -2.925  -2.477  0.00  0.00    +0.000 C 
ATOM     15  C   UNL     1       1.136  -3.415  -2.121  0.00  0.00    +0.000 C 
ATOM     16  C   UNL     1       0.329  -3.545  -3.395  0.00  0.00    +0.000 C 
ATOM     17  N   UNL     1       0.306  -2.301  -4.125  0.00  0.00    +0.000 N 
ATOM     18  C   UNL     1       1.352  -1.427  -4.202  0.00  0.00    +0.000 C 
ATOM     19  O   UNL     1       1.283  -0.486  -4.997  0.00  0.00    +0.000 OA
ATOM     20  H   UNL     1      -0.406  -2.162  -4.833  0.00  0.00    +0.000 HD
ENDBRANCH  10  13
ENDBRANCH   8   9
ENDBRANCH   1   8
BRANCH   4  21
ATOM     21  C   UNL     1       6.186   0.803 -10.110  0.00  0.00    +0.000 C 
BRANCH  21  22
ATOM     22  N   UNL     1       7.214   0.259 -10.974  0.00  0.00    +0.000 N 
ATOM     23  C   UNL     1       7.340   0.607 -12.294  0.00  0.00    +0.000 C 
ATOM     24  O   UNL     1       6.593   1.417 -12.835  0.00  0.00    +0.000 OA
ATOM     25  H   UNL     1       7.737  -0.536 -10.621  0.00  0.00    +0.000 HD
BRANCH  23  26
ATOM     26  C   UNL     1       8.468   0.008 -13.016  0.00  0.00    +0.000 A 
ATOM     27  C   UNL     1       9.031   0.681 -14.091  0.00  0.00    +0.000 A 
ATOM     28  S   UNL     1      10.344  -0.142 -14.802  0.00  0.00    +0.000 S 
ATOM     29  C   UNL     1      10.180  -1.449 -13.726  0.00  0.00    +0.000 A 
ATOM     30  N   UNL     1      11.000  -2.534 -13.813  0.00  0.00    +0.000 NA
ATOM     31  C   UNL     1      10.739  -3.464 -12.951  0.00  0.00    +0.000 A 
ATOM     32  N   UNL     1       9.744  -3.398 -12.008  0.00  0.00    +0.000 N 
ATOM     33  C   UNL     1       8.934  -2.305 -11.858  0.00  0.00    +0.000 A 
ATOM     34  O   UNL     1       8.121  -2.246 -10.943  0.00  0.00    +0.000 OA
ATOM     35  C   UNL     1       9.155  -1.245 -12.819  0.00  0.00    +0.000 A 
ATOM     36  H   UNL     1       9.609  -4.150 -11.348  0.00  0.00    +0.000 HD
ENDBRANCH  23  26
ENDBRANCH  21  22
ENDBRANCH   4  21
TORSDOF 6
