REMARK  Name = 
REMARK  7 active torsions:
REMARK  status: ('A' for Active; 'I' for Inactive)
REMARK    1  A    between atoms: C_1  and  C_2
REMARK    2  A    between atoms: C_2  and  N_3
REMARK    3  A    between atoms: C_2  and  C_24
REMARK    4  A    between atoms: N_3  and  C_4
REMARK    5  A    between atoms: C_8  and  C_9
REMARK    6  A    between atoms: C_9  and  N_10
REMARK    7  A    between atoms: C_11  and  C_13
REMARK                            x       y       z     vdW  Elec       q    Type
REMARK                         _______ _______ _______ _____ _____    ______ ____
ROOT
ATOM      1  C   UNL     1       0.308  -1.234   0.834  0.00  0.00    +0.000 A 
ATOM      2  C   UNL     1       0.885  -2.336   1.463  0.00  0.00    +0.000 A 
ATOM      3  C   UNL     1       0.076  -3.371   1.903  0.00  0.00    +0.000 A 
ATOM      4  N   UNL     1      -1.266  -3.374   1.805  0.00  0.00    +0.000 NA
ATOM      5  C   UNL     1      -1.843  -2.273   1.266  0.00  0.00    +0.000 A 
ATOM      6  C   UNL     1      -1.091  -1.202   0.770  0.00  0.00    +0.000 A 
ENDROOT
BRANCH   1   7
ATOM      7  N   UNL     1       1.043  -0.121   0.409  0.00  0.00    +0.000 N 
ATOM      8  H   UNL     1       0.522   0.480  -0.228  0.00  0.00    +0.000 HD
BRANCH   7  10
ATOM      9  C   UNL     1       2.477  -0.862  -1.449  0.00  0.00    +0.000 C 
ATOM     10  C   UNL     1       2.444  -0.263  -0.040  0.00  0.00    +0.000 C 
BRANCH  10  11
ATOM     11  C   UNL     1       3.156   1.093   0.038  0.00  0.00    +0.000 A 
ATOM     12  C   UNL     1       3.371   1.679   1.288  0.00  0.00    +0.000 A 
ATOM     13  C   UNL     1       4.054   2.891   1.364  0.00  0.00    +0.000 A 
ATOM     14  C   UNL     1       4.507   3.491   0.197  0.00  0.00    +0.000 A 
ATOM     15  C   UNL     1       4.253   2.853  -1.004  0.00  0.00    +0.000 A 
ATOM     16  N   UNL     1       3.591   1.679  -1.109  0.00  0.00    +0.000 NA
ENDBRANCH  10  11
ENDBRANCH   7  10
ENDBRANCH   1   7
BRANCH   5  17
ATOM     17  C   UNL     1      -3.352  -2.250   1.213  0.00  0.00    +0.000 C 
BRANCH  17  18
ATOM     18  N   UNL     1      -3.860  -2.819  -0.016  0.00  0.00    +0.000 N 
ATOM     19  C   UNL     1      -5.062  -2.422  -0.540  0.00  0.00    +0.000 C 
ATOM     20  O   UNL     1      -5.720  -1.509  -0.046  0.00  0.00    +0.000 OA
ATOM     21  H   UNL     1      -3.482  -3.729  -0.268  0.00  0.00    +0.000 HD
BRANCH  19  22
ATOM     22  C   UNL     1      -5.496  -3.085  -1.776  0.00  0.00    +0.000 A 
ATOM     23  C   UNL     1      -6.358  -2.423  -2.641  0.00  0.00    +0.000 A 
ATOM     24  S   UNL     1      -6.724  -3.306  -4.052  0.00  0.00    +0.000 S 
ATOM     25  C   UNL     1      -5.787  -4.628  -3.533  0.00  0.00    +0.000 A 
ATOM     26  N   UNL     1      -5.692  -5.757  -4.286  0.00  0.00    +0.000 NA
ATOM     27  C   UNL     1      -4.977  -6.692  -3.755  0.00  0.00    +0.000 A 
ATOM     28  N   UNL     1      -4.342  -6.597  -2.543  0.00  0.00    +0.000 N 
ATOM     29  C   UNL     1      -4.381  -5.465  -1.766  0.00  0.00    +0.000 A 
ATOM     30  O   UNL     1      -3.763  -5.391  -0.709  0.00  0.00    +0.000 OA
ATOM     31  C   UNL     1      -5.186  -4.388  -2.309  0.00  0.00    +0.000 A 
ATOM     32  H   UNL     1      -3.789  -7.363  -2.187  0.00  0.00    +0.000 HD
ENDBRANCH  19  22
ENDBRANCH  17  18
ENDBRANCH   5  17
TORSDOF 6
