REMARK  Name = 
REMARK  5 active torsions:
REMARK  status: ('A' for Active; 'I' for Inactive)
REMARK    1  A    between atoms: C_2  and  C_17
REMARK    2  A    between atoms: N_3  and  C_4
REMARK    3  A    between atoms: C_4  and  C_5
REMARK    4  A    between atoms: C_8  and  C_9
REMARK    5  A    between atoms: C_9  and  C_10
REMARK                            x       y       z     vdW  Elec       q    Type
REMARK                         _______ _______ _______ _____ _____    ______ ____
ROOT
ATOM      1  O   UNL     1       2.633  -2.737  -0.662  0.00  0.00    +0.000 OA
ATOM      2  C   UNL     1       3.074  -1.636  -0.357  0.00  0.00    +0.000 C 
ATOM      3  N   UNL     1       2.793  -0.503  -1.076  0.00  0.00    +0.000 N 
ATOM      4  H   UNL     1       3.325   0.341  -0.894  0.00  0.00    +0.000 HD
ENDROOT
BRANCH   2   5
ATOM      5  C   UNL     1       3.900  -1.440   0.842  0.00  0.00    +0.000 A 
ATOM      6  C   UNL     1       3.810  -2.338   1.897  0.00  0.00    +0.000 A 
ATOM      7  S   UNL     1       4.840  -1.959   3.203  0.00  0.00    +0.000 S 
ATOM      8  C   UNL     1       5.475  -0.610   2.383  0.00  0.00    +0.000 A 
ATOM      9  N   UNL     1       6.455   0.152   2.942  0.00  0.00    +0.000 NA
ATOM     10  C   UNL     1       6.876   1.114   2.191  0.00  0.00    +0.000 A 
ATOM     11  N   UNL     1       6.399   1.393   0.936  0.00  0.00    +0.000 N 
ATOM     12  C   UNL     1       5.350   0.708   0.371  0.00  0.00    +0.000 A 
ATOM     13  O   UNL     1       4.833   1.087  -0.676  0.00  0.00    +0.000 OA
ATOM     14  C   UNL     1       4.883  -0.427   1.146  0.00  0.00    +0.000 A 
ATOM     15  H   UNL     1       6.740   2.190   0.421  0.00  0.00    +0.000 HD
ENDBRANCH   2   5
BRANCH   3  16
ATOM     16  C   UNL     1       2.103  -0.549  -2.341  0.00  0.00    +0.000 C 
BRANCH  16  17
ATOM     17  C   UNL     1       3.071  -0.626  -3.480  0.00  0.00    +0.000 A 
ATOM     18  C   UNL     1       3.571   0.525  -4.087  0.00  0.00    +0.000 A 
ATOM     19  C   UNL     1       4.471   0.412  -5.141  0.00  0.00    +0.000 A 
ATOM     20  C   UNL     1       4.897  -0.851  -5.545  0.00  0.00    +0.000 A 
ATOM     21  N   UNL     1       4.435  -1.984  -4.960  0.00  0.00    +0.000 NA
ATOM     22  C   UNL     1       3.542  -1.847  -3.949  0.00  0.00    +0.000 A 
BRANCH  20  23
ATOM     23  C   UNL     1       5.891  -1.019  -6.674  0.00  0.00    +0.000 C 
BRANCH  23  24
ATOM     24  C   UNL     1       7.289  -0.405  -6.457  0.00  0.00    +0.000 C 
ATOM     25  C   UNL     1       8.020  -0.944  -5.235  0.00  0.00    +0.000 C 
ATOM     26  C   UNL     1       8.986   0.162  -4.863  0.00  0.00    +0.000 C 
ATOM     27  C   UNL     1       8.369   1.438  -5.408  0.00  0.00    +0.000 C 
ATOM     28  N   UNL     1       7.274   1.056  -6.294  0.00  0.00    +0.000 NA
ATOM     29  H   UNL     1       7.351   1.521  -7.197  0.00  0.00    +0.000 HD
ENDBRANCH  23  24
ENDBRANCH  20  23
ENDBRANCH  16  17
ENDBRANCH   3  16
TORSDOF 5
