REMARK  Name = 
REMARK  9 active torsions:
REMARK  status: ('A' for Active; 'I' for Inactive)
REMARK    1  A    between atoms: C_1  and  C_2
REMARK    2  A    between atoms: C_2  and  N_3
REMARK    3  A    between atoms: C_2  and  C_21
REMARK    4  A    between atoms: N_3  and  C_4
REMARK    5  A    between atoms: C_4  and  C_5
REMARK    6  A    between atoms: C_8  and  C_9
REMARK    7  A    between atoms: C_9  and  S_10
REMARK    8  A    between atoms: S_10  and  C_11
REMARK    9  A    between atoms: C_11  and  C_12
REMARK                            x       y       z     vdW  Elec       q    Type
REMARK                         _______ _______ _______ _____ _____    ______ ____
ROOT
ATOM      1  C   UNL     1       2.649  -2.462  -0.498  0.00  0.00    +0.000 C 
ENDROOT
BRANCH   1   2
ATOM      2  C   UNL     1       3.082  -3.498  -1.514  0.00  0.00    +0.000 A 
ATOM      3  C   UNL     1       3.977  -3.182  -2.544  0.00  0.00    +0.000 A 
ATOM      4  C   UNL     1       4.390  -4.162  -3.454  0.00  0.00    +0.000 A 
ATOM      5  C   UNL     1       3.945  -5.488  -3.345  0.00  0.00    +0.000 A 
ATOM      6  C   UNL     1       3.047  -5.802  -2.316  0.00  0.00    +0.000 A 
ATOM      7  C   UNL     1       2.622  -4.820  -1.414  0.00  0.00    +0.000 A 
BRANCH   5   8
ATOM      8  C   UNL     1       4.381  -6.549  -4.331  0.00  0.00    +0.000 C 
BRANCH   8   9
ATOM      9  S   UNL     1       6.192  -6.769  -4.360  0.00  0.00    +0.000 S 
BRANCH   9  10
ATOM     10  C   UNL     1       6.317  -8.099  -5.599  0.00  0.00    +0.000 C 
BRANCH  10  11
ATOM     11  C   UNL     1       7.764  -8.487  -5.807  0.00  0.00    +0.000 A 
ATOM     12  C   UNL     1       8.351  -9.490  -5.027  0.00  0.00    +0.000 A 
ATOM     13  C   UNL     1       9.705  -9.792  -5.178  0.00  0.00    +0.000 A 
ATOM     14  N   UNL     1      10.499  -9.118  -6.088  0.00  0.00    +0.000 N 
ATOM     15  O   UNL     1      11.730  -9.398  -6.209  0.00  0.00    +0.000 OA
ATOM     16  C   UNL     1       9.916  -8.131  -6.862  0.00  0.00    +0.000 A 
ATOM     17  C   UNL     1       8.564  -7.808  -6.735  0.00  0.00    +0.000 A 
ENDBRANCH  10  11
ENDBRANCH   9  10
ENDBRANCH   8   9
ENDBRANCH   5   8
ENDBRANCH   1   2
BRANCH   1  18
ATOM     18  N   UNL     1       1.884  -1.369  -1.106  0.00  0.00    +0.000 NA
ATOM     19  H   UNL     1       2.488  -0.897  -1.777  0.00  0.00    +0.000 HD
BRANCH  18  21
ATOM     20  C   UNL     1       0.456  -0.966   0.906  0.00  0.00    +0.000 C 
ATOM     21  C   UNL     1       1.430  -0.369  -0.123  0.00  0.00    +0.000 C 
BRANCH  21  22
ATOM     22  C   UNL     1       0.738   0.765  -0.870  0.00  0.00    +0.000 A 
ATOM     23  C   UNL     1       0.006   0.627  -2.039  0.00  0.00    +0.000 A 
ATOM     24  S   UNL     1      -0.749   2.073  -2.548  0.00  0.00    +0.000 S 
ATOM     25  C   UNL     1      -0.153   2.929  -1.203  0.00  0.00    +0.000 A 
ATOM     26  N   UNL     1      -0.500   4.225  -0.983  0.00  0.00    +0.000 NA
ATOM     27  C   UNL     1      -0.001   4.727   0.103  0.00  0.00    +0.000 A 
ATOM     28  N   UNL     1       0.835   4.063   0.962  0.00  0.00    +0.000 N 
ATOM     29  C   UNL     1       1.273   2.777   0.737  0.00  0.00    +0.000 A 
ATOM     30  O   UNL     1       2.114   2.249   1.459  0.00  0.00    +0.000 OA
ATOM     31  C   UNL     1       0.669   2.141  -0.418  0.00  0.00    +0.000 A 
ATOM     32  H   UNL     1       1.223   4.532   1.767  0.00  0.00    +0.000 HD
ENDBRANCH  21  22
ENDBRANCH  18  21
ENDBRANCH   1  18
TORSDOF 8
