REMARK  Name = 
REMARK  9 active torsions:
REMARK  status: ('A' for Active; 'I' for Inactive)
REMARK    1  A    between atoms: C_1  and  C_2
REMARK    2  A    between atoms: C_2  and  N_3
REMARK    3  A    between atoms: C_2  and  C_19
REMARK    4  A    between atoms: N_3  and  C_4
REMARK    5  A    between atoms: C_4  and  C_5
REMARK    6  A    between atoms: C_8  and  C_9
REMARK    7  A    between atoms: C_9  and  O_10
REMARK    8  A    between atoms: O_10  and  C_11
REMARK    9  A    between atoms: C_11  and  C_12
REMARK                            x       y       z     vdW  Elec       q    Type
REMARK                         _______ _______ _______ _____ _____    ______ ____
ROOT
ATOM      1  C   UNL     1       4.577  -1.384   3.559  0.00  0.00    +0.000 C 
ENDROOT
BRANCH   1   2
ATOM      2  C   UNL     1       3.101  -1.668   3.204  0.00  0.00    +0.000 C 
ATOM      3  C   UNL     1       2.868  -3.077   2.628  0.00  0.00    +0.000 C 
ATOM      4  C   UNL     1       3.002  -4.175   3.681  0.00  0.00    +0.000 C 
ATOM      5  C   UNL     1       2.086  -3.941   4.893  0.00  0.00    +0.000 C 
ATOM      6  C   UNL     1       2.331  -2.542   5.480  0.00  0.00    +0.000 C 
ATOM      7  C   UNL     1       2.208  -1.431   4.435  0.00  0.00    +0.000 C 
BRANCH   5   8
ATOM      8  C   UNL     1       0.601  -4.163   4.553  0.00  0.00    +0.000 C 
BRANCH   8   9
ATOM      9  O   UNL     1       0.405  -5.511   4.110  0.00  0.00    +0.000 OA
BRANCH   9  10
ATOM     10  C   UNL     1      -0.965  -5.745   3.781  0.00  0.00    +0.000 C 
BRANCH  10  11
ATOM     11  C   UNL     1      -1.105  -7.159   3.328  0.00  0.00    +0.000 A 
ATOM     12  C   UNL     1      -2.226  -7.856   2.916  0.00  0.00    +0.000 A 
ATOM     13  C   UNL     1      -1.830  -9.176   2.604  0.00  0.00    +0.000 A 
ATOM     14  C   UNL     1      -0.474  -9.257   2.829  0.00  0.00    +0.000 A 
ATOM     15  N   UNL     1      -0.041  -8.029   3.257  0.00  0.00    +0.000 N 
ATOM     16  H   UNL     1       0.910  -7.778   3.496  0.00  0.00    +0.000 HD
ENDBRANCH  10  11
ENDBRANCH   9  10
ENDBRANCH   8   9
ENDBRANCH   5   8
ENDBRANCH   1   2
BRANCH   1  17
ATOM     17  N   UNL     1       5.420  -1.482   2.371  0.00  0.00    +0.000 NA
ATOM     18  H   UNL     1       5.362  -2.430   2.000  0.00  0.00    +0.000 HD
BRANCH  17  20
ATOM     19  C   UNL     1       7.085   0.192   3.184  0.00  0.00    +0.000 C 
ATOM     20  C   UNL     1       6.839  -1.215   2.632  0.00  0.00    +0.000 C 
BRANCH  20  21
ATOM     21  C   UNL     1       7.575  -1.406   1.318  0.00  0.00    +0.000 A 
ATOM     22  C   UNL     1       7.056  -1.133   0.059  0.00  0.00    +0.000 A 
ATOM     23  S   UNL     1       8.162  -1.427  -1.208  0.00  0.00    +0.000 S 
ATOM     24  C   UNL     1       9.372  -1.914  -0.114  0.00  0.00    +0.000 A 
ATOM     25  N   UNL     1      10.607  -2.283  -0.546  0.00  0.00    +0.000 NA
ATOM     26  C   UNL     1      11.420  -2.618   0.400  0.00  0.00    +0.000 A 
ATOM     27  N   UNL     1      11.107  -2.628   1.738  0.00  0.00    +0.000 N 
ATOM     28  C   UNL     1       9.877  -2.265   2.226  0.00  0.00    +0.000 A 
ATOM     29  O   UNL     1       9.629  -2.280   3.426  0.00  0.00    +0.000 OA
ATOM     30  C   UNL     1       8.933  -1.871   1.194  0.00  0.00    +0.000 A 
ATOM     31  H   UNL     1      11.794  -2.905   2.425  0.00  0.00    +0.000 HD
ENDBRANCH  20  21
ENDBRANCH  17  20
ENDBRANCH   1  17
TORSDOF 8
