REMARK  Name = 
REMARK  8 active torsions:
REMARK  status: ('A' for Active; 'I' for Inactive)
REMARK    1  A    between atoms: C_1  and  C_2
REMARK    2  A    between atoms: C_2  and  N_3
REMARK    3  A    between atoms: C_2  and  C_25
REMARK    4  A    between atoms: N_3  and  C_4
REMARK    5  A    between atoms: C_4  and  C_5
REMARK    6  A    between atoms: C_8  and  C_9
REMARK    7  A    between atoms: C_9  and  N_10
REMARK    8  A    between atoms: C_11  and  C_13
REMARK                            x       y       z     vdW  Elec       q    Type
REMARK                         _______ _______ _______ _____ _____    ______ ____
ROOT
ATOM      1  C   UNL     1      -1.029  -0.307  -1.454  0.00  0.00    +0.000 A 
ATOM      2  C   UNL     1      -1.680  -1.251  -0.659  0.00  0.00    +0.000 A 
ATOM      3  C   UNL     1      -3.069  -1.359  -0.708  0.00  0.00    +0.000 A 
ATOM      4  C   UNL     1      -3.783  -0.526  -1.568  0.00  0.00    +0.000 A 
ATOM      5  N   UNL     1      -3.177   0.421  -2.326  0.00  0.00    +0.000 NA
ATOM      6  C   UNL     1      -1.827   0.507  -2.253  0.00  0.00    +0.000 A 
ENDROOT
BRANCH   1   7
ATOM      7  C   UNL     1       0.472  -0.199  -1.491  0.00  0.00    +0.000 C 
BRANCH   7   8
ATOM      8  N   UNL     1       0.916   1.128  -1.079  0.00  0.00    +0.000 NA
ATOM      9  H   UNL     1       0.547   1.320  -0.146  0.00  0.00    +0.000 HD
BRANCH   8  11
ATOM     10  C   UNL     1       3.047   1.042  -2.398  0.00  0.00    +0.000 C 
ATOM     11  C   UNL     1       2.378   1.288  -1.038  0.00  0.00    +0.000 C 
BRANCH  11  12
ATOM     12  C   UNL     1       2.703   2.685  -0.546  0.00  0.00    +0.000 A 
ATOM     13  C   UNL     1       2.252   3.829  -1.218  0.00  0.00    +0.000 A 
ATOM     14  C   UNL     1       2.545   5.093  -0.718  0.00  0.00    +0.000 A 
ATOM     15  C   UNL     1       3.287   5.178   0.447  0.00  0.00    +0.000 A 
ATOM     16  N   UNL     1       3.748   4.104   1.124  0.00  0.00    +0.000 NA
ATOM     17  C   UNL     1       3.446   2.887   0.613  0.00  0.00    +0.000 A 
ENDBRANCH  11  12
ENDBRANCH   8  11
ENDBRANCH   7   8
ENDBRANCH   1   7
BRANCH   4  18
ATOM     18  C   UNL     1      -5.288  -0.629  -1.651  0.00  0.00    +0.000 C 
BRANCH  18  19
ATOM     19  N   UNL     1      -5.927   0.238  -0.687  0.00  0.00    +0.000 N 
ATOM     20  C   UNL     1      -7.125  -0.082  -0.105  0.00  0.00    +0.000 C 
ATOM     21  O   UNL     1      -7.687  -1.153  -0.316  0.00  0.00    +0.000 OA
ATOM     22  H   UNL     1      -5.603   1.201  -0.684  0.00  0.00    +0.000 HD
BRANCH  20  23
ATOM     23  C   UNL     1      -7.674   0.892   0.845  0.00  0.00    +0.000 A 
ATOM     24  C   UNL     1      -8.564   0.466   1.822  0.00  0.00    +0.000 A 
ATOM     25  S   UNL     1      -9.081   1.709   2.868  0.00  0.00    +0.000 S 
ATOM     26  C   UNL     1      -8.173   2.872   2.021  0.00  0.00    +0.000 A 
ATOM     27  N   UNL     1      -8.195   4.180   2.392  0.00  0.00    +0.000 NA
ATOM     28  C   UNL     1      -7.483   4.957   1.647  0.00  0.00    +0.000 A 
ATOM     29  N   UNL     1      -6.746   4.544   0.567  0.00  0.00    +0.000 N 
ATOM     30  C   UNL     1      -6.668   3.229   0.176  0.00  0.00    +0.000 A 
ATOM     31  O   UNL     1      -5.959   2.883  -0.763  0.00  0.00    +0.000 OA
ATOM     32  C   UNL     1      -7.465   2.315   0.971  0.00  0.00    +0.000 A 
ATOM     33  H   UNL     1      -6.199   5.201   0.031  0.00  0.00    +0.000 HD
ENDBRANCH  20  23
ENDBRANCH  18  19
ENDBRANCH   4  18
TORSDOF 7
