REMARK  Name = 
REMARK  5 active torsions:
REMARK  status: ('A' for Active; 'I' for Inactive)
REMARK    1  A    between atoms: C_1  and  C_2
REMARK    2  A    between atoms: C_4  and  C_5
REMARK    3  A    between atoms: C_10  and  O_11
REMARK    4  A    between atoms: O_11  and  C_12
REMARK    5  A    between atoms: C_12  and  C_13
REMARK                            x       y       z     vdW  Elec       q    Type
REMARK                         _______ _______ _______ _____ _____    ______ ____
ROOT
ATOM      1  C   UNL     1       2.453   0.165   0.004  0.00  0.00    +0.000 C 
ATOM      2  C   UNL     1       0.951   0.085   0.013  0.00  0.00    +0.000 A 
ATOM      3  C   UNL     1       0.206   1.280  -0.014  0.00  0.00    +0.000 A 
ATOM      4  C   UNL     1      -1.197   1.267  -0.024  0.00  0.00    +0.000 A 
ATOM      5  C   UNL     1      -1.859   0.041  -0.049  0.00  0.00    +0.000 A 
ATOM      6  C   UNL     1      -1.129  -1.148  -0.030  0.00  0.00    +0.000 A 
ATOM      7  C   UNL     1       0.270  -1.142   0.049  0.00  0.00    +0.000 A 
ENDROOT
BRANCH   4   8
ATOM      8  C   UNL     1      -1.920   2.574  -0.010  0.00  0.00    +0.000 C 
ATOM      9  N   UNL     1      -3.283   2.569   0.004  0.00  0.00    +0.000 N 
ATOM     10  O   UNL     1      -1.311   3.635   0.002  0.00  0.00    +0.000 OA
ATOM     11  H   UNL     1      -3.869   1.753   0.019  0.00  0.00    +0.000 HD
ATOM     12  H   UNL     1      -3.735   3.473   0.030  0.00  0.00    +0.000 HD
ENDBRANCH   4   8
BRANCH   7  13
ATOM     13  O   UNL     1       1.020  -2.289   0.176  0.00  0.00    +0.000 OA
BRANCH  13  14
ATOM     14  C   UNL     1       0.287  -3.425   0.655  0.00  0.00    +0.000 C 
BRANCH  14  15
ATOM     15  C   UNL     1       1.148  -4.542   1.200  0.00  0.00    +0.000 A 
ATOM     16  C   UNL     1       2.545  -4.534   1.119  0.00  0.00    +0.000 A 
ATOM     17  C   UNL     1       3.287  -5.585   1.666  0.00  0.00    +0.000 A 
ATOM     18  C   UNL     1       2.638  -6.649   2.291  0.00  0.00    +0.000 A 
ATOM     19 CL   UNL     1       3.556  -7.931   2.978  0.00  0.00    +0.000 Cl
ATOM     20  C   UNL     1       1.249  -6.679   2.367  0.00  0.00    +0.000 A 
ATOM     21  C   UNL     1       0.508  -5.631   1.821  0.00  0.00    +0.000 A 
ENDBRANCH  14  15
ENDBRANCH  13  14
ENDBRANCH   7  13
TORSDOF 4
