REMARK  Name = 
REMARK  5 active torsions:
REMARK  status: ('A' for Active; 'I' for Inactive)
REMARK    1  A    between atoms: C_2  and  C_4
REMARK    2  A    between atoms: C_7  and  N_8
REMARK    3  A    between atoms: N_8  and  C_9
REMARK    4  A    between atoms: C_9  and  C_10
REMARK    5  A    between atoms: C_14  and  C_15
REMARK                            x       y       z     vdW  Elec       q    Type
REMARK                         _______ _______ _______ _____ _____    ______ ____
ROOT
ATOM      1  C   UNL     1       4.937   3.335   5.188  0.00  0.00    +0.000 C 
ENDROOT
BRANCH   1   2
ATOM      2  C   UNL     1       5.894   4.276   5.862  0.00  0.00    +0.000 A 
ATOM      3  C   UNL     1       5.500   5.538   6.273  0.00  0.00    +0.000 A 
ATOM      4  N   UNL     1       6.316   6.406   6.903  0.00  0.00    +0.000 NA
ATOM      5  C   UNL     1       7.591   5.994   7.128  0.00  0.00    +0.000 A 
ATOM      6  C   UNL     1       8.116   4.747   6.780  0.00  0.00    +0.000 A 
ATOM      7  C   UNL     1       7.212   3.882   6.147  0.00  0.00    +0.000 A 
BRANCH   6   8
ATOM      8  C   UNL     1       9.528   4.374   7.032  0.00  0.00    +0.000 A 
ATOM      9  C   UNL     1      10.212   3.470   6.190  0.00  0.00    +0.000 A 
ATOM     10  C   UNL     1      11.556   3.138   6.398  0.00  0.00    +0.000 A 
ATOM     11  C   UNL     1      12.257   3.711   7.452  0.00  0.00    +0.000 A 
ATOM     12  C   UNL     1      11.602   4.595   8.295  0.00  0.00    +0.000 A 
ATOM     13  F   UNL     1      12.272   5.154   9.311  0.00  0.00    +0.000 F 
ATOM     14  C   UNL     1      10.259   4.920   8.102  0.00  0.00    +0.000 A 
ENDBRANCH   6   8
ENDBRANCH   1   2
BRANCH   1  15
ATOM     15  N   UNL     1       5.497   2.895   3.921  0.00  0.00    +0.000 N 
ATOM     16  H   UNL     1       5.701   3.645   3.265  0.00  0.00    +0.000 HD
BRANCH  15  20
ATOM     17  C   UNL     1       4.764  -0.872   2.187  0.00  0.00    +0.000 A 
ATOM     18  C   UNL     1       4.114  -0.520   3.368  0.00  0.00    +0.000 A 
ATOM     19  C   UNL     1       4.311   0.745   3.928  0.00  0.00    +0.000 A 
ATOM     20  C   UNL     1       5.149   1.690   3.326  0.00  0.00    +0.000 A 
ATOM     21  C   UNL     1       5.797   1.317   2.139  0.00  0.00    +0.000 A 
ATOM     22  C   UNL     1       5.612   0.050   1.571  0.00  0.00    +0.000 A 
BRANCH  17  24
ATOM     23  N   UNL     1       3.470  -2.912   1.880  0.00  0.00    +0.000 N 
ATOM     24  C   UNL     1       4.621  -2.229   1.598  0.00  0.00    +0.000 C 
ATOM     25  O   UNL     1       5.482  -2.714   0.875  0.00  0.00    +0.000 OA
ATOM     26  H   UNL     1       3.348  -3.802   1.414  0.00  0.00    +0.000 HD
ATOM     27  H   UNL     1       2.651  -2.467   2.267  0.00  0.00    +0.000 HD
ENDBRANCH  17  24
ENDBRANCH  15  20
ENDBRANCH   1  15
TORSDOF 5
