REMARK  Name = 
REMARK  7 active torsions:
REMARK  status: ('A' for Active; 'I' for Inactive)
REMARK    1  A    between atoms: N_1  and  C_2
REMARK    2  A    between atoms: C_2  and  C_3
REMARK    3  A    between atoms: C_7  and  C_8
REMARK    4  A    between atoms: C_8  and  C_9
REMARK    5  A    between atoms: C_9  and  N_10
REMARK    6  A    between atoms: C_14  and  C_15
REMARK    7  A    between atoms: C_15  and  O_17
REMARK                            x       y       z     vdW  Elec       q    Type
REMARK                         _______ _______ _______ _____ _____    ______ ____
ROOT
ATOM      1  C   UNL     1       3.622   3.572   4.995  0.00  0.00    +0.000 C 
ENDROOT
BRANCH   1   2
ATOM      2  N   UNL     1       3.822   3.482   6.447  0.00  0.00    +0.000 N 
ATOM      3  C   UNL     1       3.762   4.745   7.078  0.00  0.00    +0.000 A 
ATOM      4  C   UNL     1       3.947   4.815   8.455  0.00  0.00    +0.000 A 
ATOM      5  C   UNL     1       3.879   6.050   9.100  0.00  0.00    +0.000 A 
ATOM      6  C   UNL     1       3.625   7.168   8.330  0.00  0.00    +0.000 A 
ATOM      7  N   UNL     1       3.432   7.098   6.994  0.00  0.00    +0.000 NA
ATOM      8  N   UNL     1       3.493   5.874   6.379  0.00  0.00    +0.000 NA
ATOM      9  H   UNL     1       4.701   3.033   6.690  0.00  0.00    +0.000 HD
BRANCH   6  10
ATOM     10  C   UNL     1       3.552   8.528   8.922  0.00  0.00    +0.000 C 
ATOM     11  O   UNL     1       3.705   8.762  10.107  0.00  0.00    +0.000 OA
BRANCH  10  12
ATOM     12  O   UNL     1       3.303   9.478   7.988  0.00  0.00    +0.000 OA
ATOM     13  H   UNL     1       3.213   9.081   7.091  0.00  0.00    +0.000 HD
ENDBRANCH  10  12
ENDBRANCH   6  10
ENDBRANCH   1   2
BRANCH   1  14
ATOM     14  C   UNL     1       3.709   2.193   4.329  0.00  0.00    +0.000 C 
BRANCH  14  19
ATOM     15  C   UNL     1       1.892   2.598   0.990  0.00  0.00    +0.000 A 
ATOM     16  C   UNL     1       2.976   2.798   0.125  0.00  0.00    +0.000 A 
ATOM     17  C   UNL     1       4.286   2.750   0.603  0.00  0.00    +0.000 A 
ATOM     18  C   UNL     1       4.529   2.519   1.957  0.00  0.00    +0.000 A 
ATOM     19  C   UNL     1       3.462   2.322   2.843  0.00  0.00    +0.000 A 
ATOM     20  C   UNL     1       2.149   2.351   2.347  0.00  0.00    +0.000 A 
BRANCH  15  21
ATOM     21  C   UNL     1       0.474   2.721   0.489  0.00  0.00    +0.000 C 
BRANCH  21  22
ATOM     22  N   UNL     1       0.210   1.834  -0.639  0.00  0.00    +0.000 NA
ATOM     23  H   UNL     1      -0.780   1.879  -0.870  0.00  0.00    +0.000 HD
ATOM     24  H   UNL     1       0.396   0.876  -0.349  0.00  0.00    +0.000 HD
ENDBRANCH  21  22
ENDBRANCH  15  21
ENDBRANCH  14  19
ENDBRANCH   1  14
TORSDOF 7
