REMARK  Name = 
REMARK  7 active torsions:
REMARK  status: ('A' for Active; 'I' for Inactive)
REMARK    1  A    between atoms: C_2  and  C_4
REMARK    2  A    between atoms: C_7  and  N_8
REMARK    3  A    between atoms: N_8  and  C_9
REMARK    4  A    between atoms: C_9  and  C_10
REMARK    5  A    between atoms: C_10  and  C_13
REMARK    6  A    between atoms: C_17  and  C_18
REMARK    7  A    between atoms: C_18  and  C_19
REMARK                            x       y       z     vdW  Elec       q    Type
REMARK                         _______ _______ _______ _____ _____    ______ ____
ROOT
ATOM      1  C   UNL     1       5.836   2.903  -4.727  0.00  0.00    +0.000 C 
ENDROOT
BRANCH   1   2
ATOM      2  C   UNL     1       6.193   3.992  -5.767  0.00  0.00    +0.000 C 
ATOM      3  F   UNL     1       5.061   4.301  -6.472  0.00  0.00    +0.000 F 
ATOM      4  F   UNL     1       6.531   5.143  -5.111  0.00  0.00    +0.000 F 
BRANCH   2   5
ATOM      5  C   UNL     1       7.313   3.485  -6.649  0.00  0.00    +0.000 A 
ATOM      6  C   UNL     1       8.646   3.724  -6.286  0.00  0.00    +0.000 A 
ATOM      7  C   UNL     1       9.683   3.174  -7.030  0.00  0.00    +0.000 A 
ATOM      8  C   UNL     1       9.403   2.364  -8.133  0.00  0.00    +0.000 A 
ATOM      9  C   UNL     1       8.079   2.114  -8.527  0.00  0.00    +0.000 A 
ATOM     10  C   UNL     1       7.042   2.699  -7.784  0.00  0.00    +0.000 A 
BRANCH   9  11
ATOM     11  C   UNL     1       7.749   1.252  -9.729  0.00  0.00    +0.000 C 
BRANCH  11  12
ATOM     12  C   UNL     1       7.551  -0.216  -9.350  0.00  0.00    +0.000 C 
ATOM     13  C   UNL     1       7.130  -1.144 -10.512  0.00  0.00    +0.000 C 
ATOM     14  N   UNL     1       6.029  -1.676  -9.703  0.00  0.00    +0.000 NA
ATOM     15  C   UNL     1       6.235  -0.652  -8.673  0.00  0.00    +0.000 C 
ATOM     16  H   UNL     1       6.177  -2.631  -9.378  0.00  0.00    +0.000 HD
ENDBRANCH  11  12
ENDBRANCH   9  11
ENDBRANCH   2   5
ENDBRANCH   1   2
BRANCH   1  17
ATOM     17  N   UNL     1       4.836   3.348  -3.741  0.00  0.00    +0.000 N 
ATOM     18  H   UNL     1       4.096   3.926  -4.135  0.00  0.00    +0.000 HD
BRANCH  17  22
ATOM     19  C   UNL     1       3.560   0.875  -0.568  0.00  0.00    +0.000 A 
ATOM     20  C   UNL     1       3.010   2.146  -0.770  0.00  0.00    +0.000 A 
ATOM     21  C   UNL     1       3.437   2.930  -1.847  0.00  0.00    +0.000 A 
ATOM     22  C   UNL     1       4.408   2.466  -2.746  0.00  0.00    +0.000 A 
ATOM     23  C   UNL     1       4.973   1.202  -2.486  0.00  0.00    +0.000 A 
ATOM     24  F   UNL     1       5.924   0.693  -3.287  0.00  0.00    +0.000 F 
ATOM     25  C   UNL     1       4.559   0.412  -1.419  0.00  0.00    +0.000 A 
BRANCH  19  27
ATOM     26  N   UNL     1       1.823   0.146   0.948  0.00  0.00    +0.000 N 
ATOM     27  C   UNL     1       3.119  -0.000   0.537  0.00  0.00    +0.000 C 
ATOM     28  O   UNL     1       3.856  -0.844   1.032  0.00  0.00    +0.000 OA
ATOM     29  H   UNL     1       1.491  -0.529   1.626  0.00  0.00    +0.000 HD
ATOM     30  H   UNL     1       1.137   0.642   0.406  0.00  0.00    +0.000 HD
ENDBRANCH  19  27
ENDBRANCH  17  22
ENDBRANCH   1  17
TORSDOF 7
