REMARK  Name = 
REMARK  6 active torsions:
REMARK  status: ('A' for Active; 'I' for Inactive)
REMARK    1  A    between atoms: C_1  and  C_2
REMARK    2  A    between atoms: C_2  and  C_3
REMARK    3  A    between atoms: C_2  and  O_4
REMARK    4  A    between atoms: C_2  and  C_14
REMARK    5  A    between atoms: O_4  and  C_5
REMARK    6  A    between atoms: C_8  and  C_9
REMARK                            x       y       z     vdW  Elec       q    Type
REMARK                         _______ _______ _______ _____ _____    ______ ____
ROOT
ATOM      1  O   UNL     1       2.863  -0.225   1.420  0.00  0.00    +0.000 OA
ENDROOT
BRANCH   1   2
ATOM      2  C   UNL     1       2.411   0.660   2.371  0.00  0.00    +0.000 A 
ATOM      3  C   UNL     1       3.137   0.761   3.546  0.00  0.00    +0.000 A 
ATOM      4  C   UNL     1       2.700   1.668   4.519  0.00  0.00    +0.000 A 
ATOM      5  C   UNL     1       1.545   2.426   4.297  0.00  0.00    +0.000 A 
ATOM      6  C   UNL     1       0.878   2.222   3.101  0.00  0.00    +0.000 A 
ATOM      7  N   UNL     1       1.286   1.359   2.141  0.00  0.00    +0.000 NA
BRANCH   5   8
ATOM      8  C   UNL     1       1.094   3.402   5.315  0.00  0.00    +0.000 C 
ATOM      9  N   UNL     1      -0.017   4.160   5.067  0.00  0.00    +0.000 N 
ATOM     10  O   UNL     1       1.705   3.539   6.368  0.00  0.00    +0.000 OA
ATOM     11  H   UNL     1      -0.581   4.143   4.232  0.00  0.00    +0.000 HD
ATOM     12  H   UNL     1      -0.281   4.824   5.786  0.00  0.00    +0.000 HD
ENDBRANCH   5   8
ENDBRANCH   1   2
BRANCH   1  14
ATOM     13  C   UNL     1       0.996  -0.097  -0.242  0.00  0.00    +0.000 C 
ATOM     14  C   UNL     1       2.511   0.007   0.031  0.00  0.00    +0.000 C 
ATOM     15  C   UNL     1       3.080   1.375  -0.412  0.00  0.00    +0.000 C 
BRANCH  14  16
ATOM     16  C   UNL     1       3.169  -1.140  -0.780  0.00  0.00    +0.000 A 
ATOM     17  C   UNL     1       3.534  -0.972  -2.131  0.00  0.00    +0.000 A 
ATOM     18  C   UNL     1       4.137  -2.004  -2.857  0.00  0.00    +0.000 A 
ATOM     19  C   UNL     1       4.366  -3.232  -2.250  0.00  0.00    +0.000 A 
ATOM     20 CL   UNL     1       5.133  -4.492  -3.135  0.00  0.00    +0.000 Cl
ATOM     21  C   UNL     1       3.974  -3.445  -0.932  0.00  0.00    +0.000 A 
ATOM     22  C   UNL     1       3.373  -2.409  -0.206  0.00  0.00    +0.000 A 
ENDBRANCH  14  16
ENDBRANCH   1  14
TORSDOF 4
