REMARK  Name = 
REMARK  4 active torsions:
REMARK  status: ('A' for Active; 'I' for Inactive)
REMARK    1  A    between atoms: C_2  and  C_4
REMARK    2  A    between atoms: N_8  and  C_9
REMARK    3  A    between atoms: C_9  and  C_10
REMARK    4  A    between atoms: C_15  and  C_16
REMARK                            x       y       z     vdW  Elec       q    Type
REMARK                         _______ _______ _______ _____ _____    ______ ____
ROOT
ATOM      1  C   UNL     1       5.513  -5.618   1.447  0.00  0.00    +0.000 C 
ATOM      2  C   UNL     1       5.595  -6.413   0.151  0.00  0.00    +0.000 C 
ATOM      3  C   UNL     1       4.377  -6.516   1.004  0.00  0.00    +0.000 C 
ENDROOT
BRANCH   1   8
ATOM      4  C   UNL     1       3.238  -1.147   2.974  0.00  0.00    +0.000 A 
ATOM      5  C   UNL     1       2.832  -2.460   3.197  0.00  0.00    +0.000 A 
ATOM      6  C   UNL     1       3.576  -3.508   2.641  0.00  0.00    +0.000 A 
ATOM      7  C   UNL     1       4.720  -3.222   1.904  0.00  0.00    +0.000 A 
ATOM      8  N   UNL     1       5.491  -4.171   1.247  0.00  0.00    +0.000 N 
ATOM      9  N   UNL     1       5.133  -1.952   1.709  0.00  0.00    +0.000 NA
ATOM     10  C   UNL     1       4.383  -0.947   2.224  0.00  0.00    +0.000 A 
ATOM     11  H   UNL     1       6.324  -3.709   0.896  0.00  0.00    +0.000 HD
BRANCH   4  13
ATOM     12  N   UNL     1       1.713  -0.112   4.563  0.00  0.00    +0.000 N 
ATOM     13  C   UNL     1       2.492   0.037   3.444  0.00  0.00    +0.000 C 
ATOM     14  O   UNL     1       2.587   1.119   2.884  0.00  0.00    +0.000 OA
ATOM     15  H   UNL     1       1.298   0.734   4.931  0.00  0.00    +0.000 HD
ATOM     16  H   UNL     1       1.805  -0.898   5.190  0.00  0.00    +0.000 HD
ENDBRANCH   4  13
ENDBRANCH   1   8
BRANCH   1  17
ATOM     17  C   UNL     1       6.345  -6.043   2.650  0.00  0.00    +0.000 A 
ATOM     18  C   UNL     1       7.715  -6.324   2.548  0.00  0.00    +0.000 A 
ATOM     19  C   UNL     1       8.486  -6.543   3.689  0.00  0.00    +0.000 A 
ATOM     20  C   UNL     1       7.900  -6.478   4.952  0.00  0.00    +0.000 A 
ATOM     21  F   UNL     1       8.698  -6.646   6.018  0.00  0.00    +0.000 F 
ATOM     22  C   UNL     1       6.532  -6.229   5.118  0.00  0.00    +0.000 A 
ATOM     23  C   UNL     1       5.779  -6.043   3.942  0.00  0.00    +0.000 A 
BRANCH  22  24
ATOM     24  C   UNL     1       5.889  -6.100   6.446  0.00  0.00    +0.000 A 
ATOM     25  C   UNL     1       6.527  -5.493   7.537  0.00  0.00    +0.000 A 
ATOM     26  C   UNL     1       5.871  -5.352   8.761  0.00  0.00    +0.000 A 
ATOM     27  C   UNL     1       4.572  -5.812   8.869  0.00  0.00    +0.000 A 
ATOM     28  N   UNL     1       3.904  -6.397   7.856  0.00  0.00    +0.000 NA
ATOM     29  C   UNL     1       4.579  -6.533   6.686  0.00  0.00    +0.000 A 
ENDBRANCH  22  24
ENDBRANCH   1  17
TORSDOF 4
