REMARK  Name = 
REMARK  9 active torsions:
REMARK  status: ('A' for Active; 'I' for Inactive)
REMARK    1  A    between atoms: C_1  and  O_2
REMARK    2  A    between atoms: O_2  and  C_3
REMARK    3  A    between atoms: C_10  and  C_11
REMARK    4  A    between atoms: N_13  and  C_14
REMARK    5  A    between atoms: C_14  and  C_15
REMARK    6  A    between atoms: C_18  and  N_19
REMARK    7  A    between atoms: N_19  and  C_20
REMARK    8  A    between atoms: C_20  and  C_21
REMARK    9  A    between atoms: C_21  and  N_22
REMARK                            x       y       z     vdW  Elec       q    Type
REMARK                         _______ _______ _______ _____ _____    ______ ____
ROOT
ATOM      1  C   UNL     1       2.948   1.019   3.262  0.00  0.00    +0.000 C 
ENDROOT
BRANCH   1   2
ATOM      2  C   UNL     1       1.894   2.033   2.911  0.00  0.00    +0.000 A 
ATOM      3  C   UNL     1       0.582   1.628   2.649  0.00  0.00    +0.000 A 
ATOM      4  C   UNL     1      -0.412   2.569   2.358  0.00  0.00    +0.000 A 
ATOM      5  C   UNL     1      -0.130   3.938   2.346  0.00  0.00    +0.000 A 
ATOM      6  C   UNL     1       1.204   4.328   2.516  0.00  0.00    +0.000 A 
ATOM      7  C   UNL     1       2.205   3.393   2.807  0.00  0.00    +0.000 A 
BRANCH   5   8
ATOM      8  N   UNL     1      -1.069   4.930   2.020  0.00  0.00    +0.000 N 
ATOM      9  H   UNL     1      -1.006   5.109   1.018  0.00  0.00    +0.000 HD
BRANCH   8  10
ATOM     10  C   UNL     1      -2.471   4.738   2.426  0.00  0.00    +0.000 C 
BRANCH  10  11
ATOM     11  C   UNL     1      -2.715   5.249   3.866  0.00  0.00    +0.000 C 
BRANCH  11  12
ATOM     12  N   UNL     1      -4.050   4.913   4.407  0.00  0.00    +0.000 NA
ATOM     13  C   UNL     1      -5.177   5.531   3.676  0.00  0.00    +0.000 C 
ATOM     14  C   UNL     1      -5.373   7.033   3.946  0.00  0.00    +0.000 C 
ATOM     15  O   UNL     1      -5.485   7.308   5.347  0.00  0.00    +0.000 OA
ATOM     16  C   UNL     1      -4.340   6.815   6.054  0.00  0.00    +0.000 C 
ATOM     17  C   UNL     1      -4.162   5.303   5.833  0.00  0.00    +0.000 C 
ENDBRANCH  11  12
ENDBRANCH  10  11
ENDBRANCH   8  10
ENDBRANCH   5   8
ENDBRANCH   1   2
BRANCH   1  20
ATOM     18  C   UNL     1       4.524  -0.499   2.169  0.00  0.00    +0.000 C 
ATOM     19  O   UNL     1       4.841  -0.980   3.256  0.00  0.00    +0.000 OA
ATOM     20  N   UNL     1       3.594   0.500   2.083  0.00  0.00    +0.000 N 
ATOM     21  H   UNL     1       3.371   0.922   1.192  0.00  0.00    +0.000 HD
BRANCH  18  29
ATOM     22  C   UNL     1       3.981   0.202  -1.160  0.00  0.00    +0.000 A 
ATOM     23  N   UNL     1       3.996   0.295  -2.505  0.00  0.00    +0.000 NA
ATOM     24  C   UNL     1       4.877  -0.450  -3.178  0.00  0.00    +0.000 A 
ATOM     25  N   UNL     1       5.765  -1.297  -2.665  0.00  0.00    +0.000 NA
ATOM     26  C   UNL     1       5.722  -1.355  -1.324  0.00  0.00    +0.000 A 
ATOM     27  S   UNL     1       6.784  -2.392  -0.499  0.00  0.00    +0.000 S 
ATOM     28  C   UNL     1       6.152  -1.922   1.005  0.00  0.00    +0.000 A 
ATOM     29  C   UNL     1       5.139  -0.973   0.919  0.00  0.00    +0.000 A 
ATOM     30  C   UNL     1       4.877  -0.641  -0.479  0.00  0.00    +0.000 A 
BRANCH  22  32
ATOM     31  C   UNL     1       1.937   1.332  -1.233  0.00  0.00    +0.000 C 
ATOM     32  O   UNL     1       3.092   0.997  -0.466  0.00  0.00    +0.000 OA
ENDBRANCH  22  32
ENDBRANCH  18  29
ENDBRANCH   1  20
TORSDOF 8
