REMARK  Name = 
REMARK  10 active torsions:
REMARK  status: ('A' for Active; 'I' for Inactive)
REMARK    1  A    between atoms: C_1  and  O_2
REMARK    2  A    between atoms: O_2  and  C_3
REMARK    3  A    between atoms: C_6  and  C_7
REMARK    4  A    between atoms: C_7  and  N_8
REMARK    5  A    between atoms: N_8  and  C_9
REMARK    6  A    between atoms: C_9  and  C_10
REMARK    7  A    between atoms: C_13  and  C_14
REMARK    8  A    between atoms: C_14  and  N_15
REMARK    9  A    between atoms: C_16  and  C_18
REMARK   10  A    between atoms: C_31  and  O_32
REMARK                            x       y       z     vdW  Elec       q    Type
REMARK                         _______ _______ _______ _____ _____    ______ ____
ROOT
ATOM      1  C   UNL     1       4.449   8.426  -0.115  0.00  0.00    +0.000 A 
ATOM      2  C   UNL     1       3.072   8.240   0.084  0.00  0.00    +0.000 A 
ATOM      3  C   UNL     1       2.200   9.333   0.132  0.00  0.00    +0.000 A 
ATOM      4  C   UNL     1       2.685  10.638  -0.013  0.00  0.00    +0.000 A 
ATOM      5  C   UNL     1       4.064  10.829  -0.170  0.00  0.00    +0.000 A 
ATOM      6  C   UNL     1       4.935   9.736  -0.229  0.00  0.00    +0.000 A 
ENDROOT
BRANCH   1   7
ATOM      7  C   UNL     1       5.388   7.240  -0.196  0.00  0.00    +0.000 C 
BRANCH   7   8
ATOM      8  N   UNL     1       5.061   6.391  -1.338  0.00  0.00    +0.000 NA
ATOM      9  H   UNL     1       4.100   6.066  -1.256  0.00  0.00    +0.000 HD
BRANCH   8  10
ATOM     10  C   UNL     1       5.938   5.227  -1.438  0.00  0.00    +0.000 C 
BRANCH  10  14
ATOM     11  C   UNL     1       4.738   2.817  -4.846  0.00  0.00    +0.000 A 
ATOM     12  C   UNL     1       4.762   2.263  -3.564  0.00  0.00    +0.000 A 
ATOM     13  C   UNL     1       5.157   3.035  -2.461  0.00  0.00    +0.000 A 
ATOM     14  C   UNL     1       5.535   4.374  -2.622  0.00  0.00    +0.000 A 
ATOM     15  C   UNL     1       5.523   4.925  -3.912  0.00  0.00    +0.000 A 
ATOM     16  C   UNL     1       5.124   4.154  -5.005  0.00  0.00    +0.000 A 
BRANCH  11  18
ATOM     17  C   UNL     1       3.957   0.803  -5.858  0.00  0.00    +0.000 C 
ATOM     18  O   UNL     1       4.357   2.159  -5.985  0.00  0.00    +0.000 OA
ENDBRANCH  11  18
BRANCH  16  19
ATOM     19  O   UNL     1       5.103   4.716  -6.254  0.00  0.00    +0.000 OA
ATOM     20  H   UNL     1       5.330   5.655  -6.176  0.00  0.00    +0.000 HD
ENDBRANCH  16  19
ENDBRANCH  10  14
ENDBRANCH   8  10
ENDBRANCH   7   8
ENDBRANCH   1   7
BRANCH   4  21
ATOM     21  C   UNL     1       1.750  11.818   0.043  0.00  0.00    +0.000 C 
BRANCH  21  22
ATOM     22  N   UNL     1       1.588  12.289   1.396  0.00  0.00    +0.000 N 
ATOM     23  C   UNL     1       0.701  13.288   1.701  0.00  0.00    +0.000 C 
ATOM     24  O   UNL     1      -0.028  13.794   0.853  0.00  0.00    +0.000 OA
ATOM     25  H   UNL     1       2.319  12.045   2.056  0.00  0.00    +0.000 HD
BRANCH  23  26
ATOM     26  C   UNL     1       0.620  13.684   3.115  0.00  0.00    +0.000 A 
ATOM     27  C   UNL     1      -0.525  14.313   3.586  0.00  0.00    +0.000 A 
ATOM     28  S   UNL     1      -0.480  14.660   5.254  0.00  0.00    +0.000 S 
ATOM     29  C   UNL     1       1.093  14.028   5.398  0.00  0.00    +0.000 A 
ATOM     30  N   UNL     1       1.744  14.042   6.592  0.00  0.00    +0.000 NA
ATOM     31  C   UNL     1       2.943  13.563   6.553  0.00  0.00    +0.000 A 
ATOM     32  N   UNL     1       3.548  13.068   5.426  0.00  0.00    +0.000 N 
ATOM     33  C   UNL     1       2.919  13.005   4.206  0.00  0.00    +0.000 A 
ATOM     34  O   UNL     1       3.475  12.516   3.228  0.00  0.00    +0.000 OA
ATOM     35  C   UNL     1       1.571  13.543   4.193  0.00  0.00    +0.000 A 
ATOM     36  H   UNL     1       4.487  12.700   5.463  0.00  0.00    +0.000 HD
ENDBRANCH  23  26
ENDBRANCH  21  22
ENDBRANCH   4  21
TORSDOF 9
