REMARK  Name = 
REMARK  8 active torsions:
REMARK  status: ('A' for Active; 'I' for Inactive)
REMARK    1  A    between atoms: C_1  and  C_2
REMARK    2  A    between atoms: C_2  and  O_3
REMARK    3  A    between atoms: C_5  and  N_6
REMARK    4  A    between atoms: C_9  and  C_10
REMARK    5  A    between atoms: C_10  and  C_13
REMARK    6  A    between atoms: C_13  and  N_14
REMARK    7  A    between atoms: N_14  and  C_15
REMARK    8  A    between atoms: C_18  and  C_19
REMARK                            x       y       z     vdW  Elec       q    Type
REMARK                         _______ _______ _______ _____ _____    ______ ____
ROOT
ATOM      1  C   UNL     1       6.767  -4.660   1.688  0.00  0.00    +0.000 C 
ATOM      2  F   UNL     1       5.558  -5.243   1.427  0.00  0.00    +0.000 F 
ATOM      3  F   UNL     1       7.253  -4.285   0.462  0.00  0.00    +0.000 F 
ENDROOT
BRANCH   1   7
ATOM      4  N   UNL     1       4.801  -0.209   2.468  0.00  0.00    +0.000 N 
ATOM      5  C   UNL     1       5.612  -1.259   2.968  0.00  0.00    +0.000 A 
ATOM      6  C   UNL     1       5.767  -2.393   2.173  0.00  0.00    +0.000 A 
ATOM      7  C   UNL     1       6.593  -3.450   2.598  0.00  0.00    +0.000 A 
ATOM      8  C   UNL     1       7.208  -3.317   3.846  0.00  0.00    +0.000 A 
ATOM      9  C   UNL     1       6.995  -2.163   4.579  0.00  0.00    +0.000 A 
ATOM     10  N   UNL     1       6.227  -1.133   4.157  0.00  0.00    +0.000 NA
ATOM     11  H   UNL     1       3.839  -0.537   2.424  0.00  0.00    +0.000 HD
BRANCH   4  15
ATOM     12  C   UNL     1       5.928   3.791   0.917  0.00  0.00    +0.000 C 
ATOM     13  C   UNL     1       5.469   3.068   2.175  0.00  0.00    +0.000 C 
ATOM     14  C   UNL     1       6.257   1.771   2.487  0.00  0.00    +0.000 C 
ATOM     15  C   UNL     1       4.918   1.138   2.942  0.00  0.00    +0.000 C 
ATOM     16  C   UNL     1       4.209   2.163   2.019  0.00  0.00    +0.000 C 
BRANCH  13  17
ATOM     17  O   UNL     1       5.398   4.019   3.262  0.00  0.00    +0.000 OA
ATOM     18  H   UNL     1       6.313   4.325   3.388  0.00  0.00    +0.000 HD
ENDBRANCH  13  17
ENDBRANCH   4  15
ENDBRANCH   1   7
BRANCH   1  19
ATOM     19  C   UNL     1       7.724  -5.740   2.255  0.00  0.00    +0.000 C 
BRANCH  19  20
ATOM     20  N   UNL     1       7.907  -6.941   1.414  0.00  0.00    +0.000 N 
ATOM     21  H   UNL     1       8.190  -6.716   0.457  0.00  0.00    +0.000 HD
BRANCH  20  22
ATOM     22  C   UNL     1       8.821  -7.862   1.974  0.00  0.00    +0.000 A 
ATOM     23  N   UNL     1       9.361  -7.600   3.188  0.00  0.00    +0.000 NA
ATOM     24  C   UNL     1      10.246  -8.496   3.705  0.00  0.00    +0.000 A 
ATOM     25  C   UNL     1      10.601  -9.678   3.079  0.00  0.00    +0.000 A 
ATOM     26  C   UNL     1      10.025  -9.959   1.839  0.00  0.00    +0.000 A 
ATOM     27  C   UNL     1       9.133  -9.044   1.290  0.00  0.00    +0.000 A 
ATOM     28  F   UNL     1       8.593  -9.307   0.091  0.00  0.00    +0.000 F 
BRANCH  25  29
ATOM     29  C   UNL     1      11.596 -10.565   3.707  0.00  0.00    +0.000 C 
ATOM     30  N   UNL     1      11.534 -11.898   3.407  0.00  0.00    +0.000 N 
ATOM     31  O   UNL     1      12.437 -10.123   4.478  0.00  0.00    +0.000 OA
ATOM     32  H   UNL     1      10.772 -12.331   2.904  0.00  0.00    +0.000 HD
ATOM     33  H   UNL     1      12.191 -12.508   3.878  0.00  0.00    +0.000 HD
ENDBRANCH  25  29
ENDBRANCH  20  22
ENDBRANCH  19  20
ENDBRANCH   1  19
TORSDOF 7
