REMARK  Name = 
REMARK  7 active torsions:
REMARK  status: ('A' for Active; 'I' for Inactive)
REMARK    1  A    between atoms: C_1  and  O_2
REMARK    2  A    between atoms: O_2  and  C_3
REMARK    3  A    between atoms: C_7  and  C_8
REMARK    4  A    between atoms: C_8  and  N_9
REMARK    5  A    between atoms: C_15  and  C_16
REMARK    6  A    between atoms: C_16  and  N_17
REMARK    7  A    between atoms: C_20  and  C_21
REMARK                            x       y       z     vdW  Elec       q    Type
REMARK                         _______ _______ _______ _____ _____    ______ ____
ROOT
ATOM      1  N   UNL     1       2.255   4.924   1.533  0.00  0.00    +0.000 N 
ATOM      2  C   UNL     1       2.465   4.818   2.888  0.00  0.00    +0.000 A 
ATOM      3  C   UNL     1       1.404   5.402   3.540  0.00  0.00    +0.000 A 
ATOM      4  C   UNL     1       0.509   5.888   2.552  0.00  0.00    +0.000 A 
ATOM      5  C   UNL     1      -0.689   6.610   2.608  0.00  0.00    +0.000 A 
ATOM      6  N   UNL     1      -1.332   6.974   1.475  0.00  0.00    +0.000 NA
ATOM      7  C   UNL     1      -0.819   6.606   0.272  0.00  0.00    +0.000 A 
ATOM      8  C   UNL     1       0.369   5.887   0.123  0.00  0.00    +0.000 A 
ATOM      9  C   UNL     1       1.037   5.546   1.306  0.00  0.00    +0.000 A 
ENDROOT
BRANCH   1  10
ATOM     10  C   UNL     1       3.298   4.712   0.528  0.00  0.00    +0.000 C 
BRANCH  10  15
ATOM     11  C   UNL     1       4.287   1.254  -0.592  0.00  0.00    +0.000 A 
ATOM     12  N   UNL     1       3.506   1.089  -1.671  0.00  0.00    +0.000 NA
ATOM     13  C   UNL     1       2.632   2.069  -1.899  0.00  0.00    +0.000 A 
ATOM     14  N   UNL     1       2.511   3.197  -1.186  0.00  0.00    +0.000 NA
ATOM     15  C   UNL     1       3.314   3.336  -0.098  0.00  0.00    +0.000 A 
ATOM     16  C   UNL     1       4.200   2.333   0.285  0.00  0.00    +0.000 A 
ATOM     17  C   UNL     1       5.089   2.388   1.490  0.00  0.00    +0.000 C 
BRANCH  11  19
ATOM     18  C   UNL     1       5.457  -0.624  -1.400  0.00  0.00    +0.000 C 
ATOM     19  O   UNL     1       5.293   0.332  -0.354  0.00  0.00    +0.000 OA
ENDBRANCH  11  19
ENDBRANCH  10  15
ENDBRANCH   1  10
BRANCH   7  20
ATOM     20  C   UNL     1      -1.557   7.113  -0.949  0.00  0.00    +0.000 C 
BRANCH  20  21
ATOM     21  N   UNL     1      -1.004   8.384  -1.431  0.00  0.00    +0.000 NA
ATOM     22  H   UNL     1      -0.930   9.002  -0.620  0.00  0.00    +0.000 HD
ATOM     23  H   UNL     1      -1.687   8.820  -2.046  0.00  0.00    +0.000 HD
ENDBRANCH  20  21
ENDBRANCH   7  20
TORSDOF 5
