REMARK  Name = 
REMARK  7 active torsions:
REMARK  status: ('A' for Active; 'I' for Inactive)
REMARK    1  A    between atoms: C_1  and  C_2
REMARK    2  A    between atoms: C_2  and  C_3
REMARK    3  A    between atoms: C_7  and  C_8
REMARK    4  A    between atoms: C_8  and  C_9
REMARK    5  A    between atoms: C_9  and  N_10
REMARK    6  A    between atoms: N_10  and  C_11
REMARK    7  A    between atoms: C_14  and  C_15
REMARK                            x       y       z     vdW  Elec       q    Type
REMARK                         _______ _______ _______ _____ _____    ______ ____
ROOT
ATOM      1  C   UNL     1       3.186   3.575  -4.090  0.00  0.00    +0.000 C 
ENDROOT
BRANCH   1   2
ATOM      2  N   UNL     1       3.679   4.856  -4.614  0.00  0.00    +0.000 N 
ATOM      3  H   UNL     1       4.331   4.735  -5.385  0.00  0.00    +0.000 HD
BRANCH   2   4
ATOM      4  C   UNL     1       2.709   5.830  -4.917  0.00  0.00    +0.000 A 
ATOM      5  C   UNL     1       1.498   5.942  -4.219  0.00  0.00    +0.000 A 
ATOM      6  C   UNL     1       0.577   6.950  -4.515  0.00  0.00    +0.000 A 
ATOM      7  C   UNL     1       0.864   7.904  -5.490  0.00  0.00    +0.000 A 
ATOM      8  C   UNL     1       2.085   7.842  -6.167  0.00  0.00    +0.000 A 
ATOM      9  C   UNL     1       3.002   6.822  -5.868  0.00  0.00    +0.000 A 
BRANCH   7  10
ATOM     10  C   UNL     1      -0.163   8.944  -5.761  0.00  0.00    +0.000 C 
ATOM     11  N   UNL     1       0.263  10.138  -6.271  0.00  0.00    +0.000 N 
ATOM     12  O   UNL     1      -1.344   8.763  -5.500  0.00  0.00    +0.000 OA
ATOM     13  H   UNL     1       1.232  10.416  -6.266  0.00  0.00    +0.000 HD
ATOM     14  H   UNL     1      -0.437  10.869  -6.320  0.00  0.00    +0.000 HD
ENDBRANCH   7  10
ENDBRANCH   2   4
ENDBRANCH   1   2
BRANCH   1  15
ATOM     15  C   UNL     1       4.334   2.596  -3.812  0.00  0.00    +0.000 C 
BRANCH  15  20
ATOM     16  C   UNL     1       2.887   0.039  -1.348  0.00  0.00    +0.000 A 
ATOM     17  C   UNL     1       2.586  -1.008  -2.242  0.00  0.00    +0.000 A 
ATOM     18  C   UNL     1       2.871  -0.910  -3.605  0.00  0.00    +0.000 A 
ATOM     19  C   UNL     1       3.459   0.243  -4.114  0.00  0.00    +0.000 A 
ATOM     20  C   UNL     1       3.789   1.297  -3.257  0.00  0.00    +0.000 A 
ATOM     21  C   UNL     1       3.516   1.177  -1.880  0.00  0.00    +0.000 A 
BRANCH  16  23
ATOM     22  C   UNL     1       0.903  -0.148   0.160  0.00  0.00    +0.000 C 
ATOM     23  C   UNL     1       2.441  -0.067   0.122  0.00  0.00    +0.000 C 
ATOM     24  C   UNL     1       3.098  -1.263   0.820  0.00  0.00    +0.000 C 
ATOM     25  C   UNL     1       4.333  -0.687   1.495  0.00  0.00    +0.000 C 
ATOM     26  O   UNL     1       4.233   0.740   1.461  0.00  0.00    +0.000 OA
ATOM     27  C   UNL     1       2.898   1.062   1.059  0.00  0.00    +0.000 C 
ENDBRANCH  16  23
ENDBRANCH  15  20
ENDBRANCH   1  15
TORSDOF 6
