REMARK  Name = 
REMARK  6 active torsions:
REMARK  status: ('A' for Active; 'I' for Inactive)
REMARK    1  A    between atoms: C_1  and  S_2
REMARK    2  A    between atoms: S_2  and  C_3
REMARK    3  A    between atoms: C_6  and  C_7
REMARK    4  A    between atoms: C_7  and  O_8
REMARK    5  A    between atoms: O_8  and  C_9
REMARK    6  A    between atoms: C_12  and  C_13
REMARK                            x       y       z     vdW  Elec       q    Type
REMARK                         _______ _______ _______ _____ _____    ______ ____
ROOT
ATOM      1  C   UNL     1       5.215   3.228  -6.956  0.00  0.00    +0.000 A 
ATOM      2  C   UNL     1       5.810   2.614  -8.043  0.00  0.00    +0.000 A 
ATOM      3  C   UNL     1       6.080   3.389  -9.173  0.00  0.00    +0.000 A 
ATOM      4  C   UNL     1       5.743   4.748  -9.182  0.00  0.00    +0.000 A 
ATOM      5  C   UNL     1       5.153   5.264  -8.039  0.00  0.00    +0.000 A 
ATOM      6  N   UNL     1       4.887   4.538  -6.928  0.00  0.00    +0.000 NA
ENDROOT
BRANCH   4   7
ATOM      7  C   UNL     1       6.023   5.564 -10.387  0.00  0.00    +0.000 C 
ATOM      8  N   UNL     1       5.680   6.887 -10.388  0.00  0.00    +0.000 N 
ATOM      9  O   UNL     1       6.554   5.067 -11.373  0.00  0.00    +0.000 OA
ATOM     10  H   UNL     1       5.232   7.392  -9.640  0.00  0.00    +0.000 HD
ATOM     11  H   UNL     1       5.884   7.404 -11.235  0.00  0.00    +0.000 HD
ENDBRANCH   4   7
BRANCH   1  12
ATOM     12  O   UNL     1       4.943   2.448  -5.854  0.00  0.00    +0.000 OA
BRANCH  12  13
ATOM     13  C   UNL     1       4.357   3.212  -4.791  0.00  0.00    +0.000 C 
BRANCH  13  17
ATOM     14  C   UNL     1       3.503   0.785  -1.453  0.00  0.00    +0.000 A 
ATOM     15  C   UNL     1       2.743   1.912  -1.747  0.00  0.00    +0.000 A 
ATOM     16  N   UNL     1       2.985   2.707  -2.820  0.00  0.00    +0.000 NA
ATOM     17  C   UNL     1       4.024   2.334  -3.614  0.00  0.00    +0.000 A 
ATOM     18  C   UNL     1       4.792   1.218  -3.304  0.00  0.00    +0.000 A 
ATOM     19  N   UNL     1       4.547   0.427  -2.233  0.00  0.00    +0.000 NA
BRANCH  14  21
ATOM     20  C   UNL     1       4.413  -1.477  -0.189  0.00  0.00    +0.000 C 
ATOM     21  S   UNL     1       3.118  -0.218  -0.035  0.00  0.00    +0.000 S 
ENDBRANCH  14  21
ENDBRANCH  13  17
ENDBRANCH  12  13
ENDBRANCH   1  12
TORSDOF 5
