REMARK  Name = 
REMARK  6 active torsions:
REMARK  status: ('A' for Active; 'I' for Inactive)
REMARK    1  A    between atoms: C_1  and  C_2
REMARK    2  A    between atoms: N_9  and  C_10
REMARK    3  A    between atoms: C_10  and  C_11
REMARK    4  A    between atoms: C_14  and  C_15
REMARK    5  A    between atoms: C_15  and  C_16
REMARK    6  A    between atoms: C_16  and  N_17
REMARK                            x       y       z     vdW  Elec       q    Type
REMARK                         _______ _______ _______ _____ _____    ______ ____
ROOT
ATOM      1  C   UNL     1       7.645   0.531  -0.044  0.00  0.00    +0.000 C 
ENDROOT
BRANCH   1  10
ATOM      2  C   UNL     1       3.789  -3.531   3.535  0.00  0.00    +0.000 C 
ATOM      3  C   UNL     1       4.523  -2.661   2.563  0.00  0.00    +0.000 A 
ATOM      4  C   UNL     1       5.500  -1.757   2.980  0.00  0.00    +0.000 A 
ATOM      5  N   UNL     1       6.234  -0.941   2.178  0.00  0.00    +0.000 NA
ATOM      6  C   UNL     1       5.924  -1.065   0.869  0.00  0.00    +0.000 A 
ATOM      7  C   UNL     1       4.964  -1.914   0.320  0.00  0.00    +0.000 A 
ATOM      8  C   UNL     1       4.981  -1.712  -1.086  0.00  0.00    +0.000 A 
ATOM      9  C   UNL     1       5.949  -0.770  -1.361  0.00  0.00    +0.000 A 
ATOM     10  N   UNL     1       6.516  -0.382  -0.168  0.00  0.00    +0.000 N 
ATOM     11  C   UNL     1       4.239  -2.738   1.196  0.00  0.00    +0.000 A 
ENDBRANCH   1  10
BRANCH   1  12
ATOM     12  C   UNL     1       7.203   1.963   0.049  0.00  0.00    +0.000 A 
ATOM     13  C   UNL     1       6.999   2.583   1.283  0.00  0.00    +0.000 A 
ATOM     14  C   UNL     1       6.533   3.895   1.333  0.00  0.00    +0.000 A 
ATOM     15  C   UNL     1       6.278   4.567   0.141  0.00  0.00    +0.000 A 
ATOM     16  N   UNL     1       6.491   3.996  -1.068  0.00  0.00    +0.000 NA
ATOM     17  C   UNL     1       6.945   2.721  -1.088  0.00  0.00    +0.000 A 
BRANCH  15  18
ATOM     18  C   UNL     1       5.690   5.957   0.153  0.00  0.00    +0.000 C 
BRANCH  18  19
ATOM     19  C   UNL     1       4.159   5.909   0.121  0.00  0.00    +0.000 C 
BRANCH  19  20
ATOM     20  N   UNL     1       3.576   7.254   0.135  0.00  0.00    +0.000 NA
ATOM     21  H   UNL     1       3.820   7.731   1.001  0.00  0.00    +0.000 HD
ATOM     22  H   UNL     1       2.559   7.176   0.125  0.00  0.00    +0.000 HD
ENDBRANCH  19  20
ENDBRANCH  18  19
ENDBRANCH  15  18
ENDBRANCH   1  12
TORSDOF 5
