REMARK  Name = 
REMARK  5 active torsions:
REMARK  status: ('A' for Active; 'I' for Inactive)
REMARK    1  A    between atoms: C_2  and  C_4
REMARK    2  A    between atoms: C_7  and  O_8
REMARK    3  A    between atoms: O_8  and  C_9
REMARK    4  A    between atoms: C_9  and  C_10
REMARK    5  A    between atoms: C_14  and  C_15
REMARK                            x       y       z     vdW  Elec       q    Type
REMARK                         _______ _______ _______ _____ _____    ______ ____
ROOT
ATOM      1  C   UNL     1       4.692   5.545  -2.382  0.00  0.00    +0.000 C 
ATOM      2  C   UNL     1       5.026   6.527  -1.268  0.00  0.00    +0.000 C 
ATOM      3  C   UNL     1       3.613   6.368  -1.707  0.00  0.00    +0.000 C 
ENDROOT
BRANCH   1   4
ATOM      4  C   UNL     1       5.078   5.852  -3.818  0.00  0.00    +0.000 A 
ATOM      5  C   UNL     1       6.418   5.850  -4.229  0.00  0.00    +0.000 A 
ATOM      6  C   UNL     1       6.761   5.967  -5.576  0.00  0.00    +0.000 A 
ATOM      7  C   UNL     1       5.763   6.077  -6.547  0.00  0.00    +0.000 A 
ATOM      8  C   UNL     1       4.404   6.106  -6.194  0.00  0.00    +0.000 A 
ATOM      9  C   UNL     1       4.100   6.029  -4.819  0.00  0.00    +0.000 A 
BRANCH   8  10
ATOM     10  C   UNL     1       3.332   6.141  -7.211  0.00  0.00    +0.000 A 
ATOM     11  N   UNL     1       3.679   5.953  -8.501  0.00  0.00    +0.000 NA
ATOM     12  C   UNL     1       2.673   5.892  -9.393  0.00  0.00    +0.000 A 
ATOM     13  C   UNL     1       1.347   6.018  -9.055  0.00  0.00    +0.000 A 
ATOM     14  C   UNL     1       1.096   6.218  -7.720  0.00  0.00    +0.000 A 
ATOM     15  N   UNL     1       2.059   6.276  -6.781  0.00  0.00    +0.000 NA
ENDBRANCH   8  10
ENDBRANCH   1   4
BRANCH   1  16
ATOM     16  O   UNL     1       4.983   4.209  -1.923  0.00  0.00    +0.000 OA
BRANCH  16  20
ATOM     17  C   UNL     1       2.665   0.859  -2.440  0.00  0.00    +0.000 A 
ATOM     18  C   UNL     1       2.158   2.063  -2.926  0.00  0.00    +0.000 A 
ATOM     19  C   UNL     1       2.921   3.230  -2.806  0.00  0.00    +0.000 A 
ATOM     20  C   UNL     1       4.167   3.155  -2.201  0.00  0.00    +0.000 A 
ATOM     21  N   UNL     1       4.679   1.989  -1.748  0.00  0.00    +0.000 NA
ATOM     22  C   UNL     1       3.923   0.873  -1.864  0.00  0.00    +0.000 A 
BRANCH  17  24
ATOM     23  N   UNL     1       0.937  -0.563  -3.396  0.00  0.00    +0.000 N 
ATOM     24  C   UNL     1       1.913  -0.413  -2.451  0.00  0.00    +0.000 C 
ATOM     25  O   UNL     1       2.176  -1.319  -1.670  0.00  0.00    +0.000 OA
ATOM     26  H   UNL     1       0.503  -1.474  -3.444  0.00  0.00    +0.000 HD
ATOM     27  H   UNL     1       0.861   0.039  -4.203  0.00  0.00    +0.000 HD
ENDBRANCH  17  24
ENDBRANCH  16  20
ENDBRANCH   1  16
TORSDOF 5
