REMARK  Name = 
REMARK  3 active torsions:
REMARK  status: ('A' for Active; 'I' for Inactive)
REMARK    1  A    between atoms: C_2  and  C_4
REMARK    2  A    between atoms: N_8  and  C_9
REMARK    3  A    between atoms: C_9  and  C_10
REMARK                            x       y       z     vdW  Elec       q    Type
REMARK                         _______ _______ _______ _____ _____    ______ ____
ROOT
ATOM      1  C   UNL     1       4.112  -3.047   0.405  0.00  0.00    +0.000 A 
ATOM      2  C   UNL     1       3.389  -3.686   1.379  0.00  0.00    +0.000 A 
ATOM      3  N   UNL     1       3.568  -3.458   2.702  0.00  0.00    +0.000 NA
ATOM      4  C   UNL     1       4.531  -2.582   3.053  0.00  0.00    +0.000 A 
ATOM      5  N   UNL     1       4.552  -2.240   4.405  0.00  0.00    +0.000 N 
ATOM      6  N   UNL     1       5.346  -1.983   2.173  0.00  0.00    +0.000 NA
ATOM      7  C   UNL     1       5.114  -2.224   0.862  0.00  0.00    +0.000 A 
ATOM      8  H   UNL     1       3.913  -2.885   4.858  0.00  0.00    +0.000 HD
ENDROOT
BRANCH   1  10
ATOM      9  N   UNL     1       2.542  -3.418  -1.393  0.00  0.00    +0.000 N 
ATOM     10  C   UNL     1       3.836  -3.179  -1.029  0.00  0.00    +0.000 C 
ATOM     11  O   UNL     1       4.716  -3.007  -1.862  0.00  0.00    +0.000 OA
ATOM     12  H   UNL     1       2.336  -3.357  -2.387  0.00  0.00    +0.000 HD
ATOM     13  H   UNL     1       1.759  -3.288  -0.765  0.00  0.00    +0.000 HD
ENDBRANCH   1  10
BRANCH   5  14
ATOM     14  C   UNL     1       5.799  -1.936   5.126  0.00  0.00    +0.000 C 
ATOM     15  C   UNL     1       5.722  -0.703   6.018  0.00  0.00    +0.000 C 
ATOM     16  C   UNL     1       6.647  -0.714   4.847  0.00  0.00    +0.000 C 
BRANCH  14  17
ATOM     17  C   UNL     1       6.477  -3.192   5.659  0.00  0.00    +0.000 A 
ATOM     18  C   UNL     1       6.168  -3.708   6.930  0.00  0.00    +0.000 A 
ATOM     19  C   UNL     1       6.650  -4.951   7.351  0.00  0.00    +0.000 A 
ATOM     20  C   UNL     1       7.466  -5.706   6.510  0.00  0.00    +0.000 A 
ATOM     21 CL   UNL     1       7.954  -7.271   7.055  0.00  0.00    +0.000 Cl
ATOM     22  C   UNL     1       7.831  -5.195   5.261  0.00  0.00    +0.000 A 
ATOM     23 CL   UNL     1       8.837  -6.071   4.162  0.00  0.00    +0.000 Cl
ATOM     24  C   UNL     1       7.344  -3.948   4.849  0.00  0.00    +0.000 A 
ENDBRANCH  14  17
ENDBRANCH   5  14
TORSDOF 3
