REMARK  Name = 
REMARK  8 active torsions:
REMARK  status: ('A' for Active; 'I' for Inactive)
REMARK    1  A    between atoms: C_1  and  C_2
REMARK    2  A    between atoms: C_2  and  N_3
REMARK    3  A    between atoms: C_2  and  C_17
REMARK    4  A    between atoms: C_4  and  C_6
REMARK    5  A    between atoms: N_12  and  C_13
REMARK    6  A    between atoms: C_20  and  O_21
REMARK    7  A    between atoms: O_21  and  C_22
REMARK    8  A    between atoms: C_22  and  C_23
REMARK                            x       y       z     vdW  Elec       q    Type
REMARK                         _______ _______ _______ _____ _____    ______ ____
ROOT
ATOM      1  C   UNL     1       0.954   0.003  -0.100  0.00  0.00    +0.000 C 
ATOM      2  C   UNL     1       2.485  -0.044  -0.021  0.00  0.00    +0.000 C 
ENDROOT
BRANCH   2   3
ATOM      3  C   UNL     1       3.015  -1.314  -0.654  0.00  0.00    +0.000 A 
ATOM      4  C   UNL     1       3.878  -1.267  -1.754  0.00  0.00    +0.000 A 
ATOM      5  C   UNL     1       4.445  -2.436  -2.296  0.00  0.00    +0.000 A 
ATOM      6  C   UNL     1       4.122  -3.678  -1.726  0.00  0.00    +0.000 A 
ATOM      7  C   UNL     1       3.212  -3.721  -0.677  0.00  0.00    +0.000 A 
ATOM      8  C   UNL     1       2.666  -2.577  -0.137  0.00  0.00    +0.000 A 
BRANCH   6   9
ATOM      9  O   UNL     1       4.700  -4.840  -2.202  0.00  0.00    +0.000 OA
BRANCH   9  10
ATOM     10  C   UNL     1       4.788  -5.886  -1.187  0.00  0.00    +0.000 C 
BRANCH  10  11
ATOM     11  C   UNL     1       5.940  -6.833  -1.458  0.00  0.00    +0.000 A 
ATOM     12  C   UNL     1       7.066  -6.353  -2.110  0.00  0.00    +0.000 A 
ATOM     13  C   UNL     1       8.144  -7.200  -2.315  0.00  0.00    +0.000 A 
ATOM     14  C   UNL     1       8.078  -8.514  -1.850  0.00  0.00    +0.000 A 
ATOM     15  C   UNL     1       6.919  -8.907  -1.198  0.00  0.00    +0.000 A 
ATOM     16  N   UNL     1       5.855  -8.101  -0.980  0.00  0.00    +0.000 NA
ENDBRANCH  10  11
ENDBRANCH   9  10
ENDBRANCH   6   9
ENDBRANCH   2   3
BRANCH   2  17
ATOM     17  N   UNL     1       2.996   0.080   1.326  0.00  0.00    +0.000 N 
ATOM     18  C   UNL     1       3.232   1.273   1.941  0.00  0.00    +0.000 C 
ATOM     19  O   UNL     1       3.119   2.355   1.367  0.00  0.00    +0.000 OA
ATOM     20  H   UNL     1       3.074  -0.776   1.876  0.00  0.00    +0.000 HD
BRANCH  18  21
ATOM     21  C   UNL     1       3.692   1.210   3.325  0.00  0.00    +0.000 A 
ATOM     22  C   UNL     1       4.547   2.157   3.871  0.00  0.00    +0.000 A 
ATOM     23  S   UNL     1       4.869   1.886   5.531  0.00  0.00    +0.000 S 
ATOM     24  C   UNL     1       3.876   0.505   5.558  0.00  0.00    +0.000 A 
ATOM     25  N   UNL     1       3.682  -0.208   6.693  0.00  0.00    +0.000 NA
ATOM     26  C   UNL     1       2.900  -1.228   6.562  0.00  0.00    +0.000 A 
ATOM     27  N   UNL     1       2.284  -1.625   5.389  0.00  0.00    +0.000 N 
ATOM     28  C   UNL     1       1.467  -2.820   5.360  0.00  0.00    +0.000 C 
ATOM     29  C   UNL     1       2.489  -0.957   4.198  0.00  0.00    +0.000 A 
ATOM     30  O   UNL     1       2.042  -1.372   3.120  0.00  0.00    +0.000 OA
ATOM     31  C   UNL     1       3.334   0.225   4.315  0.00  0.00    +0.000 A 
ENDBRANCH  18  21
ENDBRANCH   2  17
TORSDOF 6
