REMARK  Name = 
REMARK  8 active torsions:
REMARK  status: ('A' for Active; 'I' for Inactive)
REMARK    1  A    between atoms: C_1  and  C_2
REMARK    2  A    between atoms: C_2  and  N_3
REMARK    3  A    between atoms: C_2  and  C_17
REMARK    4  A    between atoms: C_4  and  C_6
REMARK    5  A    between atoms: N_12  and  C_13
REMARK    6  A    between atoms: C_20  and  C_21
REMARK    7  A    between atoms: C_21  and  O_22
REMARK    8  A    between atoms: C_21  and  C_23
REMARK                            x       y       z     vdW  Elec       q    Type
REMARK                         _______ _______ _______ _____ _____    ______ ____
ROOT
ATOM      1  C   UNL     1       2.970   0.567   1.408  0.00  0.00    +0.000 C 
ATOM      2  C   UNL     1       2.518   0.026   0.047  0.00  0.00    +0.000 C 
ENDROOT
BRANCH   2   3
ATOM      3  C   UNL     1       3.258  -1.264  -0.262  0.00  0.00    +0.000 A 
ATOM      4  C   UNL     1       4.127  -1.325  -1.358  0.00  0.00    +0.000 A 
ATOM      5  C   UNL     1       4.967  -2.426  -1.538  0.00  0.00    +0.000 A 
ATOM      6  C   UNL     1       4.947  -3.496  -0.631  0.00  0.00    +0.000 A 
ATOM      7  C   UNL     1       3.990  -3.486   0.394  0.00  0.00    +0.000 A 
ATOM      8  C   UNL     1       3.159  -2.383   0.581  0.00  0.00    +0.000 A 
BRANCH   6   9
ATOM      9  C   UNL     1       5.940  -4.634  -0.762  0.00  0.00    +0.000 C 
BRANCH   9  10
ATOM     10  C   UNL     1       5.443  -5.744  -1.671  0.00  0.00    +0.000 A 
ATOM     11  C   UNL     1       5.736  -5.726  -3.033  0.00  0.00    +0.000 A 
ATOM     12  C   UNL     1       5.215  -6.728  -3.841  0.00  0.00    +0.000 A 
ATOM     13  C   UNL     1       4.421  -7.717  -3.272  0.00  0.00    +0.000 A 
ATOM     14  C   UNL     1       4.197  -7.677  -1.907  0.00  0.00    +0.000 A 
ATOM     15  N   UNL     1       4.696  -6.726  -1.090  0.00  0.00    +0.000 NA
ENDBRANCH   9  10
BRANCH   9  16
ATOM     16  O   UNL     1       6.223  -5.167   0.542  0.00  0.00    +0.000 OA
ATOM     17  H   UNL     1       5.739  -6.017   0.564  0.00  0.00    +0.000 HD
ENDBRANCH   9  16
ENDBRANCH   6   9
ENDBRANCH   2   3
BRANCH   2  18
ATOM     18  N   UNL     1       1.092  -0.200   0.025  0.00  0.00    +0.000 N 
ATOM     19  C   UNL     1       0.171   0.786  -0.222  0.00  0.00    +0.000 C 
ATOM     20  O   UNL     1       0.481   1.907  -0.611  0.00  0.00    +0.000 OA
ATOM     21  H   UNL     1       0.787  -1.016   0.535  0.00  0.00    +0.000 HD
BRANCH  19  22
ATOM     22  C   UNL     1      -1.231   0.380  -0.061  0.00  0.00    +0.000 A 
ATOM     23  C   UNL     1      -2.236   1.010  -0.780  0.00  0.00    +0.000 A 
ATOM     24  S   UNL     1      -3.774   0.304  -0.551  0.00  0.00    +0.000 S 
ATOM     25  C   UNL     1      -3.153  -0.829   0.558  0.00  0.00    +0.000 A 
ATOM     26  N   UNL     1      -3.949  -1.774   1.122  0.00  0.00    +0.000 NA
ATOM     27  C   UNL     1      -3.346  -2.553   1.960  0.00  0.00    +0.000 A 
ATOM     28  N   UNL     1      -2.016  -2.471   2.317  0.00  0.00    +0.000 N 
ATOM     29  C   UNL     1      -1.446  -3.380   3.288  0.00  0.00    +0.000 C 
ATOM     30  C   UNL     1      -1.177  -1.512   1.763  0.00  0.00    +0.000 A 
ATOM     31  O   UNL     1       0.008  -1.414   2.068  0.00  0.00    +0.000 OA
ATOM     32  C   UNL     1      -1.803  -0.650   0.775  0.00  0.00    +0.000 A 
ENDBRANCH  19  22
ENDBRANCH   2  18
TORSDOF 6
