REMARK  Name = 
REMARK  5 active torsions:
REMARK  status: ('A' for Active; 'I' for Inactive)
REMARK    1  A    between atoms: C_2  and  C_4
REMARK    2  A    between atoms: N_8  and  C_9
REMARK    3  A    between atoms: C_9  and  C_10
REMARK    4  A    between atoms: C_10  and  O_11
REMARK    5  A    between atoms: C_10  and  C_12
REMARK                            x       y       z     vdW  Elec       q    Type
REMARK                         _______ _______ _______ _____ _____    ______ ____
ROOT
ATOM      1  C   UNL     1       2.867  -1.552   0.053  0.00  0.00    +0.000 A 
ATOM      2  C   UNL     1       4.151  -1.361   0.556  0.00  0.00    +0.000 A 
ATOM      3  C   UNL     1       4.962  -2.475   0.789  0.00  0.00    +0.000 A 
ATOM      4  C   UNL     1       4.494  -3.754   0.481  0.00  0.00    +0.000 A 
ATOM      5  N   UNL     1       5.284  -4.872   0.767  0.00  0.00    +0.000 N 
ATOM      6  N   UNL     1       3.246  -3.944   0.005  0.00  0.00    +0.000 NA
ATOM      7  C   UNL     1       2.454  -2.853  -0.179  0.00  0.00    +0.000 A 
ATOM      8  H   UNL     1       6.254  -4.665   0.974  0.00  0.00    +0.000 HD
ENDROOT
BRANCH   1  10
ATOM      9  N   UNL     1       2.472   0.764  -0.557  0.00  0.00    +0.000 N 
ATOM     10  C   UNL     1       1.923  -0.448  -0.222  0.00  0.00    +0.000 C 
ATOM     11  O   UNL     1       0.715  -0.609  -0.189  0.00  0.00    +0.000 OA
ATOM     12  H   UNL     1       1.820   1.479  -0.865  0.00  0.00    +0.000 HD
ATOM     13  H   UNL     1       3.436   0.858  -0.842  0.00  0.00    +0.000 HD
ENDBRANCH   1  10
BRANCH   5  14
ATOM     14  C   UNL     1       5.069  -6.016  -0.130  0.00  0.00    +0.000 C 
BRANCH  14  15
ATOM     15  C   UNL     1       6.080  -7.157   0.166  0.00  0.00    +0.000 C 
BRANCH  15  16
ATOM     16  C   UNL     1       5.923  -8.354  -0.749  0.00  0.00    +0.000 A 
ATOM     17  C   UNL     1       7.003  -8.795  -1.531  0.00  0.00    +0.000 A 
ATOM     18  C   UNL     1       6.864  -9.902  -2.371  0.00  0.00    +0.000 A 
ATOM     19 CL   UNL     1       8.198 -10.415  -3.330  0.00  0.00    +0.000 Cl
ATOM     20  C   UNL     1       5.658 -10.592  -2.447  0.00  0.00    +0.000 A 
ATOM     21  C   UNL     1       4.587 -10.169  -1.667  0.00  0.00    +0.000 A 
ATOM     22 CL   UNL     1       3.089 -11.012  -1.746  0.00  0.00    +0.000 Cl
ATOM     23  C   UNL     1       4.712  -9.064  -0.822  0.00  0.00    +0.000 A 
ENDBRANCH  15  16
BRANCH  15  24
ATOM     24  O   UNL     1       5.974  -7.634   1.509  0.00  0.00    +0.000 OA
ATOM     25  H   UNL     1       5.036  -7.579   1.763  0.00  0.00    +0.000 HD
ENDBRANCH  15  24
ENDBRANCH  14  15
ENDBRANCH   5  14
TORSDOF 5
