REMARK  Name = 
REMARK  6 active torsions:
REMARK  status: ('A' for Active; 'I' for Inactive)
REMARK    1  A    between atoms: C_1  and  N_2
REMARK    2  A    between atoms: C_3  and  C_5
REMARK    3  A    between atoms: C_8  and  N_9
REMARK    4  A    between atoms: N_9  and  C_10
REMARK    5  A    between atoms: C_10  and  C_11
REMARK    6  A    between atoms: C_10  and  C_12
REMARK                            x       y       z     vdW  Elec       q    Type
REMARK                         _______ _______ _______ _____ _____    ______ ____
ROOT
ATOM      1  C   UNL     1      10.449   2.459   5.345  0.00  0.00    +0.000 A 
ATOM      2  C   UNL     1       9.217   1.804   5.435  0.00  0.00    +0.000 A 
ATOM      3  C   UNL     1       8.875   0.822   4.496  0.00  0.00    +0.000 A 
ATOM      4  C   UNL     1       9.724   0.501   3.426  0.00  0.00    +0.000 A 
ATOM      5  C   UNL     1      10.947   1.172   3.345  0.00  0.00    +0.000 A 
ATOM      6  C   UNL     1      11.311   2.138   4.295  0.00  0.00    +0.000 A 
ENDROOT
BRANCH   1   9
ATOM      7  C   UNL     1      10.676   4.357   8.616  0.00  0.00    +0.000 C 
ATOM      8  N   UNL     1      10.332   3.409   7.589  0.00  0.00    +0.000 N 
ATOM      9  C   UNL     1      10.861   3.511   6.315  0.00  0.00    +0.000 C 
ATOM     10  O   UNL     1      11.647   4.391   5.984  0.00  0.00    +0.000 OA
ATOM     11  H   UNL     1       9.832   2.571   7.856  0.00  0.00    +0.000 HD
ENDBRANCH   1   9
BRANCH   4  12
ATOM     12  N   UNL     1       9.288  -0.426   2.492  0.00  0.00    +0.000 N 
ATOM     13  H   UNL     1       9.018  -1.324   2.878  0.00  0.00    +0.000 HD
BRANCH  12  14
ATOM     14  C   UNL     1       9.714  -0.429   1.093  0.00  0.00    +0.000 C 
ATOM     15  C   UNL     1       8.464  -0.298   0.218  0.00  0.00    +0.000 C 
BRANCH  14  16
ATOM     16  C   UNL     1      10.531  -1.670   0.768  0.00  0.00    +0.000 A 
ATOM     17  C   UNL     1      11.868  -1.530   0.357  0.00  0.00    +0.000 A 
ATOM     18  C   UNL     1      12.669  -2.648   0.109  0.00  0.00    +0.000 A 
ATOM     19  C   UNL     1      12.141  -3.928   0.250  0.00  0.00    +0.000 A 
ATOM     20  C   UNL     1      10.805  -4.088   0.613  0.00  0.00    +0.000 A 
ATOM     21  C   UNL     1      10.005  -2.969   0.869  0.00  0.00    +0.000 A 
ENDBRANCH  14  16
ENDBRANCH  12  14
ENDBRANCH   4  12
TORSDOF 4
