REMARK  Name = 
REMARK  4 active torsions:
REMARK  status: ('A' for Active; 'I' for Inactive)
REMARK    1  A    between atoms: C_2  and  C_4
REMARK    2  A    between atoms: N_8  and  C_9
REMARK    3  A    between atoms: C_9  and  C_10
REMARK    4  A    between atoms: C_14  and  C_15
REMARK                            x       y       z     vdW  Elec       q    Type
REMARK                         _______ _______ _______ _____ _____    ______ ____
ROOT
ATOM      1  C   UNL     1       4.759   4.014  -4.543  0.00  0.00    +0.000 C 
ATOM      2  C   UNL     1       3.693   3.001  -4.154  0.00  0.00    +0.000 C 
ATOM      3  C   UNL     1       4.869   3.199  -3.258  0.00  0.00    +0.000 C 
ENDROOT
BRANCH   1   8
ATOM      4  C   UNL     1       1.474   7.604  -6.326  0.00  0.00    +0.000 A 
ATOM      5  C   UNL     1       1.868   6.392  -6.881  0.00  0.00    +0.000 A 
ATOM      6  C   UNL     1       2.871   5.653  -6.253  0.00  0.00    +0.000 A 
ATOM      7  C   UNL     1       3.463   6.129  -5.088  0.00  0.00    +0.000 A 
ATOM      8  N   UNL     1       4.479   5.447  -4.417  0.00  0.00    +0.000 N 
ATOM      9  N   UNL     1       3.097   7.312  -4.550  0.00  0.00    +0.000 NA
ATOM     10  C   UNL     1       2.126   8.027  -5.178  0.00  0.00    +0.000 A 
ATOM     11  H   UNL     1       4.693   5.938  -3.556  0.00  0.00    +0.000 HD
BRANCH   4  13
ATOM     12  N   UNL     1      -0.528   7.835  -7.680  0.00  0.00    +0.000 N 
ATOM     13  C   UNL     1       0.420   8.455  -6.915  0.00  0.00    +0.000 C 
ATOM     14  O   UNL     1       0.378   9.659  -6.704  0.00  0.00    +0.000 OA
ATOM     15  H   UNL     1      -1.297   8.415  -8.003  0.00  0.00    +0.000 HD
ATOM     16  H   UNL     1      -0.661   6.835  -7.696  0.00  0.00    +0.000 HD
ENDBRANCH   4  13
ENDBRANCH   1   8
BRANCH   1  17
ATOM     17  C   UNL     1       5.764   3.639  -5.626  0.00  0.00    +0.000 A 
ATOM     18  C   UNL     1       7.142   3.879  -5.473  0.00  0.00    +0.000 A 
ATOM     19  C   UNL     1       8.070   3.375  -6.386  0.00  0.00    +0.000 A 
ATOM     20  C   UNL     1       7.642   2.623  -7.476  0.00  0.00    +0.000 A 
ATOM     21  C   UNL     1       6.276   2.401  -7.687  0.00  0.00    +0.000 A 
ATOM     22  C   UNL     1       5.362   2.932  -6.772  0.00  0.00    +0.000 A 
BRANCH  21  23
ATOM     23  C   UNL     1       5.753   1.525  -8.804  0.00  0.00    +0.000 C 
ATOM     24  C   UNL     1       6.136   0.056  -8.563  0.00  0.00    +0.000 C 
ATOM     25  C   UNL     1       5.720  -0.813  -9.743  0.00  0.00    +0.000 C 
ATOM     26  C   UNL     1       6.215  -0.208 -11.049  0.00  0.00    +0.000 C 
ATOM     27  O   UNL     1       5.703   1.115 -11.210  0.00  0.00    +0.000 OA
ATOM     28  C   UNL     1       6.186   2.000 -10.194  0.00  0.00    +0.000 C 
ENDBRANCH  21  23
ENDBRANCH   1  17
TORSDOF 4
