REMARK  Name = 
REMARK  7 active torsions:
REMARK  status: ('A' for Active; 'I' for Inactive)
REMARK    1  A    between atoms: C_2  and  C_21
REMARK    2  A    between atoms: N_3  and  C_4
REMARK    3  A    between atoms: C_4  and  C_5
REMARK    4  A    between atoms: C_8  and  C_9
REMARK    5  A    between atoms: C_9  and  C_10
REMARK    6  A    between atoms: C_10  and  O_11
REMARK    7  A    between atoms: C_10  and  C_12
REMARK                            x       y       z     vdW  Elec       q    Type
REMARK                         _______ _______ _______ _____ _____    ______ ____
ROOT
ATOM      1  C   UNL     1       7.694  -2.048  -2.594  0.00  0.00    +0.000 A 
ATOM      2  C   UNL     1       7.035  -2.501  -3.743  0.00  0.00    +0.000 A 
ATOM      3  C   UNL     1       6.907  -1.683  -4.868  0.00  0.00    +0.000 A 
ATOM      4  C   UNL     1       7.433  -0.387  -4.871  0.00  0.00    +0.000 A 
ATOM      5  C   UNL     1       8.082   0.072  -3.712  0.00  0.00    +0.000 A 
ATOM      6  C   UNL     1       8.218  -0.751  -2.587  0.00  0.00    +0.000 A 
ENDROOT
BRANCH   1   7
ATOM      7  C   UNL     1       7.882  -2.977  -1.426  0.00  0.00    +0.000 C 
BRANCH   7  10
ATOM      8  O   UNL     1       8.138  -5.516  -2.702  0.00  0.00    +0.000 OA
ATOM      9  C   UNL     1       9.115  -4.993  -2.174  0.00  0.00    +0.000 C 
ATOM     10  N   UNL     1       9.081  -3.761  -1.577  0.00  0.00    +0.000 N 
ATOM     11  H   UNL     1       9.907  -3.407  -1.117  0.00  0.00    +0.000 HD
BRANCH   9  12
ATOM     12  C   UNL     1      10.431  -5.637  -2.186  0.00  0.00    +0.000 A 
ATOM     13  C   UNL     1      10.790  -6.501  -3.210  0.00  0.00    +0.000 A 
ATOM     14  S   UNL     1      12.385  -7.094  -3.064  0.00  0.00    +0.000 S 
ATOM     15  C   UNL     1      12.626  -6.253  -1.603  0.00  0.00    +0.000 A 
ATOM     16  N   UNL     1      13.808  -6.324  -0.934  0.00  0.00    +0.000 NA
ATOM     17  C   UNL     1      13.836  -5.657   0.170  0.00  0.00    +0.000 A 
ATOM     18  N   UNL     1      12.784  -4.936   0.676  0.00  0.00    +0.000 N 
ATOM     19  C   UNL     1      11.581  -4.818   0.029  0.00  0.00    +0.000 A 
ATOM     20  O   UNL     1      10.678  -4.126   0.492  0.00  0.00    +0.000 OA
ATOM     21  C   UNL     1      11.505  -5.533  -1.229  0.00  0.00    +0.000 A 
ATOM     22  H   UNL     1      12.869  -4.434   1.549  0.00  0.00    +0.000 HD
ENDBRANCH   9  12
ENDBRANCH   7  10
ENDBRANCH   1   7
BRANCH   4  23
ATOM     23  C   UNL     1       7.417   0.468  -6.123  0.00  0.00    +0.000 C 
BRANCH  23  24
ATOM     24  C   UNL     1       6.062   0.952  -6.653  0.00  0.00    +0.000 C 
BRANCH  24  25
ATOM     25  C   UNL     1       5.158  -0.159  -7.224  0.00  0.00    +0.000 C 
ATOM     26  O   UNL     1       4.193  -0.552  -6.559  0.00  0.00    +0.000 OA
ATOM     27  N   UNL     1       5.414  -0.655  -8.483  0.00  0.00    +0.000 N 
ATOM     28  C   UNL     1       6.446  -0.252  -9.422  0.00  0.00    +0.000 C 
ATOM     29  C   UNL     1       5.802  -0.484 -10.780  0.00  0.00    +0.000 C 
ATOM     30  C   UNL     1       4.937  -1.718 -10.554  0.00  0.00    +0.000 C 
ATOM     31  C   UNL     1       4.508  -1.616  -9.093  0.00  0.00    +0.000 C 
ENDBRANCH  24  25
BRANCH  24  32
ATOM     32  O   UNL     1       5.376   1.711  -5.654  0.00  0.00    +0.000 OA
ATOM     33  H   UNL     1       4.688   1.109  -5.301  0.00  0.00    +0.000 HD
ENDBRANCH  24  32
ENDBRANCH  23  24
ENDBRANCH   4  23
TORSDOF 7
