REMARK  Name = 
REMARK  11 active torsions:
REMARK  status: ('A' for Active; 'I' for Inactive)
REMARK    1  A    between atoms: C_1  and  C_2
REMARK    2  A    between atoms: C_2  and  N_3
REMARK    3  A    between atoms: C_2  and  C_21
REMARK    4  A    between atoms: N_3  and  C_4
REMARK    5  A    between atoms: C_4  and  C_5
REMARK    6  A    between atoms: C_8  and  C_9
REMARK    7  A    between atoms: C_9  and  N_10
REMARK    8  A    between atoms: N_10  and  C_11
REMARK    9  A    between atoms: C_11  and  C_12
REMARK   10  A    between atoms: C_11  and  C_13
REMARK   11  A    between atoms: C_11  and  C_14
REMARK                            x       y       z     vdW  Elec       q    Type
REMARK                         _______ _______ _______ _____ _____    ______ ____
ROOT
ATOM      1  C   UNL     1       2.960  -3.633   0.614  0.00  0.00    +0.000 A 
ATOM      2  C   UNL     1       4.238  -3.911   0.125  0.00  0.00    +0.000 A 
ATOM      3  C   UNL     1       4.636  -5.234  -0.043  0.00  0.00    +0.000 A 
ATOM      4  C   UNL     1       3.752  -6.252   0.312  0.00  0.00    +0.000 A 
ATOM      5  N   UNL     1       2.509  -6.006   0.791  0.00  0.00    +0.000 NA
ATOM      6  C   UNL     1       2.141  -4.715   0.918  0.00  0.00    +0.000 A 
ENDROOT
BRANCH   1   7
ATOM      7  C   UNL     1       2.477  -2.232   0.851  0.00  0.00    +0.000 C 
BRANCH   7   8
ATOM      8  N   UNL     1       2.426  -1.452  -0.385  0.00  0.00    +0.000 NA
ATOM      9  H   UNL     1       3.368  -1.396  -0.771  0.00  0.00    +0.000 HD
BRANCH   8  11
ATOM     10  C   UNL     1       0.505  -0.040   0.363  0.00  0.00    +0.000 C 
ATOM     11  C   UNL     1       1.952  -0.081  -0.146  0.00  0.00    +0.000 C 
BRANCH  11  12
ATOM     12  C   UNL     1       2.055   0.706  -1.439  0.00  0.00    +0.000 A 
ATOM     13  C   UNL     1       1.901   0.200  -2.721  0.00  0.00    +0.000 A 
ATOM     14  S   UNL     1       1.974   1.403  -3.933  0.00  0.00    +0.000 S 
ATOM     15  C   UNL     1       2.181   2.638  -2.780  0.00  0.00    +0.000 A 
ATOM     16  N   UNL     1       2.250   3.949  -3.144  0.00  0.00    +0.000 NA
ATOM     17  C   UNL     1       2.375   4.768  -2.151  0.00  0.00    +0.000 A 
ATOM     18  N   UNL     1       2.464   4.399  -0.832  0.00  0.00    +0.000 N 
ATOM     19  C   UNL     1       2.424   3.090  -0.418  0.00  0.00    +0.000 A 
ATOM     20  O   UNL     1       2.534   2.786   0.766  0.00  0.00    +0.000 OA
ATOM     21  C   UNL     1       2.241   2.134  -1.496  0.00  0.00    +0.000 A 
ATOM     22  H   UNL     1       2.578   5.090  -0.107  0.00  0.00    +0.000 HD
ENDBRANCH  11  12
ENDBRANCH   8  11
ENDBRANCH   7   8
ENDBRANCH   1   7
BRANCH   4  23
ATOM     23  C   UNL     1       4.155  -7.703   0.149  0.00  0.00    +0.000 C 
BRANCH  23  24
ATOM     24  N   UNL     1       3.828  -8.205  -1.186  0.00  0.00    +0.000 NA
ATOM     25  H   UNL     1       4.283  -7.621  -1.885  0.00  0.00    +0.000 HD
BRANCH  24  26
ATOM     26  C   UNL     1       4.154  -9.619  -1.450  0.00  0.00    +0.000 C 
ATOM     27  C   UNL     1       5.670  -9.861  -1.292  0.00  0.00    +0.000 C 
ATOM     28  C   UNL     1       3.378 -10.559  -0.508  0.00  0.00    +0.000 C 
BRANCH  26  29
ATOM     29  C   UNL     1       3.725  -9.922  -2.873  0.00  0.00    +0.000 A 
ATOM     30  C   UNL     1       2.717  -9.427  -3.683  0.00  0.00    +0.000 A 
ATOM     31  C   UNL     1       2.824 -10.097  -4.923  0.00  0.00    +0.000 A 
ATOM     32  C   UNL     1       3.875 -10.973  -4.793  0.00  0.00    +0.000 A 
ATOM     33  O   UNL     1       4.423 -10.881  -3.555  0.00  0.00    +0.000 OA
ENDBRANCH  26  29
ENDBRANCH  24  26
ENDBRANCH  23  24
ENDBRANCH   4  23
TORSDOF 8
