REMARK  Name = 
REMARK  5 active torsions:
REMARK  status: ('A' for Active; 'I' for Inactive)
REMARK    1  A    between atoms: C_2  and  C_4
REMARK    2  A    between atoms: C_8  and  O_9
REMARK    3  A    between atoms: O_9  and  C_10
REMARK    4  A    between atoms: C_10  and  C_11
REMARK    5  A    between atoms: C_16  and  C_17
REMARK                            x       y       z     vdW  Elec       q    Type
REMARK                         _______ _______ _______ _____ _____    ______ ____
ROOT
ATOM      1  C   UNL     1       1.772   3.778   5.341  0.00  0.00    +0.000 A 
ATOM      2  C   UNL     1       1.602   3.148   6.575  0.00  0.00    +0.000 A 
ATOM      3  C   UNL     1       1.499   3.915   7.726  0.00  0.00    +0.000 A 
ATOM      4  F   UNL     1       1.332   3.309   8.908  0.00  0.00    +0.000 F 
ATOM      5  C   UNL     1       1.563   5.305   7.675  0.00  0.00    +0.000 A 
ATOM      6  C   UNL     1       1.744   5.975   6.453  0.00  0.00    +0.000 A 
ATOM      7  C   UNL     1       1.853   5.180   5.294  0.00  0.00    +0.000 A 
ENDROOT
BRANCH   6   8
ATOM      8  C   UNL     1       1.826   7.449   6.382  0.00  0.00    +0.000 A 
ATOM      9  C   UNL     1       1.365   8.171   5.272  0.00  0.00    +0.000 A 
ATOM     10  N   UNL     1       1.421   9.520   5.131  0.00  0.00    +0.000 NA
ATOM     11  C   UNL     1       1.959  10.205   6.162  0.00  0.00    +0.000 A 
ATOM     12  C   UNL     1       2.435   9.601   7.307  0.00  0.00    +0.000 A 
ATOM     13  F   UNL     1       2.954  10.332   8.301  0.00  0.00    +0.000 F 
ATOM     14  C   UNL     1       2.374   8.218   7.419  0.00  0.00    +0.000 A 
ENDBRANCH   6   8
BRANCH   1  15
ATOM     15  C   UNL     1       1.911   2.971   4.078  0.00  0.00    +0.000 C 
BRANCH  15  16
ATOM     16  O   UNL     1       3.295   2.702   3.870  0.00  0.00    +0.000 OA
BRANCH  16  21
ATOM     17  C   UNL     1       3.181   0.699   0.760  0.00  0.00    +0.000 A 
ATOM     18  C   UNL     1       4.544   0.452   0.668  0.00  0.00    +0.000 A 
ATOM     19  N   UNL     1       5.450   0.937   1.550  0.00  0.00    +0.000 NA
ATOM     20  C   UNL     1       4.961   1.676   2.576  0.00  0.00    +0.000 A 
ATOM     21  C   UNL     1       3.611   1.959   2.768  0.00  0.00    +0.000 A 
ATOM     22  C   UNL     1       2.709   1.458   1.834  0.00  0.00    +0.000 A 
BRANCH  17  24
ATOM     23  N   UNL     1       1.123   0.822  -0.516  0.00  0.00    +0.000 N 
ATOM     24  C   UNL     1       2.271   0.128  -0.250  0.00  0.00    +0.000 C 
ATOM     25  O   UNL     1       2.541  -0.908  -0.841  0.00  0.00    +0.000 OA
ATOM     26  H   UNL     1       0.556   0.469  -1.279  0.00  0.00    +0.000 HD
ATOM     27  H   UNL     1       1.002   1.792  -0.261  0.00  0.00    +0.000 HD
ENDBRANCH  17  24
ENDBRANCH  16  21
ENDBRANCH  15  16
ENDBRANCH   1  15
TORSDOF 5
