REMARK  Name = 
REMARK  5 active torsions:
REMARK  status: ('A' for Active; 'I' for Inactive)
REMARK    1  A    between atoms: C_1  and  C_2
REMARK    2  A    between atoms: C_2  and  C_3
REMARK    3  A    between atoms: C_2  and  C_14
REMARK    4  A    between atoms: C_3  and  N_4
REMARK    5  A    between atoms: C_8  and  C_9
REMARK                            x       y       z     vdW  Elec       q    Type
REMARK                         _______ _______ _______ _____ _____    ______ ____
ROOT
ATOM      1  N   UNL     1       2.804   0.473   2.519  0.00  0.00    +0.000 N 
ATOM      2  C   UNL     1       3.376   0.123   3.751  0.00  0.00    +0.000 A 
ATOM      3  C   UNL     1       3.160   0.935   4.876  0.00  0.00    +0.000 A 
ATOM      4  N   UNL     1       3.670   0.687   6.112  0.00  0.00    +0.000 NA
ATOM      5  C   UNL     1       4.440  -0.437   6.177  0.00  0.00    +0.000 A 
ATOM      6  C   UNL     1       4.679  -1.242   5.074  0.00  0.00    +0.000 A 
ATOM      7  N   UNL     1       4.159  -0.973   3.851  0.00  0.00    +0.000 NA
ATOM      8  H   UNL     1       1.799   0.580   2.635  0.00  0.00    +0.000 HD
ENDROOT
BRANCH   5   9
ATOM      9  C   UNL     1       5.039  -0.804   7.486  0.00  0.00    +0.000 C 
ATOM     10  N   UNL     1       4.771   0.042   8.528  0.00  0.00    +0.000 N 
ATOM     11  O   UNL     1       5.730  -1.805   7.632  0.00  0.00    +0.000 OA
ATOM     12  H   UNL     1       4.203   0.868   8.382  0.00  0.00    +0.000 HD
ATOM     13  H   UNL     1       5.160  -0.158   9.439  0.00  0.00    +0.000 HD
ENDBRANCH   5   9
BRANCH   1  14
ATOM     14  C   UNL     1       3.102  -0.467   1.442  0.00  0.00    +0.000 C 
BRANCH  14  16
ATOM     15  C   UNL     1       2.878   1.210  -0.495  0.00  0.00    +0.000 C 
ATOM     16  C   UNL     1       2.357   0.009   0.230  0.00  0.00    +0.000 C 
BRANCH  16  17
ATOM     17  C   UNL     1       0.954  -0.392   0.061  0.00  0.00    +0.000 A 
ATOM     18  C   UNL     1       0.582  -1.743   0.029  0.00  0.00    +0.000 A 
ATOM     19  C   UNL     1      -0.763  -2.104  -0.089  0.00  0.00    +0.000 A 
ATOM     20  C   UNL     1      -1.748  -1.120  -0.166  0.00  0.00    +0.000 A 
ATOM     21  C   UNL     1      -1.389   0.224  -0.141  0.00  0.00    +0.000 A 
ATOM     22  C   UNL     1      -0.046   0.583  -0.040  0.00  0.00    +0.000 A 
ENDBRANCH  16  17
ENDBRANCH  14  16
ENDBRANCH   1  14
TORSDOF 4
