REMARK  Name = 
REMARK  10 active torsions:
REMARK  status: ('A' for Active; 'I' for Inactive)
REMARK    1  A    between atoms: C_1  and  C_2
REMARK    2  A    between atoms: C_2  and  C_3
REMARK    3  A    between atoms: C_2  and  C_4
REMARK    4  A    between atoms: C_2  and  C_5
REMARK    5  A    between atoms: N_7  and  C_8
REMARK    6  A    between atoms: C_8  and  C_9
REMARK    7  A    between atoms: C_12  and  C_13
REMARK    8  A    between atoms: C_13  and  C_14
REMARK    9  A    between atoms: C_14  and  C_15
REMARK   10  A    between atoms: C_15  and  N_16
REMARK                            x       y       z     vdW  Elec       q    Type
REMARK                         _______ _______ _______ _____ _____    ______ ____
ROOT
ATOM      1  C   UNL     1       3.049  -0.793   1.232  0.00  0.00    +0.000 A 
ATOM      2  C   UNL     1       3.672  -0.266   2.352  0.00  0.00    +0.000 A 
ATOM      3  N   UNL     1       3.795  -1.245   3.306  0.00  0.00    +0.000 N 
ATOM      4  C   UNL     1       3.383  -2.456   2.790  0.00  0.00    +0.000 A 
ATOM      5  C   UNL     1       3.369  -3.743   3.357  0.00  0.00    +0.000 A 
ATOM      6  C   UNL     1       2.837  -4.795   2.610  0.00  0.00    +0.000 A 
ATOM      7  C   UNL     1       2.332  -4.573   1.336  0.00  0.00    +0.000 A 
ATOM      8  C   UNL     1       2.352  -3.291   0.779  0.00  0.00    +0.000 A 
ATOM      9  C   UNL     1       2.889  -2.202   1.504  0.00  0.00    +0.000 A 
ENDROOT
BRANCH   1  11
ATOM     10  C   UNL     1       2.964   1.487   0.101  0.00  0.00    +0.000 C 
ATOM     11  C   UNL     1       2.605  -0.015  -0.009  0.00  0.00    +0.000 C 
ATOM     12  C   UNL     1       1.073  -0.102  -0.177  0.00  0.00    +0.000 C 
ATOM     13  C   UNL     1       3.289  -0.553  -1.280  0.00  0.00    +0.000 C 
ENDBRANCH   1  11
BRANCH   3  14
ATOM     14  C   UNL     1       4.231  -0.995   4.678  0.00  0.00    +0.000 C 
BRANCH  14  15
ATOM     15  C   UNL     1       3.050  -0.621   5.542  0.00  0.00    +0.000 A 
ATOM     16  C   UNL     1       2.304  -1.612   6.193  0.00  0.00    +0.000 A 
ATOM     17  C   UNL     1       1.109  -1.292   6.841  0.00  0.00    +0.000 A 
ATOM     18  C   UNL     1       0.641   0.026   6.866  0.00  0.00    +0.000 A 
ATOM     19  C   UNL     1       1.417   1.027   6.268  0.00  0.00    +0.000 A 
ATOM     20  C   UNL     1       2.610   0.708   5.614  0.00  0.00    +0.000 A 
BRANCH  18  21
ATOM     21  C   UNL     1      -0.717   0.356   7.438  0.00  0.00    +0.000 C 
BRANCH  21  22
ATOM     22  C   UNL     1      -0.938  -0.070   8.892  0.00  0.00    +0.000 C 
BRANCH  22  23
ATOM     23  C   UNL     1      -0.019   0.667   9.864  0.00  0.00    +0.000 C 
BRANCH  23  24
ATOM     24  N   UNL     1      -0.308   0.256  11.235  0.00  0.00    +0.000 NA
ATOM     25  H   UNL     1      -1.272   0.490  11.468  0.00  0.00    +0.000 HD
ATOM     26  H   UNL     1       0.280   0.784  11.876  0.00  0.00    +0.000 HD
ENDBRANCH  23  24
ENDBRANCH  22  23
ENDBRANCH  21  22
ENDBRANCH  18  21
ENDBRANCH  14  15
ENDBRANCH   3  14
TORSDOF 7
