REMARK  Name = 
REMARK  12 active torsions:
REMARK  status: ('A' for Active; 'I' for Inactive)
REMARK    1  A    between atoms: C_1  and  C_2
REMARK    2  A    between atoms: C_2  and  C_3
REMARK    3  A    between atoms: C_2  and  C_4
REMARK    4  A    between atoms: C_2  and  C_5
REMARK    5  A    between atoms: C_8  and  N_9
REMARK    6  A    between atoms: N_9  and  C_10
REMARK    7  A    between atoms: C_10  and  C_11
REMARK    8  A    between atoms: C_11  and  C_12
REMARK    9  A    between atoms: C_11  and  C_13
REMARK   10  A    between atoms: C_11  and  C_14
REMARK   11  A    between atoms: C_18  and  C_19
REMARK   12  A    between atoms: C_23  and  C_24
REMARK                            x       y       z     vdW  Elec       q    Type
REMARK                         _______ _______ _______ _____ _____    ______ ____
ROOT
ATOM      1  C   UNL     1       4.837  -5.944   4.844  0.00  0.00    +0.000 C 
ATOM      2  C   UNL     1       3.435  -6.551   5.115  0.00  0.00    +0.000 C 
ATOM      3  C   UNL     1       5.607  -6.921   3.924  0.00  0.00    +0.000 C 
ENDROOT
BRANCH   1   4
ATOM      4  C   UNL     1       5.563  -5.771   6.195  0.00  0.00    +0.000 A 
ATOM      5  C   UNL     1       6.032  -4.534   6.661  0.00  0.00    +0.000 A 
ATOM      6  C   UNL     1       6.648  -4.412   7.904  0.00  0.00    +0.000 A 
ATOM      7  C   UNL     1       6.782  -5.525   8.727  0.00  0.00    +0.000 A 
ATOM      8  C   UNL     1       6.301  -6.782   8.331  0.00  0.00    +0.000 A 
ATOM      9  C   UNL     1       5.727  -6.881   7.048  0.00  0.00    +0.000 A 
BRANCH   8  10
ATOM     10  C   UNL     1       6.348  -7.948   9.242  0.00  0.00    +0.000 A 
ATOM     11  C   UNL     1       6.514  -9.259   8.762  0.00  0.00    +0.000 A 
ATOM     12  C   UNL     1       6.534 -10.357   9.627  0.00  0.00    +0.000 A 
ATOM     13  C   UNL     1       6.407 -10.166  10.999  0.00  0.00    +0.000 A 
ATOM     14  C   UNL     1       6.243  -8.877  11.507  0.00  0.00    +0.000 A 
ATOM     15  C   UNL     1       6.198  -7.783  10.632  0.00  0.00    +0.000 A 
BRANCH  14  16
ATOM     16  C   UNL     1       6.130  -8.663  12.917  0.00  0.00    +0.000 C 
ATOM     17  N   UNL     1       6.048  -8.482  14.062  0.00  0.00    +0.000 NA
ENDBRANCH  14  16
ENDBRANCH   8  10
ENDBRANCH   1   4
BRANCH   1  18
ATOM     18  C   UNL     1       4.586  -4.607   4.079  0.00  0.00    +0.000 C 
BRANCH  18  19
ATOM     19  N   UNL     1       5.829  -3.944   3.678  0.00  0.00    +0.000 N 
ATOM     20  H   UNL     1       6.523  -4.560   3.262  0.00  0.00    +0.000 HD
BRANCH  19  24
ATOM     21  C   UNL     1       5.820  -0.180   1.968  0.00  0.00    +0.000 A 
ATOM     22  N   UNL     1       4.739  -0.541   2.683  0.00  0.00    +0.000 NA
ATOM     23  C   UNL     1       4.756  -1.772   3.233  0.00  0.00    +0.000 A 
ATOM     24  C   UNL     1       5.772  -2.696   3.073  0.00  0.00    +0.000 A 
ATOM     25  C   UNL     1       6.839  -2.197   2.348  0.00  0.00    +0.000 A 
ATOM     26  N   UNL     1       6.885  -0.978   1.771  0.00  0.00    +0.000 NA
BRANCH  21  28
ATOM     27  C   UNL     1       4.966   2.183   2.103  0.00  0.00    +0.000 C 
ATOM     28  C   UNL     1       5.795   1.178   1.281  0.00  0.00    +0.000 C 
ATOM     29  C   UNL     1       5.161   1.001  -0.108  0.00  0.00    +0.000 C 
ATOM     30  C   UNL     1       7.219   1.744   1.125  0.00  0.00    +0.000 C 
ENDBRANCH  21  28
ENDBRANCH  19  24
ENDBRANCH  18  19
ENDBRANCH   1  18
TORSDOF 7
