REMARK  Name = 
REMARK  5 active torsions:
REMARK  status: ('A' for Active; 'I' for Inactive)
REMARK    1  A    between atoms: N_1  and  C_2
REMARK    2  A    between atoms: C_2  and  C_3
REMARK    3  A    between atoms: C_6  and  C_7
REMARK    4  A    between atoms: C_7  and  N_8
REMARK    5  A    between atoms: C_13  and  C_14
REMARK                            x       y       z     vdW  Elec       q    Type
REMARK                         _______ _______ _______ _____ _____    ______ ____
ROOT
ATOM      1  N   UNL     1       2.604  -6.175   2.317  0.00  0.00    +0.000 N 
ATOM      2  C   UNL     1       1.499  -6.976   2.483  0.00  0.00    +0.000 A 
ATOM      3  C   UNL     1       1.670  -8.101   1.703  0.00  0.00    +0.000 A 
ATOM      4  C   UNL     1       2.920  -7.980   1.039  0.00  0.00    +0.000 A 
ATOM      5  C   UNL     1       3.631  -8.754   0.103  0.00  0.00    +0.000 A 
ATOM      6  C   UNL     1       4.863  -8.268  -0.348  0.00  0.00    +0.000 A 
ATOM      7  C   UNL     1       5.335  -7.070   0.188  0.00  0.00    +0.000 A 
ATOM      8  N   UNL     1       4.698  -6.299   1.107  0.00  0.00    +0.000 NA
ATOM      9  C   UNL     1       3.499  -6.789   1.473  0.00  0.00    +0.000 A 
ENDROOT
BRANCH   6  10
ATOM     10  C   UNL     1       5.689  -8.942  -1.381  0.00  0.00    +0.000 C 
ATOM     11  N   UNL     1       5.229 -10.103  -1.938  0.00  0.00    +0.000 N 
ATOM     12  O   UNL     1       6.760  -8.473  -1.747  0.00  0.00    +0.000 OA
ATOM     13  H   UNL     1       4.355 -10.553  -1.718  0.00  0.00    +0.000 HD
ATOM     14  H   UNL     1       5.802 -10.518  -2.662  0.00  0.00    +0.000 HD
ENDBRANCH   6  10
BRANCH   1  15
ATOM     15  C   UNL     1       2.804  -4.889   2.966  0.00  0.00    +0.000 C 
BRANCH  15  19
ATOM     16  C   UNL     1       2.901  -0.990   0.931  0.00  0.00    +0.000 C 
ATOM     17  C   UNL     1       2.644  -2.240   0.080  0.00  0.00    +0.000 C 
ATOM     18  C   UNL     1       2.992  -3.533   0.810  0.00  0.00    +0.000 C 
ATOM     19  C   UNL     1       2.282  -3.673   2.167  0.00  0.00    +0.000 C 
ATOM     20  C   UNL     1       2.443  -2.399   3.019  0.00  0.00    +0.000 C 
ATOM     21  C   UNL     1       2.125  -1.115   2.252  0.00  0.00    +0.000 C 
BRANCH  16  22
ATOM     22  C   UNL     1       4.399  -0.711   1.175  0.00  0.00    +0.000 C 
BRANCH  22  23
ATOM     23  N   UNL     1       5.119  -0.508  -0.078  0.00  0.00    +0.000 NA
ATOM     24  H   UNL     1       6.075  -0.215   0.118  0.00  0.00    +0.000 HD
ATOM     25  H   UNL     1       4.686   0.244  -0.612  0.00  0.00    +0.000 HD
ENDBRANCH  22  23
ENDBRANCH  16  22
ENDBRANCH  15  19
ENDBRANCH   1  15
TORSDOF 5
