REMARK  Name = 
REMARK  7 active torsions:
REMARK  status: ('A' for Active; 'I' for Inactive)
REMARK    1  A    between atoms: C_2  and  C_3
REMARK    2  A    between atoms: C_3  and  N_4
REMARK    3  A    between atoms: C_3  and  C_17
REMARK    4  A    between atoms: C_5  and  C_7
REMARK    5  A    between atoms: C_20  and  C_21
REMARK    6  A    between atoms: C_21  and  N_22
REMARK    7  A    between atoms: C_23  and  C_25
REMARK                            x       y       z     vdW  Elec       q    Type
REMARK                         _______ _______ _______ _____ _____    ______ ____
ROOT
ATOM      1  C   UNL     1      14.961  -0.049   7.270  0.00  0.00    +0.000 C 
ENDROOT
BRANCH   1   2
ATOM      2  C   UNL     1      13.644   0.409   7.893  0.00  0.00    +0.000 A 
ATOM      3  C   UNL     1      12.514   0.585   7.075  0.00  0.00    +0.000 A 
ATOM      4  C   UNL     1      11.299   1.031   7.609  0.00  0.00    +0.000 A 
ATOM      5  C   UNL     1      11.188   1.334   8.971  0.00  0.00    +0.000 A 
ATOM      6  C   UNL     1      12.312   1.168   9.790  0.00  0.00    +0.000 A 
ATOM      7  C   UNL     1      13.528   0.727   9.257  0.00  0.00    +0.000 A 
BRANCH   5   8
ATOM      8  C   UNL     1       9.898   1.853   9.548  0.00  0.00    +0.000 C 
BRANCH   8   9
ATOM      9  N   UNL     1       9.028   0.798  10.013  0.00  0.00    +0.000 N 
ATOM     10  C   UNL     1       7.835   1.129  10.631  0.00  0.00    +0.000 C 
ATOM     11  O   UNL     1       7.457   2.291  10.750  0.00  0.00    +0.000 OA
ATOM     12  H   UNL     1       9.394  -0.140  10.110  0.00  0.00    +0.000 HD
BRANCH  10  13
ATOM     13  C   UNL     1       7.039  -0.088  11.156  0.00  0.00    +0.000 C 
ATOM     14  C   UNL     1       5.717   0.293  11.802  0.00  0.00    +0.000 C 
ATOM     15  C   UNL     1       4.792   0.484  10.615  0.00  0.00    +0.000 C 
ATOM     16  C   UNL     1       5.328  -0.469   9.558  0.00  0.00    +0.000 C 
ATOM     17  N   UNL     1       6.627  -0.961  10.035  0.00  0.00    +0.000 NA
ATOM     18  H   UNL     1       7.312  -0.922   9.281  0.00  0.00    +0.000 HD
ENDBRANCH  10  13
ENDBRANCH   8   9
ENDBRANCH   5   8
ENDBRANCH   1   2
BRANCH   1  19
ATOM     19  N   UNL     1      15.681   1.122   6.797  0.00  0.00    +0.000 N 
ATOM     20  C   UNL     1      16.520   1.064   5.719  0.00  0.00    +0.000 C 
ATOM     21  O   UNL     1      16.642   0.045   5.046  0.00  0.00    +0.000 OA
ATOM     22  H   UNL     1      15.777   1.885   7.460  0.00  0.00    +0.000 HD
BRANCH  20  23
ATOM     23  C   UNL     1      17.201   2.314   5.359  0.00  0.00    +0.000 A 
ATOM     24  C   UNL     1      17.611   2.529   4.050  0.00  0.00    +0.000 A 
ATOM     25  S   UNL     1      18.320   4.060   3.799  0.00  0.00    +0.000 S 
ATOM     26  C   UNL     1      18.157   4.467   5.443  0.00  0.00    +0.000 A 
ATOM     27  N   UNL     1      18.595   5.664   5.918  0.00  0.00    +0.000 NA
ATOM     28  C   UNL     1      18.449   5.819   7.191  0.00  0.00    +0.000 A 
ATOM     29  N   UNL     1      17.897   4.888   8.034  0.00  0.00    +0.000 N 
ATOM     30  C   UNL     1      17.388   3.691   7.590  0.00  0.00    +0.000 A 
ATOM     31  O   UNL     1      16.812   2.916   8.347  0.00  0.00    +0.000 OA
ATOM     32  C   UNL     1      17.555   3.455   6.169  0.00  0.00    +0.000 A 
ATOM     33  H   UNL     1      17.797   5.081   9.020  0.00  0.00    +0.000 HD
ENDBRANCH  20  23
ENDBRANCH   1  19
BRANCH   1  35
ATOM     34  N   UNL     1      16.450  -1.474   8.932  0.00  0.00    +0.000 NA
ATOM     35  C   UNL     1      15.800  -0.861   8.187  0.00  0.00    +0.000 C 
ENDBRANCH   1  35
TORSDOF 7
