REMARK  Name = 
REMARK  5 active torsions:
REMARK  status: ('A' for Active; 'I' for Inactive)
REMARK    1  A    between atoms: C_2  and  C_18
REMARK    2  A    between atoms: N_3  and  C_4
REMARK    3  A    between atoms: C_4  and  C_5
REMARK    4  A    between atoms: C_8  and  C_9
REMARK    5  A    between atoms: C_9  and  N_10
REMARK                            x       y       z     vdW  Elec       q    Type
REMARK                         _______ _______ _______ _____ _____    ______ ____
ROOT
ATOM      1  O   UNL     1       3.555  -0.003   0.559  0.00  0.00    +0.000 OA
ATOM      2  C   UNL     1       3.356  -0.661  -0.459  0.00  0.00    +0.000 C 
ATOM      3  N   UNL     1       2.542  -1.765  -0.458  0.00  0.00    +0.000 N 
ATOM      4  H   UNL     1       2.528  -2.384  -1.264  0.00  0.00    +0.000 HD
ENDROOT
BRANCH   2   5
ATOM      5  C   UNL     1       3.975  -0.281  -1.736  0.00  0.00    +0.000 A 
ATOM      6  C   UNL     1       4.459   1.011  -1.903  0.00  0.00    +0.000 A 
ATOM      7  S   UNL     1       5.198   1.280  -3.416  0.00  0.00    +0.000 S 
ATOM      8  C   UNL     1       4.930  -0.330  -3.895  0.00  0.00    +0.000 A 
ATOM      9  N   UNL     1       5.385  -0.789  -5.090  0.00  0.00    +0.000 NA
ATOM     10  C   UNL     1       5.146  -2.039  -5.308  0.00  0.00    +0.000 A 
ATOM     11  N   UNL     1       4.469  -2.866  -4.449  0.00  0.00    +0.000 N 
ATOM     12  C   UNL     1       3.933  -2.429  -3.260  0.00  0.00    +0.000 A 
ATOM     13  O   UNL     1       3.225  -3.160  -2.576  0.00  0.00    +0.000 OA
ATOM     14  C   UNL     1       4.236  -1.049  -2.932  0.00  0.00    +0.000 A 
ATOM     15  H   UNL     1       4.280  -3.826  -4.699  0.00  0.00    +0.000 HD
ENDBRANCH   2   5
BRANCH   3  16
ATOM     16  C   UNL     1       1.977  -2.310   0.761  0.00  0.00    +0.000 C 
BRANCH  16  17
ATOM     17  C   UNL     1       2.894  -3.332   1.404  0.00  0.00    +0.000 A 
ATOM     18  C   UNL     1       3.943  -2.895   2.205  0.00  0.00    +0.000 A 
ATOM     19  C   UNL     1       4.820  -3.829   2.744  0.00  0.00    +0.000 A 
ATOM     20  C   UNL     1       4.657  -5.190   2.471  0.00  0.00    +0.000 A 
ATOM     21  C   UNL     1       3.563  -5.538   1.684  0.00  0.00    +0.000 A 
ATOM     22  N   UNL     1       2.691  -4.649   1.141  0.00  0.00    +0.000 NA
BRANCH  20  23
ATOM     23  C   UNL     1       5.592  -6.207   3.071  0.00  0.00    +0.000 C 
BRANCH  23  24
ATOM     24  N   UNL     1       6.856  -6.512   2.397  0.00  0.00    +0.000 NA
ATOM     25  C   UNL     1       7.697  -5.386   1.971  0.00  0.00    +0.000 C 
ATOM     26  C   UNL     1       7.420  -4.878   0.543  0.00  0.00    +0.000 C 
ATOM     27  O   UNL     1       7.417  -5.942  -0.419  0.00  0.00    +0.000 OA
ATOM     28  C   UNL     1       6.491  -6.972  -0.050  0.00  0.00    +0.000 C 
ATOM     29  C   UNL     1       6.802  -7.530   1.343  0.00  0.00    +0.000 C 
ENDBRANCH  23  24
ENDBRANCH  20  23
ENDBRANCH  16  17
ENDBRANCH   3  16
TORSDOF 5
