REMARK  Name = 
REMARK  8 active torsions:
REMARK  status: ('A' for Active; 'I' for Inactive)
REMARK    1  A    between atoms: C_1  and  O_2
REMARK    2  A    between atoms: O_2  and  C_3
REMARK    3  A    between atoms: C_10  and  C_11
REMARK    4  A    between atoms: N_13  and  C_14
REMARK    5  A    between atoms: C_14  and  C_15
REMARK    6  A    between atoms: C_18  and  N_19
REMARK    7  A    between atoms: N_19  and  C_20
REMARK    8  A    between atoms: C_20  and  C_21
REMARK                            x       y       z     vdW  Elec       q    Type
REMARK                         _______ _______ _______ _____ _____    ______ ____
ROOT
ATOM      1  C   UNL     1       2.842   0.574  -3.302  0.00  0.00    +0.000 C 
ENDROOT
BRANCH   1   2
ATOM      2  C   UNL     1       1.663  -0.355  -3.167  0.00  0.00    +0.000 A 
ATOM      3  C   UNL     1       1.843  -1.741  -3.193  0.00  0.00    +0.000 A 
ATOM      4  C   UNL     1       0.758  -2.608  -3.002  0.00  0.00    +0.000 A 
ATOM      5  C   UNL     1      -0.542  -2.124  -2.823  0.00  0.00    +0.000 A 
ATOM      6  C   UNL     1      -0.719  -0.734  -2.840  0.00  0.00    +0.000 A 
ATOM      7  C   UNL     1       0.364   0.142  -3.014  0.00  0.00    +0.000 A 
BRANCH   5   8
ATOM      8  N   UNL     1      -1.637  -2.934  -2.510  0.00  0.00    +0.000 N 
ATOM      9  H   UNL     1      -2.490  -2.644  -2.981  0.00  0.00    +0.000 HD
BRANCH   8  10
ATOM     10  C   UNL     1      -1.470  -4.372  -2.335  0.00  0.00    +0.000 C 
BRANCH  10  11
ATOM     11  C   UNL     1      -2.787  -5.047  -1.917  0.00  0.00    +0.000 C 
ATOM     12  C   UNL     1      -3.326  -4.510  -0.582  0.00  0.00    +0.000 C 
ATOM     13  C   UNL     1      -4.530  -5.319  -0.114  0.00  0.00    +0.000 C 
ATOM     14  O   UNL     1      -4.204  -6.704  -0.015  0.00  0.00    +0.000 OA
ATOM     15  C   UNL     1      -3.827  -7.257  -1.274  0.00  0.00    +0.000 C 
ATOM     16  C   UNL     1      -2.579  -6.568  -1.808  0.00  0.00    +0.000 C 
ENDBRANCH  10  11
ENDBRANCH   8  10
ENDBRANCH   5   8
ENDBRANCH   1   2
BRANCH   1  19
ATOM     17  C   UNL     1       4.221   1.602  -5.060  0.00  0.00    +0.000 C 
ATOM     18  O   UNL     1       4.986   2.078  -4.226  0.00  0.00    +0.000 OA
ATOM     19  N   UNL     1       3.140   0.850  -4.684  0.00  0.00    +0.000 N 
ATOM     20  H   UNL     1       2.467   0.551  -5.374  0.00  0.00    +0.000 HD
BRANCH  17  28
ATOM     21  C   UNL     1       2.590   0.479  -7.872  0.00  0.00    +0.000 A 
ATOM     22  N   UNL     1       2.187   0.142  -9.114  0.00  0.00    +0.000 NA
ATOM     23  C   UNL     1       2.896   0.599 -10.149  0.00  0.00    +0.000 A 
ATOM     24  N   UNL     1       3.977   1.373 -10.103  0.00  0.00    +0.000 NA
ATOM     25  C   UNL     1       4.343   1.687  -8.848  0.00  0.00    +0.000 A 
ATOM     26  S   UNL     1       5.696   2.681  -8.595  0.00  0.00    +0.000 S 
ATOM     27  C   UNL     1       5.514   2.584  -6.909  0.00  0.00    +0.000 A 
ATOM     28  C   UNL     1       4.438   1.802  -6.501  0.00  0.00    +0.000 A 
ATOM     29  C   UNL     1       3.724   1.285  -7.669  0.00  0.00    +0.000 A 
BRANCH  21  31
ATOM     30  C   UNL     1       1.045  -1.094  -7.071  0.00  0.00    +0.000 C 
ATOM     31  O   UNL     1       1.811   0.081  -6.806  0.00  0.00    +0.000 OA
ENDBRANCH  21  31
ENDBRANCH  17  28
ENDBRANCH   1  19
TORSDOF 7
