REMARK  Name = 
REMARK  9 active torsions:
REMARK  status: ('A' for Active; 'I' for Inactive)
REMARK    1  A    between atoms: C_1  and  N_2
REMARK    2  A    between atoms: N_2  and  C_3
REMARK    3  A    between atoms: N_2  and  C_4
REMARK    4  A    between atoms: C_4  and  C_5
REMARK    5  A    between atoms: C_5  and  O_6
REMARK    6  A    between atoms: O_6  and  C_7
REMARK    7  A    between atoms: C_10  and  C_11
REMARK    8  A    between atoms: C_11  and  N_12
REMARK    9  A    between atoms: C_16  and  C_17
REMARK                            x       y       z     vdW  Elec       q    Type
REMARK                         _______ _______ _______ _____ _____    ______ ____
ROOT
ATOM      1  C   UNL     1      10.543   3.426   1.276  0.00  0.00    +0.000 C 
ENDROOT
BRANCH   1   2
ATOM      2  N   UNL     1      11.198   2.289   1.891  0.00  0.00    +0.000 N 
ATOM      3  C   UNL     1      12.564   2.484   2.052  0.00  0.00    +0.000 A 
ATOM      4  N   UNL     1      13.036   3.716   2.287  0.00  0.00    +0.000 NA
ATOM      5  C   UNL     1      14.374   3.859   2.401  0.00  0.00    +0.000 A 
ATOM      6  C   UNL     1      15.259   2.813   2.304  0.00  0.00    +0.000 A 
ATOM      7  C   UNL     1      14.681   1.589   2.061  0.00  0.00    +0.000 A 
ATOM      8  N   UNL     1      13.345   1.400   1.932  0.00  0.00    +0.000 NA
ATOM      9  H   UNL     1      11.076   1.404   1.414  0.00  0.00    +0.000 HD
BRANCH   6  10
ATOM     10  C   UNL     1      16.702   3.067   2.407  0.00  0.00    +0.000 C 
ATOM     11  N   UNL     1      17.517   2.035   2.776  0.00  0.00    +0.000 N 
ATOM     12  O   UNL     1      17.159   4.182   2.191  0.00  0.00    +0.000 OA
ATOM     13  H   UNL     1      17.186   1.177   3.195  0.00  0.00    +0.000 HD
ATOM     14  H   UNL     1      18.490   2.276   2.931  0.00  0.00    +0.000 HD
ENDBRANCH   6  10
ENDBRANCH   1   2
BRANCH   1  18
ATOM     15  C   UNL     1       6.338   2.919   1.039  0.00  0.00    +0.000 A 
ATOM     16  C   UNL     1       7.093   2.475  -0.034  0.00  0.00    +0.000 A 
ATOM     17  C   UNL     1       8.478   2.617   0.028  0.00  0.00    +0.000 A 
ATOM     18  C   UNL     1       9.065   3.184   1.164  0.00  0.00    +0.000 A 
ATOM     19  C   UNL     1       8.219   3.548   2.205  0.00  0.00    +0.000 A 
ATOM     20  N   UNL     1       6.875   3.438   2.162  0.00  0.00    +0.000 NA
BRANCH  15  21
ATOM     21  O   UNL     1       4.962   2.795   0.944  0.00  0.00    +0.000 OA
BRANCH  21  22
ATOM     22  C   UNL     1       4.296   3.668   1.868  0.00  0.00    +0.000 C 
BRANCH  22  23
ATOM     23  C   UNL     1       2.779   3.426   1.821  0.00  0.00    +0.000 C 
BRANCH  23  25
ATOM     24  C   UNL     1       0.561   4.095   2.497  0.00  0.00    +0.000 C 
ATOM     25  N   UNL     1       1.990   4.384   2.626  0.00  0.00    +0.000 NA
ATOM     26  C   UNL     1       2.372   4.371   4.040  0.00  0.00    +0.000 C 
ENDBRANCH  23  25
ENDBRANCH  22  23
ENDBRANCH  21  22
ENDBRANCH  15  21
ENDBRANCH   1  18
TORSDOF 7
