REMARK  Name = 
REMARK  7 active torsions:
REMARK  status: ('A' for Active; 'I' for Inactive)
REMARK    1  A    between atoms: N_1  and  C_2
REMARK    2  A    between atoms: C_2  and  C_3
REMARK    3  A    between atoms: C_6  and  C_7
REMARK    4  A    between atoms: C_7  and  C_8
REMARK    5  A    between atoms: C_8  and  S_9
REMARK    6  A    between atoms: S_9  and  C_10
REMARK    7  A    between atoms: C_13  and  C_14
REMARK                            x       y       z     vdW  Elec       q    Type
REMARK                         _______ _______ _______ _____ _____    ______ ____
ROOT
ATOM      1  C   UNL     1       3.661   4.096   5.087  0.00  0.00    +0.000 C 
ENDROOT
BRANCH   1   2
ATOM      2  C   UNL     1       3.689   2.561   5.104  0.00  0.00    +0.000 C 
BRANCH   2   6
ATOM      3  C   UNL     1       2.753   0.825   1.235  0.00  0.00    +0.000 A 
ATOM      4  C   UNL     1       4.081   1.099   1.593  0.00  0.00    +0.000 A 
ATOM      5  C   UNL     1       4.388   1.657   2.838  0.00  0.00    +0.000 A 
ATOM      6  C   UNL     1       3.371   1.949   3.756  0.00  0.00    +0.000 A 
ATOM      7  C   UNL     1       2.046   1.662   3.406  0.00  0.00    +0.000 A 
ATOM      8  C   UNL     1       1.740   1.105   2.160  0.00  0.00    +0.000 A 
BRANCH   3   9
ATOM      9  C   UNL     1       2.424   0.282  -0.133  0.00  0.00    +0.000 C 
BRANCH   9  10
ATOM     10  N   UNL     1       3.106  -0.980  -0.396  0.00  0.00    +0.000 NA
ATOM     11  H   UNL     1       2.751  -1.376  -1.264  0.00  0.00    +0.000 HD
ATOM     12  H   UNL     1       2.868  -1.640   0.343  0.00  0.00    +0.000 HD
ENDBRANCH   9  10
ENDBRANCH   3   9
ENDBRANCH   2   6
ENDBRANCH   1   2
BRANCH   1  13
ATOM     13  S   UNL     1       4.021   4.734   6.768  0.00  0.00    +0.000 S 
BRANCH  13  14
ATOM     14  C   UNL     1       3.954   6.500   6.520  0.00  0.00    +0.000 A 
ATOM     15  C   UNL     1       4.182   7.352   7.606  0.00  0.00    +0.000 A 
ATOM     16  N   UNL     1       4.160   8.712   7.526  0.00  0.00    +0.000 NA
ATOM     17  C   UNL     1       3.897   9.198   6.282  0.00  0.00    +0.000 A 
ATOM     18  C   UNL     1       3.666   8.362   5.197  0.00  0.00    +0.000 A 
ATOM     19  N   UNL     1       3.690   7.001   5.292  0.00  0.00    +0.000 NA
BRANCH  17  20
ATOM     20  C   UNL     1       3.865  10.679   6.108  0.00  0.00    +0.000 C 
ATOM     21  N   UNL     1       4.109  11.436   7.226  0.00  0.00    +0.000 N 
ATOM     22  O   UNL     1       3.633  11.200   5.024  0.00  0.00    +0.000 OA
ATOM     23  H   UNL     1       4.303  10.994   8.118  0.00  0.00    +0.000 HD
ATOM     24  H   UNL     1       4.100  12.442   7.150  0.00  0.00    +0.000 HD
ENDBRANCH  17  20
ENDBRANCH  13  14
ENDBRANCH   1  13
TORSDOF 7
