REMARK  Name = 
REMARK  8 active torsions:
REMARK  status: ('A' for Active; 'I' for Inactive)
REMARK    1  A    between atoms: C_1  and  C_2
REMARK    2  A    between atoms: C_5  and  C_6
REMARK    3  A    between atoms: C_8  and  N_9
REMARK    4  A    between atoms: N_9  and  C_10
REMARK    5  A    between atoms: C_10  and  C_11
REMARK    6  A    between atoms: C_11  and  C_14
REMARK    7  A    between atoms: C_17  and  C_18
REMARK    8  A    between atoms: C_24  and  C_25
REMARK                            x       y       z     vdW  Elec       q    Type
REMARK                         _______ _______ _______ _____ _____    ______ ____
ROOT
ATOM      1  N   UNL     1       7.310  -4.271   0.109  0.00  0.00    +0.000 N 
ATOM      2  H   UNL     1       6.422  -4.445  -0.364  0.00  0.00    +0.000 HD
ENDROOT
BRANCH   1   5
ATOM      3  C   UNL     1       6.248  -1.289   2.066  0.00  0.00    +0.000 A 
ATOM      4  C   UNL     1       6.378  -2.237   1.036  0.00  0.00    +0.000 A 
ATOM      5  C   UNL     1       7.175  -3.382   1.186  0.00  0.00    +0.000 A 
ATOM      6  C   UNL     1       7.892  -3.525   2.381  0.00  0.00    +0.000 A 
ATOM      7  C   UNL     1       7.791  -2.596   3.422  0.00  0.00    +0.000 A 
ATOM      8  C   UNL     1       6.974  -1.476   3.247  0.00  0.00    +0.000 A 
BRANCH   3  13
ATOM      9  C   UNL     1       2.951   2.204   5.233  0.00  0.00    +0.000 C 
ATOM     10  C   UNL     1       3.253   1.197   4.137  0.00  0.00    +0.000 C 
ATOM     11  C   UNL     1       4.558   0.392   4.332  0.00  0.00    +0.000 C 
ATOM     12  C   UNL     1       4.708   0.553   2.830  0.00  0.00    +0.000 C 
ATOM     13  C   UNL     1       5.380  -0.114   1.878  0.00  0.00    +0.000 C 
ATOM     14  C   UNL     1       3.785   1.759   2.791  0.00  0.00    +0.000 C 
ENDBRANCH   3  13
BRANCH   7  15
ATOM     15  C   UNL     1       8.543  -2.796   4.710  0.00  0.00    +0.000 C 
ATOM     16  F   UNL     1       9.312  -3.922   4.724  0.00  0.00    +0.000 F 
ATOM     17  F   UNL     1       9.388  -1.766   4.990  0.00  0.00    +0.000 F 
ATOM     18  F   UNL     1       7.713  -2.903   5.785  0.00  0.00    +0.000 F 
ENDBRANCH   7  15
ENDBRANCH   1   5
BRANCH   1  19
ATOM     19  C   UNL     1       8.125  -5.492   0.311  0.00  0.00    +0.000 C 
BRANCH  19  20
ATOM     20  C   UNL     1       8.138  -6.482  -0.874  0.00  0.00    +0.000 C 
ATOM     21  F   UNL     1       6.860  -6.929  -1.079  0.00  0.00    +0.000 F 
ATOM     22  F   UNL     1       8.468  -5.804  -2.016  0.00  0.00    +0.000 F 
BRANCH  20  23
ATOM     23  C   UNL     1       9.108  -7.630  -0.586  0.00  0.00    +0.000 A 
ATOM     24  C   UNL     1       9.752  -8.268  -1.643  0.00  0.00    +0.000 A 
ATOM     25  C   UNL     1      10.634  -9.316  -1.370  0.00  0.00    +0.000 A 
ATOM     26  C   UNL     1      10.857  -9.722  -0.052  0.00  0.00    +0.000 A 
ATOM     27  C   UNL     1      10.175  -9.039   0.941  0.00  0.00    +0.000 A 
ATOM     28  N   UNL     1       9.311  -8.017   0.707  0.00  0.00    +0.000 NA
BRANCH  26  29
ATOM     29  C   UNL     1      11.794 -10.840   0.209  0.00  0.00    +0.000 C 
ATOM     30  N   UNL     1      12.012 -11.247   1.496  0.00  0.00    +0.000 N 
ATOM     31  O   UNL     1      12.378 -11.401  -0.709  0.00  0.00    +0.000 OA
ATOM     32  H   UNL     1      11.584 -10.867   2.327  0.00  0.00    +0.000 HD
ATOM     33  H   UNL     1      12.657 -12.016   1.620  0.00  0.00    +0.000 HD
ENDBRANCH  26  29
ENDBRANCH  20  23
ENDBRANCH  19  20
ENDBRANCH   1  19
TORSDOF 7
