REMARK  Name = 
REMARK  7 active torsions:
REMARK  status: ('A' for Active; 'I' for Inactive)
REMARK    1  A    between atoms: C_1  and  C_2
REMARK    2  A    between atoms: C_2  and  C_3
REMARK    3  A    between atoms: C_7  and  C_8
REMARK    4  A    between atoms: C_8  and  C_9
REMARK    5  A    between atoms: C_9  and  N_10
REMARK    6  A    between atoms: N_10  and  C_11
REMARK    7  A    between atoms: C_14  and  C_15
REMARK                            x       y       z     vdW  Elec       q    Type
REMARK                         _______ _______ _______ _____ _____    ______ ____
ROOT
ATOM      1  C   UNL     1       4.757  -2.351   5.361  0.00  0.00    +0.000 C 
ENDROOT
BRANCH   1   2
ATOM      2  N   UNL     1       5.408  -3.535   5.913  0.00  0.00    +0.000 N 
ATOM      3  H   UNL     1       5.376  -4.384   5.356  0.00  0.00    +0.000 HD
BRANCH   2   4
ATOM      4  C   UNL     1       5.516  -3.712   7.290  0.00  0.00    +0.000 A 
ATOM      5  C   UNL     1       5.120  -2.744   8.224  0.00  0.00    +0.000 A 
ATOM      6  C   UNL     1       5.357  -2.905   9.596  0.00  0.00    +0.000 A 
ATOM      7  C   UNL     1       6.021  -4.040  10.067  0.00  0.00    +0.000 A 
ATOM      8  C   UNL     1       6.427  -5.002   9.144  0.00  0.00    +0.000 A 
ATOM      9  F   UNL     1       7.082  -6.107   9.537  0.00  0.00    +0.000 F 
ATOM     10  C   UNL     1       6.182  -4.841   7.777  0.00  0.00    +0.000 A 
BRANCH   7  11
ATOM     11  C   UNL     1       6.274  -4.151  11.527  0.00  0.00    +0.000 C 
ATOM     12  N   UNL     1       6.924  -5.259  11.985  0.00  0.00    +0.000 N 
ATOM     13  O   UNL     1       5.915  -3.275  12.307  0.00  0.00    +0.000 OA
ATOM     14  H   UNL     1       7.245  -6.003  11.372  0.00  0.00    +0.000 HD
ATOM     15  H   UNL     1       7.106  -5.331  12.975  0.00  0.00    +0.000 HD
ENDBRANCH   7  11
ENDBRANCH   2   4
ENDBRANCH   1   2
BRANCH   1  16
ATOM     16  C   UNL     1       4.672  -2.408   3.830  0.00  0.00    +0.000 C 
BRANCH  16  21
ATOM     17  C   UNL     1       1.998   0.127   2.802  0.00  0.00    +0.000 A 
ATOM     18  C   UNL     1       2.806   1.231   2.468  0.00  0.00    +0.000 A 
ATOM     19  C   UNL     1       4.200   1.150   2.526  0.00  0.00    +0.000 A 
ATOM     20  C   UNL     1       4.809  -0.037   2.938  0.00  0.00    +0.000 A 
ATOM     21  C   UNL     1       4.036  -1.146   3.279  0.00  0.00    +0.000 A 
ATOM     22  C   UNL     1       2.637  -1.063   3.186  0.00  0.00    +0.000 A 
BRANCH  17  24
ATOM     23  C   UNL     1       0.019   1.336   3.791  0.00  0.00    +0.000 C 
ATOM     24  C   UNL     1       0.483   0.278   2.787  0.00  0.00    +0.000 C 
ATOM     25  C   UNL     1      -0.064   0.498   1.398  0.00  0.00    +0.000 C 
ATOM     26  C   UNL     1      -0.901  -0.491   1.071  0.00  0.00    +0.000 C 
ATOM     27  N   UNL     1      -1.071  -1.419   2.059  0.00  0.00    +0.000 NA
ATOM     28  C   UNL     1      -0.308  -0.995   3.020  0.00  0.00    +0.000 C 
ATOM     29  F   UNL     1      -0.254  -1.664   4.177  0.00  0.00    +0.000 F 
ENDBRANCH  17  24
ENDBRANCH  16  21
ENDBRANCH   1  16
TORSDOF 6
