REMARK  Name = 
REMARK  5 active torsions:
REMARK  status: ('A' for Active; 'I' for Inactive)
REMARK    1  A    between atoms: C_1  and  C_2
REMARK    2  A    between atoms: C_2  and  O_3
REMARK    3  A    between atoms: C_2  and  C_13
REMARK    4  A    between atoms: O_3  and  C_4
REMARK    5  A    between atoms: C_7  and  C_8
REMARK                            x       y       z     vdW  Elec       q    Type
REMARK                         _______ _______ _______ _____ _____    ______ ____
ROOT
ATOM      1  C   UNL     1       2.456  -1.439   2.084  0.00  0.00    +0.000 A 
ATOM      2  C   UNL     1       2.176  -2.713   2.585  0.00  0.00    +0.000 A 
ATOM      3  C   UNL     1       1.803  -2.873   3.923  0.00  0.00    +0.000 A 
ATOM      4  C   UNL     1       1.770  -1.750   4.737  0.00  0.00    +0.000 A 
ATOM      5  N   UNL     1       2.065  -0.496   4.300  0.00  0.00    +0.000 NA
ATOM      6  C   UNL     1       2.399  -0.383   2.987  0.00  0.00    +0.000 A 
ENDROOT
BRANCH   4   7
ATOM      7  C   UNL     1       1.443  -1.910   6.189  0.00  0.00    +0.000 C 
ATOM      8  N   UNL     1       1.441  -0.764   6.936  0.00  0.00    +0.000 N 
ATOM      9  O   UNL     1       1.203  -3.008   6.693  0.00  0.00    +0.000 OA
ATOM     10  H   UNL     1       1.676   0.121   6.502  0.00  0.00    +0.000 HD
ATOM     11  H   UNL     1       1.268  -0.818   7.926  0.00  0.00    +0.000 HD
ENDBRANCH   4   7
BRANCH   1  12
ATOM     12  O   UNL     1       2.811  -1.338   0.766  0.00  0.00    +0.000 OA
BRANCH  12  14
ATOM     13  C   UNL     1       1.029   0.112  -0.085  0.00  0.00    +0.000 C 
ATOM     14  C   UNL     1       2.539  -0.098   0.074  0.00  0.00    +0.000 C 
BRANCH  14  15
ATOM     15  C   UNL     1       3.193  -0.127  -1.339  0.00  0.00    +0.000 C 
ATOM     16  C   UNL     1       2.661  -1.273  -2.221  0.00  0.00    +0.000 C 
ATOM     17  C   UNL     1       3.305  -1.266  -3.605  0.00  0.00    +0.000 C 
ATOM     18  C   UNL     1       4.823  -1.324  -3.507  0.00  0.00    +0.000 C 
ATOM     19  C   UNL     1       5.365  -0.185  -2.651  0.00  0.00    +0.000 C 
ATOM     20  C   UNL     1       4.728  -0.169  -1.258  0.00  0.00    +0.000 C 
ENDBRANCH  14  15
ENDBRANCH  12  14
ENDBRANCH   1  12
TORSDOF 4
