REMARK  Name = 
REMARK  4 active torsions:
REMARK  status: ('A' for Active; 'I' for Inactive)
REMARK    1  A    between atoms: C_2  and  C_4
REMARK    2  A    between atoms: N_8  and  C_9
REMARK    3  A    between atoms: C_9  and  C_10
REMARK    4  A    between atoms: C_14  and  C_15
REMARK                            x       y       z     vdW  Elec       q    Type
REMARK                         _______ _______ _______ _____ _____    ______ ____
ROOT
ATOM      1  C   UNL     1       5.069  -3.984  -4.486  0.00  0.00    +0.000 C 
ENDROOT
BRANCH   1   6
ATOM      2  C   UNL     1       7.910  -0.992  -1.387  0.00  0.00    +0.000 A 
ATOM      3  C   UNL     1       7.913  -1.118  -2.770  0.00  0.00    +0.000 A 
ATOM      4  C   UNL     1       7.055  -2.038  -3.369  0.00  0.00    +0.000 A 
ATOM      5  C   UNL     1       6.217  -2.820  -2.583  0.00  0.00    +0.000 A 
ATOM      6  N   UNL     1       5.292  -3.685  -3.094  0.00  0.00    +0.000 N 
ATOM      7  N   UNL     1       6.239  -2.736  -1.238  0.00  0.00    +0.000 NA
ATOM      8  C   UNL     1       7.082  -1.836  -0.665  0.00  0.00    +0.000 A 
ATOM      9  H   UNL     1       4.830  -4.237  -2.382  0.00  0.00    +0.000 HD
BRANCH   2  11
ATOM     10  N   UNL     1       9.085   1.131  -1.370  0.00  0.00    +0.000 N 
ATOM     11  C   UNL     1       8.745  -0.002  -0.680  0.00  0.00    +0.000 C 
ATOM     12  O   UNL     1       9.084  -0.162   0.484  0.00  0.00    +0.000 OA
ATOM     13  H   UNL     1       9.561   1.851  -0.842  0.00  0.00    +0.000 HD
ATOM     14  H   UNL     1       8.614   1.412  -2.219  0.00  0.00    +0.000 HD
ENDBRANCH   2  11
ENDBRANCH   1   6
BRANCH   1  15
ATOM     15  C   UNL     1       6.004  -5.061  -4.964  0.00  0.00    +0.000 A 
ATOM     16  C   UNL     1       6.956  -4.818  -5.956  0.00  0.00    +0.000 A 
ATOM     17  C   UNL     1       7.799  -5.852  -6.327  0.00  0.00    +0.000 A 
ATOM     18  N   UNL     1       7.750  -7.092  -5.795  0.00  0.00    +0.000 NA
ATOM     19  C   UNL     1       6.817  -7.337  -4.842  0.00  0.00    +0.000 A 
ATOM     20  C   UNL     1       5.941  -6.343  -4.408  0.00  0.00    +0.000 A 
BRANCH  19  21
ATOM     21  C   UNL     1       6.792  -8.701  -4.296  0.00  0.00    +0.000 A 
ATOM     22  C   UNL     1       7.958  -9.467  -4.196  0.00  0.00    +0.000 A 
ATOM     23  N   UNL     1       8.025 -10.724  -3.679  0.00  0.00    +0.000 NA
ATOM     24  C   UNL     1       6.862 -11.258  -3.248  0.00  0.00    +0.000 A 
ATOM     25  C   UNL     1       5.653 -10.596  -3.315  0.00  0.00    +0.000 A 
ATOM     26  F   UNL     1       4.527 -11.174  -2.878  0.00  0.00    +0.000 F 
ATOM     27  C   UNL     1       5.612  -9.312  -3.843  0.00  0.00    +0.000 A 
ENDBRANCH  19  21
ENDBRANCH   1  15
TORSDOF 4
