REMARK  Name = 
REMARK  6 active torsions:
REMARK  status: ('A' for Active; 'I' for Inactive)
REMARK    1  A    between atoms: N_1  and  C_2
REMARK    2  A    between atoms: C_2  and  C_3
REMARK    3  A    between atoms: C_3  and  C_4
REMARK    4  A    between atoms: C_7  and  C_8
REMARK    5  A    between atoms: C_8  and  C_9
REMARK    6  A    between atoms: C_16  and  C_17
REMARK                            x       y       z     vdW  Elec       q    Type
REMARK                         _______ _______ _______ _____ _____    ______ ____
ROOT
ATOM      1  C   UNL     1       9.503   1.436   0.960  0.00  0.00    +0.000 A 
ATOM      2  N   UNL     1       9.823   2.549   1.645  0.00  0.00    +0.000 NA
ATOM      3  O   UNL     1       9.909   3.550   0.694  0.00  0.00    +0.000 OA
ATOM      4  C   UNL     1       9.729   3.012  -0.539  0.00  0.00    +0.000 A 
ATOM      5  C   UNL     1       9.591   3.725  -1.721  0.00  0.00    +0.000 A 
ATOM      6  C   UNL     1       9.418   2.962  -2.875  0.00  0.00    +0.000 A 
ATOM      7  F   UNL     1       9.197   3.628  -4.020  0.00  0.00    +0.000 F 
ATOM      8  C   UNL     1       9.463   1.562  -2.858  0.00  0.00    +0.000 A 
ATOM      9  C   UNL     1       9.566   0.876  -1.627  0.00  0.00    +0.000 A 
ATOM     10  C   UNL     1       9.645   1.637  -0.448  0.00  0.00    +0.000 A 
ENDROOT
BRANCH   8  11
ATOM     11  C   UNL     1       9.393   0.758  -4.112  0.00  0.00    +0.000 C 
ATOM     12  N   UNL     1       9.160   1.412  -5.285  0.00  0.00    +0.000 N 
ATOM     13  O   UNL     1       9.550  -0.456  -4.087  0.00  0.00    +0.000 OA
ATOM     14  H   UNL     1       9.040   2.416  -5.348  0.00  0.00    +0.000 HD
ATOM     15  H   UNL     1       9.148   0.874  -6.140  0.00  0.00    +0.000 HD
ENDBRANCH   8  11
BRANCH   1  16
ATOM     16  C   UNL     1       8.850   0.298   1.673  0.00  0.00    +0.000 C 
BRANCH  16  20
ATOM     17  C   UNL     1       4.669   1.301   0.989  0.00  0.00    +0.000 A 
ATOM     18  C   UNL     1       5.292   0.293   0.243  0.00  0.00    +0.000 A 
ATOM     19  C   UNL     1       6.624  -0.063   0.491  0.00  0.00    +0.000 A 
ATOM     20  C   UNL     1       7.363   0.578   1.496  0.00  0.00    +0.000 A 
ATOM     21  C   UNL     1       6.723   1.570   2.261  0.00  0.00    +0.000 A 
ATOM     22  C   UNL     1       5.394   1.927   2.010  0.00  0.00    +0.000 A 
BRANCH  17  23
ATOM     23  C   UNL     1       3.248   1.719   0.691  0.00  0.00    +0.000 C 
BRANCH  23  24
ATOM     24  C   UNL     1       2.215   0.910   1.483  0.00  0.00    +0.000 C 
BRANCH  24  25
ATOM     25  N   UNL     1       0.852   1.351   1.178  0.00  0.00    +0.000 NA
ATOM     26  H   UNL     1       0.189   0.781   1.703  0.00  0.00    +0.000 HD
ATOM     27  H   UNL     1       0.649   1.187   0.193  0.00  0.00    +0.000 HD
ENDBRANCH  24  25
ENDBRANCH  23  24
ENDBRANCH  17  23
ENDBRANCH  16  20
ENDBRANCH   1  16
TORSDOF 6
