REMARK  Name = 
REMARK  6 active torsions:
REMARK  status: ('A' for Active; 'I' for Inactive)
REMARK    1  A    between atoms: C_2  and  C_4
REMARK    2  A    between atoms: C_7  and  O_8
REMARK    3  A    between atoms: O_8  and  C_9
REMARK    4  A    between atoms: C_9  and  C_10
REMARK    5  A    between atoms: C_14  and  C_15
REMARK    6  A    between atoms: C_19  and  O_20
REMARK                            x       y       z     vdW  Elec       q    Type
REMARK                         _______ _______ _______ _____ _____    ______ ____
ROOT
ATOM      1  C   UNL     1       5.116  -1.184   5.730  0.00  0.00    +0.000 C 
ATOM      2  C   UNL     1       4.989  -2.672   6.020  0.00  0.00    +0.000 C 
ATOM      3  C   UNL     1       3.773  -1.807   6.062  0.00  0.00    +0.000 C 
ENDROOT
BRANCH   1   4
ATOM      4  C   UNL     1       5.814  -0.287   6.737  0.00  0.00    +0.000 A 
ATOM      5  C   UNL     1       7.198  -0.364   6.939  0.00  0.00    +0.000 A 
ATOM      6  C   UNL     1       7.858   0.546   7.763  0.00  0.00    +0.000 A 
ATOM      7  C   UNL     1       7.146   1.573   8.387  0.00  0.00    +0.000 A 
ATOM      8  C   UNL     1       5.761   1.709   8.208  0.00  0.00    +0.000 A 
ATOM      9  C   UNL     1       5.121   0.736   7.417  0.00  0.00    +0.000 A 
BRANCH   8  10
ATOM     10  C   UNL     1       5.009   2.888   8.706  0.00  0.00    +0.000 A 
ATOM     11  C   UNL     1       5.602   4.168   8.704  0.00  0.00    +0.000 A 
ATOM     12  C   UNL     1       4.871   5.311   9.045  0.00  0.00    +0.000 A 
ATOM     13  C   UNL     1       3.527   5.207   9.384  0.00  0.00    +0.000 A 
ATOM     14  C   UNL     1       2.931   3.953   9.402  0.00  0.00    +0.000 A 
ATOM     15  C   UNL     1       3.661   2.805   9.093  0.00  0.00    +0.000 A 
BRANCH  14  16
ATOM     16  O   UNL     1       1.607   3.804   9.693  0.00  0.00    +0.000 OA
ATOM     17  H   UNL     1       1.204   4.686   9.758  0.00  0.00    +0.000 HD
ENDBRANCH  14  16
ENDBRANCH   8  10
ENDBRANCH   1   4
BRANCH   1  18
ATOM     18  O   UNL     1       5.469  -0.969   4.341  0.00  0.00    +0.000 OA
BRANCH  18  22
ATOM     19  C   UNL     1       3.541   1.756   1.844  0.00  0.00    +0.000 A 
ATOM     20  C   UNL     1       3.155   1.693   3.187  0.00  0.00    +0.000 A 
ATOM     21  C   UNL     1       3.797   0.812   4.063  0.00  0.00    +0.000 A 
ATOM     22  C   UNL     1       4.822  -0.012   3.606  0.00  0.00    +0.000 A 
ATOM     23  C   UNL     1       5.231   0.078   2.273  0.00  0.00    +0.000 A 
ATOM     24  C   UNL     1       4.589   0.950   1.390  0.00  0.00    +0.000 A 
BRANCH  19  26
ATOM     25  N   UNL     1       2.167   3.708   1.361  0.00  0.00    +0.000 N 
ATOM     26  C   UNL     1       2.816   2.609   0.868  0.00  0.00    +0.000 C 
ATOM     27  O   UNL     1       2.802   2.348  -0.329  0.00  0.00    +0.000 OA
ATOM     28  H   UNL     1       1.721   4.309   0.677  0.00  0.00    +0.000 HD
ATOM     29  H   UNL     1       2.331   4.075   2.282  0.00  0.00    +0.000 HD
ENDBRANCH  19  26
ENDBRANCH  18  22
ENDBRANCH   1  18
TORSDOF 6
