REMARK  Name = 
REMARK  6 active torsions:
REMARK  status: ('A' for Active; 'I' for Inactive)
REMARK    1  A    between atoms: C_1  and  C_2
REMARK    2  A    between atoms: C_5  and  C_6
REMARK    3  A    between atoms: C_9  and  N_10
REMARK    4  A    between atoms: N_10  and  C_11
REMARK    5  A    between atoms: C_11  and  C_12
REMARK    6  A    between atoms: C_16  and  C_17
REMARK                            x       y       z     vdW  Elec       q    Type
REMARK                         _______ _______ _______ _____ _____    ______ ____
ROOT
ATOM      1  N   UNL     1      -1.344   2.382  -0.674  0.00  0.00    +0.000 N 
ATOM      2  H   UNL     1      -1.555   2.415  -1.683  0.00  0.00    +0.000 HD
ENDROOT
BRANCH   1   8
ATOM      3  C   UNL     1      -2.482  -0.327   3.353  0.00  0.00    +0.000 C 
ATOM      4  C   UNL     1      -2.573  -0.060   1.882  0.00  0.00    +0.000 A 
ATOM      5  C   UNL     1      -3.289  -0.908   1.044  0.00  0.00    +0.000 A 
ATOM      6  N   UNL     1      -3.414  -0.725  -0.287  0.00  0.00    +0.000 NA
ATOM      7  C   UNL     1      -2.775   0.366  -0.810  0.00  0.00    +0.000 A 
ATOM      8  C   UNL     1      -2.025   1.299  -0.061  0.00  0.00    +0.000 A 
ATOM      9  C   UNL     1      -1.948   1.062   1.315  0.00  0.00    +0.000 A 
BRANCH   7  10
ATOM     10  C   UNL     1      -2.997   0.576  -2.285  0.00  0.00    +0.000 C 
ATOM     11  N   UNL     1      -3.743  -0.384  -2.919  0.00  0.00    +0.000 N 
ATOM     12  O   UNL     1      -2.581   1.554  -2.888  0.00  0.00    +0.000 OA
ATOM     13  H   UNL     1      -4.142  -1.141  -2.376  0.00  0.00    +0.000 HD
ATOM     14  H   UNL     1      -4.002  -0.256  -3.885  0.00  0.00    +0.000 HD
ENDBRANCH   7  10
ENDBRANCH   1   8
BRANCH   1  15
ATOM     15  C   UNL     1      -1.213   3.732  -0.066  0.00  0.00    +0.000 C 
ATOM     16  C   UNL     1      -0.038   4.547  -0.617  0.00  0.00    +0.000 C 
ATOM     17  C   UNL     1       0.007   4.027   0.784  0.00  0.00    +0.000 C 
BRANCH  15  18
ATOM     18  C   UNL     1      -2.525   4.548   0.051  0.00  0.00    +0.000 A 
ATOM     19  C   UNL     1      -2.593   5.804   0.674  0.00  0.00    +0.000 A 
ATOM     20  C   UNL     1      -3.758   6.556   0.606  0.00  0.00    +0.000 A 
ATOM     21  N   UNL     1      -4.884   6.147  -0.011  0.00  0.00    +0.000 NA
ATOM     22  C   UNL     1      -4.855   4.925  -0.601  0.00  0.00    +0.000 A 
ATOM     23  C   UNL     1      -3.711   4.123  -0.570  0.00  0.00    +0.000 A 
BRANCH  22  24
ATOM     24  C   UNL     1      -6.071   4.396  -1.351  0.00  0.00    +0.000 C 
ATOM     25  F   UNL     1      -7.079   5.301  -1.504  0.00  0.00    +0.000 F 
ATOM     26  F   UNL     1      -5.763   3.973  -2.613  0.00  0.00    +0.000 F 
ATOM     27  F   UNL     1      -6.633   3.313  -0.736  0.00  0.00    +0.000 F 
ENDBRANCH  22  24
ENDBRANCH  15  18
ENDBRANCH   1  15
TORSDOF 5
