REMARK  Name = 
REMARK  7 active torsions:
REMARK  status: ('A' for Active; 'I' for Inactive)
REMARK    1  A    between atoms: C_1  and  N_2
REMARK    2  A    between atoms: N_2  and  C_3
REMARK    3  A    between atoms: C_3  and  C_4
REMARK    4  A    between atoms: C_7  and  C_8
REMARK    5  A    between atoms: C_8  and  N_9
REMARK    6  A    between atoms: C_10  and  C_12
REMARK    7  A    between atoms: C_19  and  C_21
REMARK                            x       y       z     vdW  Elec       q    Type
REMARK                         _______ _______ _______ _____ _____    ______ ____
ROOT
ATOM      1  C   UNL     1       2.122   1.004  -2.219  0.00  0.00    +0.000 A 
ATOM      2  C   UNL     1       1.268   0.132  -2.914  0.00  0.00    +0.000 A 
ATOM      3  C   UNL     1       0.341   0.629  -3.830  0.00  0.00    +0.000 A 
ATOM      4  C   UNL     1       0.258   2.005  -4.075  0.00  0.00    +0.000 A 
ATOM      5  C   UNL     1       1.107   2.875  -3.378  0.00  0.00    +0.000 A 
ATOM      6  C   UNL     1       2.039   2.378  -2.465  0.00  0.00    +0.000 A 
ENDROOT
BRANCH   1   7
ATOM      7  C   UNL     1       3.083   0.470  -1.189  0.00  0.00    +0.000 C 
BRANCH   7   9
ATOM      8  C   UNL     1       4.775   0.147  -3.043  0.00  0.00    +0.000 C 
ATOM      9  N   UNL     1       4.423   0.075  -1.629  0.00  0.00    +0.000 N 
ATOM     10  C   UNL     1       5.495  -0.107  -0.735  0.00  0.00    +0.000 C 
ATOM     11  O   UNL     1       6.650  -0.226  -1.141  0.00  0.00    +0.000 OA
BRANCH  10  12
ATOM     12  C   UNL     1       5.227  -0.202   0.709  0.00  0.00    +0.000 A 
ATOM     13  C   UNL     1       4.202  -0.945   1.271  0.00  0.00    +0.000 A 
ATOM     14  S   UNL     1       4.192  -0.918   2.978  0.00  0.00    +0.000 S 
ATOM     15  C   UNL     1       5.646  -0.039   3.024  0.00  0.00    +0.000 A 
ATOM     16  N   UNL     1       6.264   0.230   4.204  0.00  0.00    +0.000 NA
ATOM     17  C   UNL     1       7.393   0.846   4.080  0.00  0.00    +0.000 A 
ATOM     18  N   UNL     1       7.937   1.249   2.887  0.00  0.00    +0.000 N 
ATOM     19  C   UNL     1       7.279   1.125   1.682  0.00  0.00    +0.000 A 
ATOM     20  O   UNL     1       7.674   1.716   0.685  0.00  0.00    +0.000 OA
ATOM     21  C   UNL     1       6.071   0.322   1.758  0.00  0.00    +0.000 A 
ATOM     22  H   UNL     1       8.788   1.790   2.867  0.00  0.00    +0.000 HD
ENDBRANCH  10  12
ENDBRANCH   7   9
ENDBRANCH   1   7
BRANCH   4  23
ATOM     23  C   UNL     1      -0.747   2.545  -5.053  0.00  0.00    +0.000 C 
BRANCH  23  24
ATOM     24  N   UNL     1      -2.002   2.842  -4.422  0.00  0.00    +0.000 N 
ATOM     25  C   UNL     1      -3.053   3.358  -5.140  0.00  0.00    +0.000 C 
ATOM     26  O   UNL     1      -2.997   3.624  -6.336  0.00  0.00    +0.000 OA
ATOM     27  H   UNL     1      -2.163   2.649  -3.438  0.00  0.00    +0.000 HD
BRANCH  25  28
ATOM     28  C   UNL     1      -4.258   3.555  -4.336  0.00  0.00    +0.000 A 
ATOM     29  C   UNL     1      -5.461   4.072  -4.770  0.00  0.00    +0.000 A 
ATOM     30  N   UNL     1      -6.282   4.059  -3.676  0.00  0.00    +0.000 N 
ATOM     31  C   UNL     1      -5.567   3.549  -2.632  0.00  0.00    +0.000 A 
ATOM     32  N   UNL     1      -4.342   3.235  -2.987  0.00  0.00    +0.000 NA
ATOM     33  H   UNL     1      -7.245   4.370  -3.645  0.00  0.00    +0.000 HD
ENDBRANCH  25  28
ENDBRANCH  23  24
ENDBRANCH   4  23
TORSDOF 6
