REMARK  Name = 
REMARK  7 active torsions:
REMARK  status: ('A' for Active; 'I' for Inactive)
REMARK    1  A    between atoms: N_1  and  C_2
REMARK    2  A    between atoms: C_2  and  C_3
REMARK    3  A    between atoms: C_6  and  C_7
REMARK    4  A    between atoms: C_7  and  C_8
REMARK    5  A    between atoms: C_11  and  C_12
REMARK    6  A    between atoms: C_12  and  N_13
REMARK    7  A    between atoms: C_14  and  C_16
REMARK                            x       y       z     vdW  Elec       q    Type
REMARK                         _______ _______ _______ _____ _____    ______ ____
ROOT
ATOM      1  C   UNL     1       4.499  -4.753  -2.625  0.00  0.00    +0.000 A 
ATOM      2  C   UNL     1       5.106  -3.681  -3.288  0.00  0.00    +0.000 A 
ATOM      3  C   UNL     1       5.738  -3.875  -4.521  0.00  0.00    +0.000 A 
ATOM      4  C   UNL     1       5.784  -5.147  -5.107  0.00  0.00    +0.000 A 
ATOM      5  C   UNL     1       5.266  -6.235  -4.393  0.00  0.00    +0.000 A 
ATOM      6  C   UNL     1       4.625  -6.038  -3.168  0.00  0.00    +0.000 A 
ENDROOT
BRANCH   1   7
ATOM      7  C   UNL     1       3.715  -4.546  -1.349  0.00  0.00    +0.000 C 
BRANCH   7  11
ATOM      8  C   UNL     1       0.190  -5.158  -0.613  0.00  0.00    +0.000 C 
ATOM      9  C   UNL     1       1.198  -4.602   0.400  0.00  0.00    +0.000 C 
ATOM     10  C   UNL     1       1.860  -3.327  -0.107  0.00  0.00    +0.000 C 
ATOM     11  C   UNL     1       2.515  -3.568  -1.472  0.00  0.00    +0.000 C 
ATOM     12  C   UNL     1       1.417  -4.065  -2.421  0.00  0.00    +0.000 C 
ATOM     13  O   UNL     1       0.743  -5.226  -1.937  0.00  0.00    +0.000 OA
BRANCH   8  14
ATOM     14  C   UNL     1      -1.186  -4.448  -0.556  0.00  0.00    +0.000 C 
BRANCH  14  15
ATOM     15  N   UNL     1      -1.859  -4.634   0.737  0.00  0.00    +0.000 NA
ATOM     16  H   UNL     1      -2.794  -4.230   0.704  0.00  0.00    +0.000 HD
ATOM     17  H   UNL     1      -1.361  -4.131   1.470  0.00  0.00    +0.000 HD
ENDBRANCH  14  15
ENDBRANCH   8  14
ENDBRANCH   7  11
ENDBRANCH   1   7
BRANCH   4  18
ATOM     18  C   UNL     1       6.402  -5.352  -6.465  0.00  0.00    +0.000 C 
BRANCH  18  19
ATOM     19  N   UNL     1       7.810  -5.623  -6.354  0.00  0.00    +0.000 N 
ATOM     20  C   UNL     1       8.612  -5.735  -7.459  0.00  0.00    +0.000 C 
ATOM     21  O   UNL     1       8.190  -5.558  -8.598  0.00  0.00    +0.000 OA
ATOM     22  H   UNL     1       8.124  -6.005  -5.470  0.00  0.00    +0.000 HD
BRANCH  20  23
ATOM     23  C   UNL     1      10.032  -6.003  -7.196  0.00  0.00    +0.000 A 
ATOM     24  C   UNL     1      10.987  -5.662  -8.144  0.00  0.00    +0.000 A 
ATOM     25  S   UNL     1      12.590  -5.952  -7.635  0.00  0.00    +0.000 S 
ATOM     26  C   UNL     1      12.057  -6.603  -6.155  0.00  0.00    +0.000 A 
ATOM     27  N   UNL     1      12.949  -7.068  -5.237  0.00  0.00    +0.000 NA
ATOM     28  C   UNL     1      12.406  -7.560  -4.170  0.00  0.00    +0.000 A 
ATOM     29  N   UNL     1      11.057  -7.630  -3.943  0.00  0.00    +0.000 N 
ATOM     30  C   UNL     1      10.122  -7.163  -4.835  0.00  0.00    +0.000 A 
ATOM     31  O   UNL     1       8.925  -7.229  -4.593  0.00  0.00    +0.000 OA
ATOM     32  C   UNL     1      10.682  -6.590  -6.047  0.00  0.00    +0.000 A 
ATOM     33  H   UNL     1      10.695  -8.032  -3.090  0.00  0.00    +0.000 HD
ENDBRANCH  20  23
ENDBRANCH  18  19
ENDBRANCH   4  18
TORSDOF 7
