REMARK  Name = 
REMARK  9 active torsions:
REMARK  status: ('A' for Active; 'I' for Inactive)
REMARK    1  A    between atoms: C_1  and  O_2
REMARK    2  A    between atoms: O_2  and  C_3
REMARK    3  A    between atoms: C_10  and  C_11
REMARK    4  A    between atoms: N_13  and  C_14
REMARK    5  A    between atoms: C_14  and  C_15
REMARK    6  A    between atoms: C_18  and  O_19
REMARK    7  A    between atoms: O_19  and  C_20
REMARK    8  A    between atoms: C_20  and  C_21
REMARK    9  A    between atoms: C_21  and  N_22
REMARK                            x       y       z     vdW  Elec       q    Type
REMARK                         _______ _______ _______ _____ _____    ______ ____
ROOT
ATOM      1  C   UNL     1       2.641   3.425  -0.196  0.00  0.00    +0.000 C 
ENDROOT
BRANCH   1   2
ATOM      2  C   UNL     1       1.422   3.192  -1.057  0.00  0.00    +0.000 A 
ATOM      3  C   UNL     1       1.207   1.942  -1.648  0.00  0.00    +0.000 A 
ATOM      4  C   UNL     1       0.029   1.678  -2.362  0.00  0.00    +0.000 A 
ATOM      5  C   UNL     1      -0.950   2.662  -2.518  0.00  0.00    +0.000 A 
ATOM      6  C   UNL     1      -0.699   3.938  -2.009  0.00  0.00    +0.000 A 
ATOM      7  C   UNL     1       0.473   4.201  -1.280  0.00  0.00    +0.000 A 
BRANCH   5   8
ATOM      8  O   UNL     1      -2.146   2.473  -3.171  0.00  0.00    +0.000 OA
BRANCH   8   9
ATOM      9  C   UNL     1      -2.671   1.137  -3.064  0.00  0.00    +0.000 C 
BRANCH   9  10
ATOM     10  C   UNL     1      -4.053   1.006  -3.745  0.00  0.00    +0.000 C 
BRANCH  10  11
ATOM     11  N   UNL     1      -4.591  -0.378  -3.713  0.00  0.00    +0.000 NA
ATOM     12  C   UNL     1      -4.871  -0.828  -2.339  0.00  0.00    +0.000 C 
ATOM     13  C   UNL     1      -5.379  -2.271  -2.303  0.00  0.00    +0.000 C 
ATOM     14  C   UNL     1      -6.615  -2.447  -3.172  0.00  0.00    +0.000 C 
ATOM     15  C   UNL     1      -6.345  -1.924  -4.577  0.00  0.00    +0.000 C 
ATOM     16  C   UNL     1      -5.803  -0.489  -4.547  0.00  0.00    +0.000 C 
ENDBRANCH  10  11
ENDBRANCH   9  10
ENDBRANCH   8   9
ENDBRANCH   5   8
ENDBRANCH   1   2
BRANCH   1  19
ATOM     17  C   UNL     1       4.970   4.210  -0.363  0.00  0.00    +0.000 C 
ATOM     18  O   UNL     1       5.165   4.019   0.837  0.00  0.00    +0.000 OA
ATOM     19  N   UNL     1       3.761   3.941  -0.942  0.00  0.00    +0.000 N 
ATOM     20  H   UNL     1       3.628   4.078  -1.934  0.00  0.00    +0.000 HD
BRANCH  17  28
ATOM     21  C   UNL     1       5.149   4.879  -3.730  0.00  0.00    +0.000 A 
ATOM     22  N   UNL     1       5.444   5.302  -4.975  0.00  0.00    +0.000 NA
ATOM     23  C   UNL     1       6.641   5.860  -5.176  0.00  0.00    +0.000 A 
ATOM     24  N   UNL     1       7.607   6.042  -4.279  0.00  0.00    +0.000 NA
ATOM     25  C   UNL     1       7.261   5.616  -3.048  0.00  0.00    +0.000 A 
ATOM     26  S   UNL     1       8.373   5.745  -1.771  0.00  0.00    +0.000 S 
ATOM     27  C   UNL     1       7.262   5.076  -0.672  0.00  0.00    +0.000 A 
ATOM     28  C   UNL     1       6.033   4.754  -1.235  0.00  0.00    +0.000 A 
ATOM     29  C   UNL     1       6.051   5.045  -2.664  0.00  0.00    +0.000 A 
BRANCH  21  31
ATOM     30  C   UNL     1       3.386   3.669  -4.685  0.00  0.00    +0.000 C 
ATOM     31  O   UNL     1       3.921   4.295  -3.524  0.00  0.00    +0.000 OA
ENDBRANCH  21  31
ENDBRANCH  17  28
ENDBRANCH   1  19
TORSDOF 8
