REMARK  Name = 
REMARK  7 active torsions:
REMARK  status: ('A' for Active; 'I' for Inactive)
REMARK    1  A    between atoms: C_2  and  C_19
REMARK    2  A    between atoms: N_3  and  C_4
REMARK    3  A    between atoms: C_4  and  C_5
REMARK    4  A    between atoms: C_8  and  C_9
REMARK    5  A    between atoms: C_9  and  C_10
REMARK    6  A    between atoms: C_10  and  C_11
REMARK    7  A    between atoms: C_11  and  N_12
REMARK                            x       y       z     vdW  Elec       q    Type
REMARK                         _______ _______ _______ _____ _____    ______ ____
ROOT
ATOM      1  C   UNL     1       2.165  -1.880  -1.557  0.00  0.00    +0.000 C 
ENDROOT
BRANCH   1   2
ATOM      2  C   UNL     1       3.106  -2.848  -2.213  0.00  0.00    +0.000 A 
ATOM      3  C   UNL     1       4.228  -2.415  -2.921  0.00  0.00    +0.000 A 
ATOM      4  C   UNL     1       5.046  -3.346  -3.560  0.00  0.00    +0.000 A 
ATOM      5  C   UNL     1       4.734  -4.698  -3.461  0.00  0.00    +0.000 A 
ATOM      6  N   UNL     1       3.676  -5.145  -2.742  0.00  0.00    +0.000 NA
ATOM      7  C   UNL     1       2.894  -4.219  -2.140  0.00  0.00    +0.000 A 
BRANCH   5   8
ATOM      8  C   UNL     1       5.576  -5.737  -4.159  0.00  0.00    +0.000 C 
BRANCH   8   9
ATOM      9  C   UNL     1       4.774  -6.593  -5.147  0.00  0.00    +0.000 C 
BRANCH   9  10
ATOM     10  C   UNL     1       4.175  -5.810  -6.325  0.00  0.00    +0.000 C 
BRANCH  10  11
ATOM     11  N   UNL     1       5.157  -5.072  -7.128  0.00  0.00    +0.000 NA
ATOM     12  C   UNL     1       6.140  -5.919  -7.818  0.00  0.00    +0.000 C 
ATOM     13  C   UNL     1       6.186  -5.379  -9.240  0.00  0.00    +0.000 C 
ATOM     14  N   UNL     1       4.835  -4.854  -9.441  0.00  0.00    +0.000 NA
ATOM     15  C   UNL     1       4.520  -4.251  -8.153  0.00  0.00    +0.000 C 
ATOM     16  H   UNL     1       4.201  -5.641  -9.560  0.00  0.00    +0.000 HD
ENDBRANCH  10  11
ENDBRANCH   9  10
ENDBRANCH   8   9
ENDBRANCH   5   8
ENDBRANCH   1   2
BRANCH   1  19
ATOM     17  O   UNL     1       0.891  -0.052   0.104  0.00  0.00    +0.000 OA
ATOM     18  C   UNL     1       1.868  -0.656   0.539  0.00  0.00    +0.000 C 
ATOM     19  N   UNL     1       2.604  -1.520  -0.234  0.00  0.00    +0.000 N 
ATOM     20  H   UNL     1       3.235  -2.169   0.222  0.00  0.00    +0.000 HD
BRANCH  18  21
ATOM     21  C   UNL     1       2.341  -0.469   1.913  0.00  0.00    +0.000 A 
ATOM     22  C   UNL     1       2.095   0.715   2.595  0.00  0.00    +0.000 A 
ATOM     23  S   UNL     1       2.734   0.728   4.180  0.00  0.00    +0.000 S 
ATOM     24  C   UNL     1       3.329  -0.862   4.015  0.00  0.00    +0.000 A 
ATOM     25  N   UNL     1       3.980  -1.484   5.032  0.00  0.00    +0.000 NA
ATOM     26  C   UNL     1       4.345  -2.695   4.769  0.00  0.00    +0.000 A 
ATOM     27  N   UNL     1       4.127  -3.339   3.577  0.00  0.00    +0.000 N 
ATOM     28  C   UNL     1       3.514  -2.736   2.512  0.00  0.00    +0.000 A 
ATOM     29  O   UNL     1       3.398  -3.321   1.436  0.00  0.00    +0.000 OA
ATOM     30  C   UNL     1       3.061  -1.382   2.761  0.00  0.00    +0.000 A 
ATOM     31  H   UNL     1       4.453  -4.281   3.425  0.00  0.00    +0.000 HD
ENDBRANCH  18  21
ENDBRANCH   1  19
TORSDOF 7
