REMARK  Name = 
REMARK  12 active torsions:
REMARK  status: ('A' for Active; 'I' for Inactive)
REMARK    1  A    between atoms: C_1  and  C_2
REMARK    2  A    between atoms: C_9  and  C_10
REMARK    3  A    between atoms: C_10  and  C_11
REMARK    4  A    between atoms: C_10  and  C_12
REMARK    5  A    between atoms: C_10  and  C_13
REMARK    6  A    between atoms: C_13  and  N_14
REMARK    7  A    between atoms: N_14  and  C_15
REMARK    8  A    between atoms: C_18  and  C_19
REMARK    9  A    between atoms: C_19  and  C_20
REMARK   10  A    between atoms: C_19  and  O_21
REMARK   11  A    between atoms: C_19  and  C_22
REMARK   12  A    between atoms: C_30  and  C_31
REMARK                            x       y       z     vdW  Elec       q    Type
REMARK                         _______ _______ _______ _____ _____    ______ ____
ROOT
ATOM      1  C   UNL     1       2.479   4.765  -4.959  0.00  0.00    +0.000 C 
ATOM      2  C   UNL     1       2.654   5.656  -3.712  0.00  0.00    +0.000 C 
ATOM      3  C   UNL     1       3.851   4.416  -5.567  0.00  0.00    +0.000 C 
ENDROOT
BRANCH   1  12
ATOM      4  C   UNL     1      -3.201   2.080  -2.450  0.00  0.00    +0.000 C 
ATOM      5  C   UNL     1      -3.548   1.583  -3.852  0.00  0.00    +0.000 C 
ATOM      6  C   UNL     1      -2.341   0.985  -4.605  0.00  0.00    +0.000 C 
ATOM      7  N   UNL     1      -1.463   2.037  -5.113  0.00  0.00    +0.000 N 
ATOM      8  C   UNL     1      -0.204   2.210  -4.608  0.00  0.00    +0.000 A 
ATOM      9  N   UNL     1       0.302   1.292  -3.768  0.00  0.00    +0.000 NA
ATOM     10  C   UNL     1       1.551   1.486  -3.317  0.00  0.00    +0.000 A 
ATOM     11  C   UNL     1       2.328   2.569  -3.661  0.00  0.00    +0.000 A 
ATOM     12  C   UNL     1       1.751   3.478  -4.528  0.00  0.00    +0.000 A 
ATOM     13  N   UNL     1       0.501   3.289  -4.989  0.00  0.00    +0.000 NA
ATOM     14  C   UNL     1      -2.126   3.117  -5.845  0.00  0.00    +0.000 C 
ATOM     15  C   UNL     1      -3.317   3.663  -5.030  0.00  0.00    +0.000 C 
ATOM     16  C   UNL     1      -4.125   4.646  -5.869  0.00  0.00    +0.000 C 
ATOM     17  O   UNL     1      -4.209   2.609  -4.622  0.00  0.00    +0.000 OA
ENDBRANCH   1  12
BRANCH   1  18
ATOM     18  C   UNL     1       1.608   5.519  -6.011  0.00  0.00    +0.000 C 
BRANCH  18  19
ATOM     19  N   UNL     1       2.184   6.803  -6.466  0.00  0.00    +0.000 N 
ATOM     20  H   UNL     1       3.153   6.717  -6.762  0.00  0.00    +0.000 HD
BRANCH  19  21
ATOM     21  C   UNL     1       1.439   7.495  -7.443  0.00  0.00    +0.000 A 
ATOM     22  C   UNL     1       2.086   8.368  -8.318  0.00  0.00    +0.000 A 
ATOM     23  C   UNL     1       1.362   9.081  -9.280  0.00  0.00    +0.000 A 
ATOM     24  C   UNL     1      -0.023   8.934  -9.337  0.00  0.00    +0.000 A 
ATOM     25  N   UNL     1      -0.689   8.135  -8.463  0.00  0.00    +0.000 NA
ATOM     26  C   UNL     1       0.046   7.477  -7.532  0.00  0.00    +0.000 A 
BRANCH  24  27
ATOM     27  C   UNL     1      -0.886   9.607 -10.402  0.00  0.00    +0.000 C 
ATOM     28  C   UNL     1      -0.463   9.123 -11.797  0.00  0.00    +0.000 C 
BRANCH  27  29
ATOM     29  C   UNL     1      -0.838  11.158 -10.306  0.00  0.00    +0.000 C 
ATOM     30  F   UNL     1      -0.018  11.607  -9.325  0.00  0.00    +0.000 F 
ATOM     31  F   UNL     1      -0.383  11.716 -11.458  0.00  0.00    +0.000 F 
ATOM     32  F   UNL     1      -2.056  11.701 -10.068  0.00  0.00    +0.000 F 
ENDBRANCH  27  29
BRANCH  27  33
ATOM     33  O   UNL     1      -2.249   9.103 -10.270  0.00  0.00    +0.000 OA
ATOM     34  H   UNL     1      -2.189   8.390  -9.597  0.00  0.00    +0.000 HD
ENDBRANCH  27  33
ENDBRANCH  24  27
ENDBRANCH  19  21
ENDBRANCH  18  19
ENDBRANCH   1  18
TORSDOF 7
