REMARK  Name = 
REMARK  4 active torsions:
REMARK  status: ('A' for Active; 'I' for Inactive)
REMARK    1  A    between atoms: C_2  and  C_4
REMARK    2  A    between atoms: C_7  and  N_8
REMARK    3  A    between atoms: N_8  and  C_9
REMARK    4  A    between atoms: C_9  and  C_10
REMARK                            x       y       z     vdW  Elec       q    Type
REMARK                         _______ _______ _______ _____ _____    ______ ____
ROOT
ATOM      1  C   UNL     1       2.960   1.476   0.499  0.00  0.00    +0.000 A 
ATOM      2  C   UNL     1       4.321   1.209   0.497  0.00  0.00    +0.000 A 
ATOM      3  C   UNL     1       5.140   1.967   1.332  0.00  0.00    +0.000 A 
ATOM      4  C   UNL     1       4.593   2.940   2.172  0.00  0.00    +0.000 A 
ATOM      5  C   UNL     1       3.213   3.134   2.079  0.00  0.00    +0.000 A 
ATOM      6  N   UNL     1       2.378   2.438   1.267  0.00  0.00    +0.000 NA
ENDROOT
BRANCH   1   8
ATOM      7  N   UNL     1       0.733   1.069  -0.362  0.00  0.00    +0.000 N 
ATOM      8  C   UNL     1       2.046   0.686  -0.386  0.00  0.00    +0.000 C 
ATOM      9  O   UNL     1       2.438  -0.237  -1.089  0.00  0.00    +0.000 OA
ATOM     10  H   UNL     1       0.061   0.585  -0.939  0.00  0.00    +0.000 HD
ATOM     11  H   UNL     1       0.449   1.840   0.232  0.00  0.00    +0.000 HD
ENDBRANCH   1   8
BRANCH   4  12
ATOM     12  N   UNL     1       5.458   3.652   3.005  0.00  0.00    +0.000 N 
ATOM     13  H   UNL     1       6.081   4.254   2.469  0.00  0.00    +0.000 HD
BRANCH  12  14
ATOM     14  C   UNL     1       4.918   4.332   4.176  0.00  0.00    +0.000 C 
BRANCH  14  15
ATOM     15  C   UNL     1       6.030   4.623   5.158  0.00  0.00    +0.000 A 
ATOM     16  C   UNL     1       6.239   5.921   5.642  0.00  0.00    +0.000 A 
ATOM     17  C   UNL     1       7.215   6.167   6.611  0.00  0.00    +0.000 A 
ATOM     18  C   UNL     1       7.992   5.121   7.105  0.00  0.00    +0.000 A 
ATOM     19  C   UNL     1       7.803   3.828   6.624  0.00  0.00    +0.000 A 
ATOM     20  C   UNL     1       6.828   3.580   5.657  0.00  0.00    +0.000 A 
ENDBRANCH  14  15
ENDBRANCH  12  14
ENDBRANCH   4  12
TORSDOF 4
