REMARK  Name = 
REMARK  5 active torsions:
REMARK  status: ('A' for Active; 'I' for Inactive)
REMARK    1  A    between atoms: C_1  and  C_2
REMARK    2  A    between atoms: N_5  and  C_6
REMARK    3  A    between atoms: C_6  and  C_7
REMARK    4  A    between atoms: C_12  and  C_13
REMARK    5  A    between atoms: C_17  and  C_18
REMARK                            x       y       z     vdW  Elec       q    Type
REMARK                         _______ _______ _______ _____ _____    ______ ____
ROOT
ATOM      1  C   UNL     1       5.490   4.845   0.104  0.00  0.00    +0.000 A 
ATOM      2  N   UNL     1       6.811   4.567   0.113  0.00  0.00    +0.000 NA
ATOM      3  C   UNL     1       7.653   5.618   0.136  0.00  0.00    +0.000 A 
ATOM      4  C   UNL     1       7.233   6.923   0.134  0.00  0.00    +0.000 A 
ATOM      5  F   UNL     1       8.131   7.918   0.158  0.00  0.00    +0.000 F 
ATOM      6  C   UNL     1       5.868   7.140   0.136  0.00  0.00    +0.000 A 
ATOM      7  N   UNL     1       4.982   6.103   0.142  0.00  0.00    +0.000 NA
ENDROOT
BRANCH   6   8
ATOM      8  C   UNL     1       5.275   8.491   0.172  0.00  0.00    +0.000 A 
ATOM      9  C   UNL     1       5.898   9.607  -0.396  0.00  0.00    +0.000 A 
ATOM     10  N   UNL     1       5.417  10.873  -0.349  0.00  0.00    +0.000 NA
ATOM     11  C   UNL     1       4.243  11.053   0.299  0.00  0.00    +0.000 A 
ATOM     12  C   UNL     1       3.520  10.026   0.889  0.00  0.00    +0.000 A 
ATOM     13  C   UNL     1       4.045   8.733   0.812  0.00  0.00    +0.000 A 
BRANCH  12  14
ATOM     14  C   UNL     1       2.255  10.370   1.581  0.00  0.00    +0.000 C 
ATOM     15  N   UNL     1       1.531   9.370   2.165  0.00  0.00    +0.000 N 
ATOM     16  O   UNL     1       1.858  11.529   1.639  0.00  0.00    +0.000 OA
ATOM     17  H   UNL     1       1.758   8.389   2.145  0.00  0.00    +0.000 HD
ATOM     18  H   UNL     1       0.670   9.643   2.623  0.00  0.00    +0.000 HD
ENDBRANCH  12  14
ENDBRANCH   6   8
BRANCH   1  19
ATOM     19  C   UNL     1       4.512   3.669   0.095  0.00  0.00    +0.000 C 
BRANCH  19  24
ATOM     20  C   UNL     1       1.622  -0.302  -0.610  0.00  0.00    +0.000 C 
ATOM     21  C   UNL     1       2.053   0.440   0.619  0.00  0.00    +0.000 A 
ATOM     22  N   UNL     1       2.845   1.539   0.456  0.00  0.00    +0.000 NA
ATOM     23  C   UNL     1       3.293   2.172   1.562  0.00  0.00    +0.000 A 
ATOM     24  N   UNL     1       4.154   3.273   1.462  0.00  0.00    +0.000 N 
ATOM     25  C   UNL     1       2.970   1.719   2.843  0.00  0.00    +0.000 A 
ATOM     26  C   UNL     1       2.152   0.602   3.000  0.00  0.00    +0.000 A 
ATOM     27  C   UNL     1       1.687  -0.042   1.869  0.00  0.00    +0.000 A 
ATOM     28  F   UNL     1       0.912  -1.128   1.992  0.00  0.00    +0.000 F 
ATOM     29  H   UNL     1       3.789   4.056   1.995  0.00  0.00    +0.000 HD
ENDBRANCH  19  24
ENDBRANCH   1  19
TORSDOF 4
