REMARK  Name = 
REMARK  8 active torsions:
REMARK  status: ('A' for Active; 'I' for Inactive)
REMARK    1  A    between atoms: C_1  and  O_2
REMARK    2  A    between atoms: O_2  and  C_3
REMARK    3  A    between atoms: N_10  and  C_11
REMARK    4  A    between atoms: C_11  and  C_12
REMARK    5  A    between atoms: C_15  and  C_16
REMARK    6  A    between atoms: C_16  and  N_17
REMARK    7  A    between atoms: C_18  and  C_20
REMARK    8  A    between atoms: N_26  and  C_27
REMARK                            x       y       z     vdW  Elec       q    Type
REMARK                         _______ _______ _______ _____ _____    ______ ____
ROOT
ATOM      1  C   UNL     1       4.031   3.802   1.800  0.00  0.00    +0.000 A 
ATOM      2  C   UNL     1       2.676   3.662   1.465  0.00  0.00    +0.000 A 
ATOM      3  C   UNL     1       1.901   4.788   1.156  0.00  0.00    +0.000 A 
ATOM      4  C   UNL     1       2.467   6.070   1.163  0.00  0.00    +0.000 A 
ATOM      5  C   UNL     1       3.815   6.208   1.515  0.00  0.00    +0.000 A 
ATOM      6  C   UNL     1       4.589   5.086   1.821  0.00  0.00    +0.000 A 
ENDROOT
BRANCH   1   7
ATOM      7  C   UNL     1       4.878   2.603   2.138  0.00  0.00    +0.000 C 
BRANCH   7  15
ATOM      8  C   UNL     1       7.452   1.143  -1.108  0.00  0.00    +0.000 A 
ATOM      9  C   UNL     1       7.732   0.275  -2.154  0.00  0.00    +0.000 A 
ATOM     10  C   UNL     1       7.204  -0.993  -1.837  0.00  0.00    +0.000 A 
ATOM     11  C   UNL     1       6.650  -0.891  -0.586  0.00  0.00    +0.000 A 
ATOM     12  N   UNL     1       6.742   0.422  -0.145  0.00  0.00    +0.000 N 
ATOM     13  C   UNL     1       6.204   0.860   1.083  0.00  0.00    +0.000 C 
ATOM     14  O   UNL     1       6.179   0.100   2.040  0.00  0.00    +0.000 OA
ATOM     15  N   UNL     1       5.617   2.101   1.004  0.00  0.00    +0.000 N 
ATOM     16  H   UNL     1       5.587   2.595   0.119  0.00  0.00    +0.000 HD
BRANCH   8  18
ATOM     17  C   UNL     1       8.655   3.006  -1.862  0.00  0.00    +0.000 C 
ATOM     18  O   UNL     1       7.788   2.421  -0.891  0.00  0.00    +0.000 OA
ENDBRANCH   8  18
ENDBRANCH   7  15
ENDBRANCH   1   7
BRANCH   4  19
ATOM     19  C   UNL     1       1.651   7.291   0.822  0.00  0.00    +0.000 C 
BRANCH  19  20
ATOM     20  N   UNL     1       1.078   7.910   1.989  0.00  0.00    +0.000 N 
ATOM     21  C   UNL     1       0.372   9.084   1.882  0.00  0.00    +0.000 C 
ATOM     22  O   UNL     1       0.248   9.662   0.808  0.00  0.00    +0.000 OA
ATOM     23  H   UNL     1       1.201   7.453   2.889  0.00  0.00    +0.000 HD
BRANCH  21  24
ATOM     24  C   UNL     1      -0.248   9.620   3.108  0.00  0.00    +0.000 A 
ATOM     25  C   UNL     1      -0.948  10.819   3.030  0.00  0.00    +0.000 A 
ATOM     26  S   UNL     1      -1.679  11.292   4.492  0.00  0.00    +0.000 S 
ATOM     27  C   UNL     1      -1.142   9.879   5.270  0.00  0.00    +0.000 A 
ATOM     28  N   UNL     1      -1.537   9.606   6.539  0.00  0.00    +0.000 NA
ATOM     29  C   UNL     1      -1.023   8.532   7.039  0.00  0.00    +0.000 A 
ATOM     30  N   UNL     1      -0.108   7.715   6.409  0.00  0.00    +0.000 N 
ATOM     31  C   UNL     1       0.489   6.615   7.138  0.00  0.00    +0.000 C 
ATOM     32  C   UNL     1       0.290   7.945   5.092  0.00  0.00    +0.000 A 
ATOM     33  O   UNL     1       1.098   7.230   4.505  0.00  0.00    +0.000 OA
ATOM     34  C   UNL     1      -0.316   9.115   4.467  0.00  0.00    +0.000 A 
ENDBRANCH  21  24
ENDBRANCH  19  20
ENDBRANCH   4  19
TORSDOF 6
