REMARK  Name = 
REMARK  6 active torsions:
REMARK  status: ('A' for Active; 'I' for Inactive)
REMARK    1  A    between atoms: C_2  and  C_20
REMARK    2  A    between atoms: N_3  and  C_4
REMARK    3  A    between atoms: C_4  and  C_5
REMARK    4  A    between atoms: C_8  and  C_9
REMARK    5  A    between atoms: C_9  and  C_10
REMARK    6  A    between atoms: C_10  and  C_11
REMARK                            x       y       z     vdW  Elec       q    Type
REMARK                         _______ _______ _______ _____ _____    ______ ____
ROOT
ATOM      1  C   UNL     1       2.287   2.379  -0.689  0.00  0.00    +0.000 C 
ENDROOT
BRANCH   1   2
ATOM      2  C   UNL     1       3.226   3.516  -1.007  0.00  0.00    +0.000 A 
ATOM      3  C   UNL     1       2.744   4.832  -0.961  0.00  0.00    +0.000 A 
ATOM      4  C   UNL     1       3.584   5.923  -1.209  0.00  0.00    +0.000 A 
ATOM      5  C   UNL     1       4.938   5.728  -1.504  0.00  0.00    +0.000 A 
ATOM      6  C   UNL     1       5.416   4.411  -1.575  0.00  0.00    +0.000 A 
ATOM      7  C   UNL     1       4.570   3.317  -1.344  0.00  0.00    +0.000 A 
BRANCH   5   8
ATOM      8  C   UNL     1       5.876   6.875  -1.818  0.00  0.00    +0.000 C 
BRANCH   8   9
ATOM      9  C   UNL     1       6.036   7.901  -0.697  0.00  0.00    +0.000 C 
BRANCH   9  10
ATOM     10  C   UNL     1       6.992   9.016  -1.084  0.00  0.00    +0.000 C 
ATOM     11  O   UNL     1       7.597   9.036  -2.152  0.00  0.00    +0.000 OA
ATOM     12  N   UNL     1       7.114  10.040  -0.159  0.00  0.00    +0.000 N 
ATOM     13  C   UNL     1       6.496  10.143   1.149  0.00  0.00    +0.000 C 
ATOM     14  C   UNL     1       6.411  11.641   1.376  0.00  0.00    +0.000 C 
ATOM     15  C   UNL     1       7.676  12.172   0.705  0.00  0.00    +0.000 C 
ATOM     16  C   UNL     1       7.974  11.178  -0.414  0.00  0.00    +0.000 C 
ENDBRANCH   9  10
ENDBRANCH   8   9
ENDBRANCH   5   8
ENDBRANCH   1   2
BRANCH   1  19
ATOM     17  O   UNL     1      -0.201   3.282  -1.710  0.00  0.00    +0.000 OA
ATOM     18  C   UNL     1       0.409   2.377  -2.290  0.00  0.00    +0.000 C 
ATOM     19  N   UNL     1       1.590   1.867  -1.838  0.00  0.00    +0.000 N 
ATOM     20  H   UNL     1       2.122   1.244  -2.438  0.00  0.00    +0.000 HD
BRANCH  18  21
ATOM     21  C   UNL     1      -0.128   1.740  -3.488  0.00  0.00    +0.000 A 
ATOM     22  C   UNL     1      -1.489   1.660  -3.742  0.00  0.00    +0.000 A 
ATOM     23  S   UNL     1      -1.845   0.865  -5.217  0.00  0.00    +0.000 S 
ATOM     24  C   UNL     1      -0.193   0.637  -5.560  0.00  0.00    +0.000 A 
ATOM     25  N   UNL     1       0.216   0.023  -6.702  0.00  0.00    +0.000 NA
ATOM     26  C   UNL     1       1.500  -0.058  -6.829  0.00  0.00    +0.000 A 
ATOM     27  N   UNL     1       2.412   0.412  -5.931  0.00  0.00    +0.000 N 
ATOM     28  C   UNL     1       2.055   0.977  -4.741  0.00  0.00    +0.000 A 
ATOM     29  O   UNL     1       2.903   1.243  -3.889  0.00  0.00    +0.000 OA
ATOM     30  C   UNL     1       0.617   1.133  -4.558  0.00  0.00    +0.000 A 
ATOM     31  H   UNL     1       3.403   0.280  -6.061  0.00  0.00    +0.000 HD
ENDBRANCH  18  21
ENDBRANCH   1  19
TORSDOF 6
