REMARK  Name = 
REMARK  9 active torsions:
REMARK  status: ('A' for Active; 'I' for Inactive)
REMARK    1  A    between atoms: C_1  and  C_2
REMARK    2  A    between atoms: C_2  and  N_3
REMARK    3  A    between atoms: C_2  and  C_17
REMARK    4  A    between atoms: C_4  and  C_6
REMARK    5  A    between atoms: N_12  and  C_13
REMARK    6  A    between atoms: C_20  and  O_21
REMARK    7  A    between atoms: O_21  and  C_22
REMARK    8  A    between atoms: C_22  and  C_23
REMARK    9  A    between atoms: C_27  and  C_28
REMARK                            x       y       z     vdW  Elec       q    Type
REMARK                         _______ _______ _______ _____ _____    ______ ____
ROOT
ATOM      1  C   UNL     1       0.872  -0.067   0.034  0.00  0.00    +0.000 C 
ATOM      2  C   UNL     1       2.401  -0.037   0.042  0.00  0.00    +0.000 C 
ENDROOT
BRANCH   2   3
ATOM      3  C   UNL     1       2.943  -1.163   0.919  0.00  0.00    +0.000 A 
ATOM      4  C   UNL     1       2.598  -1.261   2.273  0.00  0.00    +0.000 A 
ATOM      5  C   UNL     1       3.164  -2.265   3.057  0.00  0.00    +0.000 A 
ATOM      6  C   UNL     1       4.073  -3.142   2.483  0.00  0.00    +0.000 A 
ATOM      7  C   UNL     1       4.314  -3.014   1.121  0.00  0.00    +0.000 A 
ATOM      8  N   UNL     1       3.789  -2.045   0.336  0.00  0.00    +0.000 NA
BRANCH   6   9
ATOM      9  O   UNL     1       4.669  -4.045   3.318  0.00  0.00    +0.000 OA
BRANCH   9  10
ATOM     10  C   UNL     1       5.939  -4.513   2.849  0.00  0.00    +0.000 C 
BRANCH  10  11
ATOM     11  C   UNL     1       6.785  -5.032   3.984  0.00  0.00    +0.000 A 
ATOM     12  C   UNL     1       8.179  -4.881   3.928  0.00  0.00    +0.000 A 
ATOM     13  C   UNL     1       8.994  -5.394   4.935  0.00  0.00    +0.000 A 
ATOM     14  C   UNL     1       8.425  -6.073   6.009  0.00  0.00    +0.000 A 
ATOM     15  C   UNL     1       7.038  -6.239   6.076  0.00  0.00    +0.000 A 
ATOM     16  C   UNL     1       6.220  -5.725   5.063  0.00  0.00    +0.000 A 
BRANCH  15  17
ATOM     17  C   UNL     1       6.454  -6.936   7.177  0.00  0.00    +0.000 C 
ATOM     18  N   UNL     1       5.986  -7.504   8.079  0.00  0.00    +0.000 NA
ENDBRANCH  15  17
ENDBRANCH  10  11
ENDBRANCH   9  10
ENDBRANCH   6   9
ENDBRANCH   2   3
BRANCH   2  19
ATOM     19  N   UNL     1       2.924   1.249   0.478  0.00  0.00    +0.000 N 
ATOM     20  C   UNL     1       2.686   2.429  -0.173  0.00  0.00    +0.000 C 
ATOM     21  O   UNL     1       2.102   2.489  -1.250  0.00  0.00    +0.000 OA
ATOM     22  H   UNL     1       3.352   1.271   1.395  0.00  0.00    +0.000 HD
BRANCH  20  23
ATOM     23  C   UNL     1       3.196   3.636   0.487  0.00  0.00    +0.000 A 
ATOM     24  C   UNL     1       3.500   4.767  -0.257  0.00  0.00    +0.000 A 
ATOM     25  S   UNL     1       4.090   6.061   0.687  0.00  0.00    +0.000 S 
ATOM     26  C   UNL     1       3.921   5.165   2.125  0.00  0.00    +0.000 A 
ATOM     27  N   UNL     1       4.243   5.701   3.330  0.00  0.00    +0.000 NA
ATOM     28  C   UNL     1       4.044   4.915   4.338  0.00  0.00    +0.000 A 
ATOM     29  N   UNL     1       3.550   3.631   4.265  0.00  0.00    +0.000 N 
ATOM     30  C   UNL     1       3.381   2.823   5.454  0.00  0.00    +0.000 C 
ATOM     31  C   UNL     1       3.218   3.050   3.048  0.00  0.00    +0.000 A 
ATOM     32  O   UNL     1       2.802   1.898   2.962  0.00  0.00    +0.000 OA
ATOM     33  C   UNL     1       3.431   3.897   1.888  0.00  0.00    +0.000 A 
ENDBRANCH  20  23
ENDBRANCH   2  19
TORSDOF 7
