REMARK  Name = 
REMARK  9 active torsions:
REMARK  status: ('A' for Active; 'I' for Inactive)
REMARK    1  A    between atoms: C_1  and  C_2
REMARK    2  A    between atoms: C_2  and  C_3
REMARK    3  A    between atoms: C_2  and  O_4
REMARK    4  A    between atoms: O_4  and  C_5
REMARK    5  A    between atoms: C_7  and  C_8
REMARK    6  A    between atoms: C_8  and  N_9
REMARK    7  A    between atoms: C_13  and  O_14
REMARK    8  A    between atoms: C_15  and  C_16
REMARK    9  A    between atoms: C_24  and  N_25
REMARK                            x       y       z     vdW  Elec       q    Type
REMARK                         _______ _______ _______ _____ _____    ______ ____
ROOT
ATOM      1  N   UNL     1       6.453  -4.495   1.177  0.00  0.00    +0.000 N 
ATOM      2  C   UNL     1       7.217  -4.872   0.103  0.00  0.00    +0.000 A 
ATOM      3  N   UNL     1       6.752  -5.963  -0.476  0.00  0.00    +0.000 NA
ATOM      4  C   UNL     1       5.653  -6.310   0.275  0.00  0.00    +0.000 A 
ATOM      5  C   UNL     1       4.778  -7.402   0.165  0.00  0.00    +0.000 A 
ATOM      6  C   UNL     1       3.751  -7.508   1.110  0.00  0.00    +0.000 A 
ATOM      7  C   UNL     1       3.660  -6.517   2.095  0.00  0.00    +0.000 A 
ATOM      8  N   UNL     1       4.484  -5.442   2.246  0.00  0.00    +0.000 NA
ATOM      9  C   UNL     1       5.445  -5.409   1.307  0.00  0.00    +0.000 A 
ENDROOT
BRANCH   6  10
ATOM     10  C   UNL     1       2.752  -8.603   1.160  0.00  0.00    +0.000 C 
ATOM     11  N   UNL     1       2.846  -9.592   0.227  0.00  0.00    +0.000 N 
ATOM     12  O   UNL     1       1.874  -8.629   2.014  0.00  0.00    +0.000 OA
ATOM     13  H   UNL     1       3.572  -9.580  -0.485  0.00  0.00    +0.000 HD
ATOM     14  H   UNL     1       2.182 -10.352   0.248  0.00  0.00    +0.000 HD
ENDBRANCH   6  10
BRANCH   5  15
ATOM     15  O   UNL     1       4.970  -8.322  -0.838  0.00  0.00    +0.000 OA
ATOM     16  H   UNL     1       5.753  -7.998  -1.334  0.00  0.00    +0.000 HD
ENDBRANCH   5  15
BRANCH   1  17
ATOM     17  C   UNL     1       6.769  -3.458   2.138  0.00  0.00    +0.000 C 
BRANCH  17  20
ATOM     18  C   UNL     1       4.535  -0.441   1.350  0.00  0.00    +0.000 A 
ATOM     19  C   UNL     1       4.921  -1.766   1.604  0.00  0.00    +0.000 A 
ATOM     20  C   UNL     1       6.276  -2.095   1.739  0.00  0.00    +0.000 A 
ATOM     21  C   UNL     1       7.190  -1.058   1.597  0.00  0.00    +0.000 A 
ATOM     22  N   UNL     1       6.852   0.233   1.390  0.00  0.00    +0.000 NA
ATOM     23  C   UNL     1       5.542   0.530   1.312  0.00  0.00    +0.000 A 
BRANCH  23  24
ATOM     24  N   UNL     1       5.281   1.899   1.265  0.00  0.00    +0.000 N 
ATOM     25  H   UNL     1       6.186   2.361   1.316  0.00  0.00    +0.000 HD
ATOM     26  H   UNL     1       4.696   2.151   2.055  0.00  0.00    +0.000 HD
ENDBRANCH  23  24
BRANCH  18  27
ATOM     27  O   UNL     1       3.184  -0.214   1.273  0.00  0.00    +0.000 OA
BRANCH  27  29
ATOM     28  C   UNL     1       1.769   0.064  -0.651  0.00  0.00    +0.000 C 
ATOM     29  C   UNL     1       2.731   0.758   0.311  0.00  0.00    +0.000 C 
ATOM     30  C   UNL     1       1.988   1.876   1.044  0.00  0.00    +0.000 C 
ENDBRANCH  27  29
ENDBRANCH  18  27
ENDBRANCH  17  20
ENDBRANCH   1  17
TORSDOF 7
