REMARK  Name = 
REMARK  9 active torsions:
REMARK  status: ('A' for Active; 'I' for Inactive)
REMARK    1  A    between atoms: C_1  and  C_2
REMARK    2  A    between atoms: C_2  and  C_3
REMARK    3  A    between atoms: C_2  and  N_4
REMARK    4  A    between atoms: C_2  and  C_5
REMARK    5  A    between atoms: C_5  and  C_6
REMARK    6  A    between atoms: C_9  and  O_10
REMARK    7  A    between atoms: O_10  and  C_11
REMARK    8  A    between atoms: C_11  and  C_12
REMARK    9  A    between atoms: C_14  and  C_15
REMARK                            x       y       z     vdW  Elec       q    Type
REMARK                         _______ _______ _______ _____ _____    ______ ____
ROOT
ATOM      1  C   UNL     1       4.536   1.193  -0.522  0.00  0.00    +0.000 A 
ATOM      2  C   UNL     1       5.206   2.382  -0.841  0.00  0.00    +0.000 A 
ATOM      3  C   UNL     1       6.595   2.457  -0.732  0.00  0.00    +0.000 A 
ATOM      4  C   UNL     1       7.322   1.350  -0.294  0.00  0.00    +0.000 A 
ATOM      5  C   UNL     1       6.667   0.143  -0.051  0.00  0.00    +0.000 A 
ATOM      6  C   UNL     1       5.282   0.071  -0.146  0.00  0.00    +0.000 A 
ENDROOT
BRANCH   1   7
ATOM      7  C   UNL     1       3.030   1.105  -0.552  0.00  0.00    +0.000 C 
BRANCH   7   9
ATOM      8  C   UNL     1       2.838  -0.772  -2.290  0.00  0.00    +0.000 C 
ATOM      9  C   UNL     1       2.389   0.640  -1.886  0.00  0.00    +0.000 C 
ATOM     10  C   UNL     1       2.691   1.620  -3.029  0.00  0.00    +0.000 C 
BRANCH   9  11
ATOM     11  N   UNL     1       0.928   0.577  -1.679  0.00  0.00    +0.000 NA
ATOM     12  H   UNL     1       0.447   0.587  -2.577  0.00  0.00    +0.000 HD
ATOM     13  H   UNL     1       0.605   1.401  -1.173  0.00  0.00    +0.000 HD
ENDBRANCH   9  11
ENDBRANCH   7   9
ENDBRANCH   1   7
BRANCH   4  14
ATOM     14  O   UNL     1       8.665   1.543  -0.116  0.00  0.00    +0.000 OA
BRANCH  14  15
ATOM     15  C   UNL     1       9.266   0.647   0.829  0.00  0.00    +0.000 C 
BRANCH  15  16
ATOM     16  C   UNL     1      10.562   1.210   1.355  0.00  0.00    +0.000 A 
ATOM     17  C   UNL     1      11.383   1.969   0.544  0.00  0.00    +0.000 A 
ATOM     18  C   UNL     1      12.540   2.422   1.131  0.00  0.00    +0.000 A 
ATOM     19  N   UNL     1      12.912   2.157   2.408  0.00  0.00    +0.000 NA
ATOM     20  C   UNL     1      12.052   1.399   3.094  0.00  0.00    +0.000 A 
ATOM     21  N   UNL     1      10.894   0.905   2.631  0.00  0.00    +0.000 NA
BRANCH  18  22
ATOM     22  C   UNL     1      13.466   3.272   0.323  0.00  0.00    +0.000 C 
ATOM     23  N   UNL     1      14.588   3.701   0.973  0.00  0.00    +0.000 N 
ATOM     24  O   UNL     1      13.240   3.572  -0.842  0.00  0.00    +0.000 OA
ATOM     25  H   UNL     1      14.741   3.446   1.942  0.00  0.00    +0.000 HD
ATOM     26  H   UNL     1      15.243   4.293   0.485  0.00  0.00    +0.000 HD
ENDBRANCH  18  22
ENDBRANCH  15  16
ENDBRANCH  14  15
ENDBRANCH   4  14
TORSDOF 7
