REMARK  Name = 
REMARK  4 active torsions:
REMARK  status: ('A' for Active; 'I' for Inactive)
REMARK    1  A    between atoms: C_2  and  C_4
REMARK    2  A    between atoms: N_8  and  C_9
REMARK    3  A    between atoms: C_9  and  C_10
REMARK    4  A    between atoms: C_14  and  N_15
REMARK                            x       y       z     vdW  Elec       q    Type
REMARK                         _______ _______ _______ _____ _____    ______ ____
ROOT
ATOM      1  C   UNL     1       3.674  -0.784  -0.957  0.00  0.00    +0.000 A 
ATOM      2  C   UNL     1       2.910  -1.942  -1.056  0.00  0.00    +0.000 A 
ATOM      3  C   UNL     1       3.556  -3.167  -1.227  0.00  0.00    +0.000 A 
ATOM      4  C   UNL     1       4.945  -3.215  -1.307  0.00  0.00    +0.000 A 
ATOM      5  N   UNL     1       5.651  -4.399  -1.355  0.00  0.00    +0.000 N 
ATOM      6  N   UNL     1       5.689  -2.093  -1.252  0.00  0.00    +0.000 NA
ATOM      7  C   UNL     1       5.048  -0.909  -1.087  0.00  0.00    +0.000 A 
ATOM      8  H   UNL     1       6.636  -4.205  -1.533  0.00  0.00    +0.000 HD
ENDROOT
BRANCH   1  10
ATOM      9  N   UNL     1       1.895   0.586  -0.039  0.00  0.00    +0.000 N 
ATOM     10  C   UNL     1       3.082   0.548  -0.713  0.00  0.00    +0.000 C 
ATOM     11  O   UNL     1       3.652   1.572  -1.063  0.00  0.00    +0.000 OA
ATOM     12  H   UNL     1       1.561   1.506   0.227  0.00  0.00    +0.000 HD
ATOM     13  H   UNL     1       1.545  -0.202   0.489  0.00  0.00    +0.000 HD
ENDBRANCH   1  10
BRANCH   5  14
ATOM     14  C   UNL     1       5.131  -5.516  -2.135  0.00  0.00    +0.000 C 
BRANCH  14  15
ATOM     15  C   UNL     1       6.097  -6.691  -2.194  0.00  0.00    +0.000 A 
ATOM     16  N   UNL     1       7.421  -6.438  -2.243  0.00  0.00    +0.000 NA
ATOM     17  C   UNL     1       8.220  -7.516  -2.300  0.00  0.00    +0.000 A 
ATOM     18  C   UNL     1       7.747  -8.806  -2.347  0.00  0.00    +0.000 A 
ATOM     19  C   UNL     1       6.376  -8.977  -2.308  0.00  0.00    +0.000 A 
ATOM     20  N   UNL     1       5.548  -7.923  -2.235  0.00  0.00    +0.000 NA
BRANCH  19  21
ATOM     21  N   UNL     1       5.859 -10.276  -2.245  0.00  0.00    +0.000 N 
ATOM     22  C   UNL     1       4.524 -10.375  -1.649  0.00  0.00    +0.000 C 
ATOM     23  C   UNL     1       4.328 -11.825  -1.202  0.00  0.00    +0.000 C 
ATOM     24  C   UNL     1       4.517 -12.795  -2.369  0.00  0.00    +0.000 C 
ATOM     25  C   UNL     1       5.821 -12.534  -3.128  0.00  0.00    +0.000 C 
ATOM     26  C   UNL     1       5.994 -11.054  -3.481  0.00  0.00    +0.000 C 
ENDBRANCH  19  21
ENDBRANCH  14  15
ENDBRANCH   5  14
TORSDOF 4
