REMARK  Name = 
REMARK  5 active torsions:
REMARK  status: ('A' for Active; 'I' for Inactive)
REMARK    1  A    between atoms: C_2  and  C_4
REMARK    2  A    between atoms: N_8  and  C_9
REMARK    3  A    between atoms: C_9  and  C_10
REMARK    4  A    between atoms: C_10  and  C_11
REMARK    5  A    between atoms: C_15  and  C_16
REMARK                            x       y       z     vdW  Elec       q    Type
REMARK                         _______ _______ _______ _____ _____    ______ ____
ROOT
ATOM      1  C   UNL     1       4.990  -3.995  -4.391  0.00  0.00    +0.000 C 
ENDROOT
BRANCH   1   6
ATOM      2  C   UNL     1       3.133  -0.996  -0.741  0.00  0.00    +0.000 A 
ATOM      3  C   UNL     1       2.484  -1.575  -1.826  0.00  0.00    +0.000 A 
ATOM      4  C   UNL     1       3.166  -2.513  -2.602  0.00  0.00    +0.000 A 
ATOM      5  C   UNL     1       4.484  -2.838  -2.295  0.00  0.00    +0.000 A 
ATOM      6  N   UNL     1       5.193  -3.831  -2.955  0.00  0.00    +0.000 N 
ATOM      7  N   UNL     1       5.135  -2.252  -1.270  0.00  0.00    +0.000 NA
ATOM      8  C   UNL     1       4.456  -1.342  -0.521  0.00  0.00    +0.000 A 
ATOM      9  H   UNL     1       6.160  -3.746  -2.648  0.00  0.00    +0.000 HD
BRANCH   2  11
ATOM     10  N   UNL     1       1.110  -0.176   0.317  0.00  0.00    +0.000 N 
ATOM     11  C   UNL     1       2.467  -0.050   0.178  0.00  0.00    +0.000 C 
ATOM     12  O   UNL     1       3.098   0.775   0.820  0.00  0.00    +0.000 OA
ATOM     13  H   UNL     1       0.677   0.393   1.035  0.00  0.00    +0.000 HD
ATOM     14  H   UNL     1       0.606  -0.995   0.009  0.00  0.00    +0.000 HD
ENDBRANCH   2  11
ENDBRANCH   1   6
BRANCH   1  15
ATOM     15  C   UNL     1       5.919  -5.079  -4.943  0.00  0.00    +0.000 C 
BRANCH  15  16
ATOM     16  C   UNL     1       5.638  -5.393  -6.395  0.00  0.00    +0.000 A 
ATOM     17  C   UNL     1       5.871  -6.675  -6.881  0.00  0.00    +0.000 A 
ATOM     18  C   UNL     1       5.630  -6.935  -8.223  0.00  0.00    +0.000 A 
ATOM     19  C   UNL     1       5.173  -5.911  -9.045  0.00  0.00    +0.000 A 
ATOM     20  C   UNL     1       4.968  -4.641  -8.508  0.00  0.00    +0.000 A 
ATOM     21  N   UNL     1       5.210  -4.383  -7.195  0.00  0.00    +0.000 NA
BRANCH  20  22
ATOM     22  C   UNL     1       4.512  -3.498  -9.319  0.00  0.00    +0.000 A 
ATOM     23  C   UNL     1       4.870  -2.184  -8.996  0.00  0.00    +0.000 A 
ATOM     24  N   UNL     1       4.538  -1.079  -9.719  0.00  0.00    +0.000 NA
ATOM     25  C   UNL     1       3.796  -1.288 -10.828  0.00  0.00    +0.000 A 
ATOM     26  C   UNL     1       3.365  -2.538 -11.224  0.00  0.00    +0.000 A 
ATOM     27  F   UNL     1       2.624  -2.688 -12.329  0.00  0.00    +0.000 F 
ATOM     28  C   UNL     1       3.716  -3.648 -10.466  0.00  0.00    +0.000 A 
ENDBRANCH  20  22
ENDBRANCH  15  16
ENDBRANCH   1  15
TORSDOF 5
