REMARK  Name = 
REMARK  5 active torsions:
REMARK  status: ('A' for Active; 'I' for Inactive)
REMARK    1  A    between atoms: C_1  and  C_2
REMARK    2  A    between atoms: C_6  and  C_7
REMARK    3  A    between atoms: C_7  and  C_8
REMARK    4  A    between atoms: C_7  and  N_9
REMARK    5  A    between atoms: C_13  and  C_14
REMARK                            x       y       z     vdW  Elec       q    Type
REMARK                         _______ _______ _______ _____ _____    ______ ____
ROOT
ATOM      1  N   UNL     1      -3.362  -2.115   0.245  0.00  0.00    +0.000 N 
ATOM      2  C   UNL     1      -3.995  -1.535  -0.859  0.00  0.00    +0.000 A 
ATOM      3  C   UNL     1      -5.175  -0.797  -0.685  0.00  0.00    +0.000 A 
ATOM      4  N   UNL     1      -5.865  -0.198  -1.691  0.00  0.00    +0.000 NA
ATOM      5  C   UNL     1      -5.335  -0.403  -2.928  0.00  0.00    +0.000 A 
ATOM      6  C   UNL     1      -4.195  -1.161  -3.128  0.00  0.00    +0.000 A 
ATOM      7  N   UNL     1      -3.512  -1.738  -2.104  0.00  0.00    +0.000 NA
ATOM      8  H   UNL     1      -3.492  -1.570   1.090  0.00  0.00    +0.000 HD
ENDROOT
BRANCH   5   9
ATOM      9  C   UNL     1      -6.025   0.218  -4.093  0.00  0.00    +0.000 C 
ATOM     10  N   UNL     1      -7.155   0.935  -3.801  0.00  0.00    +0.000 N 
ATOM     11  O   UNL     1      -5.613   0.102  -5.236  0.00  0.00    +0.000 OA
ATOM     12  H   UNL     1      -7.473   1.011  -2.841  0.00  0.00    +0.000 HD
ATOM     13  H   UNL     1      -7.672   1.377  -4.544  0.00  0.00    +0.000 HD
ENDBRANCH   5   9
BRANCH   1  14
ATOM     14  C   UNL     1      -1.946  -2.478   0.077  0.00  0.00    +0.000 C 
ATOM     15  C   UNL     1      -1.099  -1.212  -0.142  0.00  0.00    +0.000 C 
BRANCH  14  21
ATOM     16  C   UNL     1      -2.043  -6.798   2.674  0.00  0.00    +0.000 C 
ATOM     17  C   UNL     1      -1.619  -5.361   2.587  0.00  0.00    +0.000 A 
ATOM     18  C   UNL     1      -1.038  -4.721   3.686  0.00  0.00    +0.000 A 
ATOM     19  C   UNL     1      -0.705  -3.371   3.615  0.00  0.00    +0.000 A 
ATOM     20  C   UNL     1      -0.965  -2.643   2.453  0.00  0.00    +0.000 A 
ATOM     21  C   UNL     1      -1.544  -3.257   1.330  0.00  0.00    +0.000 A 
ATOM     22  C   UNL     1      -1.849  -4.630   1.411  0.00  0.00    +0.000 A 
ENDBRANCH  14  21
ENDBRANCH   1  14
TORSDOF 3
