REMARK  Name = 
REMARK  4 active torsions:
REMARK  status: ('A' for Active; 'I' for Inactive)
REMARK    1  A    between atoms: C_1  and  C_2
REMARK    2  A    between atoms: C_2  and  N_3
REMARK    3  A    between atoms: C_2  and  C_10
REMARK    4  A    between atoms: N_3  and  C_4
REMARK                            x       y       z     vdW  Elec       q    Type
REMARK                         _______ _______ _______ _____ _____    ______ ____
ROOT
ATOM      1  C   UNL     1       0.961   0.055  -0.277  0.00  0.00    +0.000 C 
ATOM      2  C   UNL     1       2.476   0.012  -0.067  0.00  0.00    +0.000 C 
ENDROOT
BRANCH   2   3
ATOM      3  C   UNL     1       3.062  -0.889  -1.163  0.00  0.00    +0.000 A 
ATOM      4  C   UNL     1       3.519  -0.312  -2.349  0.00  0.00    +0.000 A 
ATOM      5  C   UNL     1       3.883  -1.138  -3.408  0.00  0.00    +0.000 A 
ATOM      6  C   UNL     1       3.786  -2.516  -3.260  0.00  0.00    +0.000 A 
ATOM      7  C   UNL     1       3.351  -3.013  -2.044  0.00  0.00    +0.000 A 
ATOM      8  N   UNL     1       2.998  -2.239  -0.994  0.00  0.00    +0.000 NA
ENDBRANCH   2   3
BRANCH   2   9
ATOM      9  N   UNL     1       2.796  -0.505   1.271  0.00  0.00    +0.000 N 
ATOM     10  H   UNL     1       3.438  -1.295   1.219  0.00  0.00    +0.000 HD
BRANCH   9  11
ATOM     11  C   UNL     1       2.983   0.349   2.356  0.00  0.00    +0.000 A 
ATOM     12  C   UNL     1       2.314   1.567   2.497  0.00  0.00    +0.000 A 
ATOM     13  C   UNL     1       2.499   2.324   3.648  0.00  0.00    +0.000 A 
ATOM     14  N   UNL     1       3.299   1.956   4.667  0.00  0.00    +0.000 NA
ATOM     15  C   UNL     1       3.921   0.769   4.532  0.00  0.00    +0.000 A 
ATOM     16  C   UNL     1       3.783  -0.060   3.425  0.00  0.00    +0.000 A 
ENDBRANCH   9  11
ENDBRANCH   2   9
TORSDOF 3
