REMARK  Name = 
REMARK  5 active torsions:
REMARK  status: ('A' for Active; 'I' for Inactive)
REMARK    1  A    between atoms: C_2  and  C_4
REMARK    2  A    between atoms: C_7  and  C_8
REMARK    3  A    between atoms: C_12  and  C_13
REMARK    4  A    between atoms: C_13  and  C_14
REMARK    5  A    between atoms: C_14  and  C_15
REMARK                            x       y       z     vdW  Elec       q    Type
REMARK                         _______ _______ _______ _____ _____    ______ ____
ROOT
ATOM      1  C   UNL     1       4.786  -4.653   2.136  0.00  0.00    +0.000 A 
ATOM      2  N   UNL     1       4.822  -4.883   3.461  0.00  0.00    +0.000 NA
ATOM      3  C   UNL     1       5.481  -5.988   3.852  0.00  0.00    +0.000 A 
ATOM      4  C   UNL     1       6.115  -6.845   2.983  0.00  0.00    +0.000 A 
ATOM      5  C   UNL     1       6.056  -6.527   1.639  0.00  0.00    +0.000 A 
ATOM      6  N   UNL     1       5.356  -5.453   1.219  0.00  0.00    +0.000 NA
ENDROOT
BRANCH   1  10
ATOM      7  C   UNL     1       3.046  -1.114   0.591  0.00  0.00    +0.000 A 
ATOM      8  C   UNL     1       4.074  -1.789  -0.044  0.00  0.00    +0.000 A 
ATOM      9  N   UNL     1       4.637  -2.919   0.448  0.00  0.00    +0.000 NA
ATOM     10  C   UNL     1       4.149  -3.423   1.629  0.00  0.00    +0.000 A 
ATOM     11  C   UNL     1       3.100  -2.803   2.298  0.00  0.00    +0.000 A 
ATOM     12  F   UNL     1       2.579  -3.304   3.429  0.00  0.00    +0.000 F 
ATOM     13  C   UNL     1       2.539  -1.642   1.777  0.00  0.00    +0.000 A 
BRANCH   7  15
ATOM     14  N   UNL     1       1.959   1.039   0.832  0.00  0.00    +0.000 N 
ATOM     15  C   UNL     1       2.526   0.130  -0.014  0.00  0.00    +0.000 C 
ATOM     16  O   UNL     1       2.635   0.348  -1.210  0.00  0.00    +0.000 OA
ATOM     17  H   UNL     1       1.699   1.930   0.428  0.00  0.00    +0.000 HD
ATOM     18  H   UNL     1       2.073   1.001   1.836  0.00  0.00    +0.000 HD
ENDBRANCH   7  15
ENDBRANCH   1  10
BRANCH   5  19
ATOM     19  C   UNL     1       6.816  -7.281   0.576  0.00  0.00    +0.000 C 
ATOM     20  C   UNL     1       6.177  -8.523  -0.020  0.00  0.00    +0.000 C 
ATOM     21  O   UNL     1       7.308  -8.606   0.854  0.00  0.00    +0.000 OA
BRANCH  19  22
ATOM     22  C   UNL     1       7.697  -6.446  -0.327  0.00  0.00    +0.000 C 
BRANCH  22  23
ATOM     23  C   UNL     1       8.784  -5.701   0.421  0.00  0.00    +0.000 A 
ATOM     24  C   UNL     1       9.773  -6.400   1.130  0.00  0.00    +0.000 A 
ATOM     25  C   UNL     1      10.816  -5.713   1.753  0.00  0.00    +0.000 A 
ATOM     26  C   UNL     1      10.875  -4.327   1.664  0.00  0.00    +0.000 A 
ATOM     27  F   UNL     1      11.893  -3.673   2.238  0.00  0.00    +0.000 F 
ATOM     28  C   UNL     1       9.897  -3.613   0.982  0.00  0.00    +0.000 A 
ATOM     29  C   UNL     1       8.849  -4.298   0.366  0.00  0.00    +0.000 A 
ENDBRANCH  22  23
ENDBRANCH  19  22
ENDBRANCH   5  19
TORSDOF 5
