REMARK  Name = 
REMARK  4 active torsions:
REMARK  status: ('A' for Active; 'I' for Inactive)
REMARK    1  A    between atoms: C_2  and  C_4
REMARK    2  A    between atoms: N_8  and  C_9
REMARK    3  A    between atoms: C_9  and  C_10
REMARK    4  A    between atoms: C_14  and  C_15
REMARK                            x       y       z     vdW  Elec       q    Type
REMARK                         _______ _______ _______ _____ _____    ______ ____
ROOT
ATOM      1  C   UNL     1       5.371  -3.145   4.969  0.00  0.00    +0.000 C 
ATOM      2  C   UNL     1       5.257  -4.622   4.610  0.00  0.00    +0.000 C 
ATOM      3  C   UNL     1       4.084  -3.913   5.199  0.00  0.00    +0.000 C 
ENDROOT
BRANCH   1   8
ATOM      4  C   UNL     1       3.744   1.470   3.169  0.00  0.00    +0.000 A 
ATOM      5  C   UNL     1       2.998   0.477   3.801  0.00  0.00    +0.000 A 
ATOM      6  C   UNL     1       3.594  -0.760   4.072  0.00  0.00    +0.000 A 
ATOM      7  C   UNL     1       4.916  -0.983   3.702  0.00  0.00    +0.000 A 
ATOM      8  N   UNL     1       5.548  -2.228   3.825  0.00  0.00    +0.000 N 
ATOM      9  N   UNL     1       5.650  -0.024   3.097  0.00  0.00    +0.000 NA
ATOM     10  C   UNL     1       5.055   1.171   2.842  0.00  0.00    +0.000 A 
ATOM     11  H   UNL     1       6.516  -2.057   3.553  0.00  0.00    +0.000 HD
BRANCH   4  13
ATOM     12  N   UNL     1       2.101   3.237   3.486  0.00  0.00    +0.000 N 
ATOM     13  C   UNL     1       3.190   2.786   2.792  0.00  0.00    +0.000 C 
ATOM     14  O   UNL     1       3.689   3.459   1.900  0.00  0.00    +0.000 OA
ATOM     15  H   UNL     1       1.778   4.171   3.265  0.00  0.00    +0.000 HD
ATOM     16  H   UNL     1       1.799   2.836   4.363  0.00  0.00    +0.000 HD
ENDBRANCH   4  13
ENDBRANCH   1   8
BRANCH   1  17
ATOM     17  C   UNL     1       6.218  -2.759   6.176  0.00  0.00    +0.000 A 
ATOM     18  C   UNL     1       7.491  -3.296   6.411  0.00  0.00    +0.000 A 
ATOM     19  C   UNL     1       8.285  -2.837   7.462  0.00  0.00    +0.000 A 
ATOM     20  C   UNL     1       7.832  -1.806   8.283  0.00  0.00    +0.000 A 
ATOM     21  C   UNL     1       6.577  -1.212   8.077  0.00  0.00    +0.000 A 
ATOM     22  C   UNL     1       5.780  -1.743   7.046  0.00  0.00    +0.000 A 
BRANCH  21  23
ATOM     23  C   UNL     1       6.141   0.005   8.795  0.00  0.00    +0.000 A 
ATOM     24  C   UNL     1       7.055   1.034   9.094  0.00  0.00    +0.000 A 
ATOM     25  C   UNL     1       6.631   2.261   9.611  0.00  0.00    +0.000 A 
ATOM     26  C   UNL     1       5.276   2.488   9.838  0.00  0.00    +0.000 A 
ATOM     27  C   UNL     1       4.359   1.474   9.580  0.00  0.00    +0.000 A 
ATOM     28 CL   UNL     1       2.679   1.762   9.820  0.00  0.00    +0.000 Cl
ATOM     29  C   UNL     1       4.785   0.239   9.085  0.00  0.00    +0.000 A 
ENDBRANCH  21  23
ENDBRANCH   1  17
TORSDOF 4
