REMARK  Name = 
REMARK  6 active torsions:
REMARK  status: ('A' for Active; 'I' for Inactive)
REMARK    1  A    between atoms: C_1  and  C_2
REMARK    2  A    between atoms: C_2  and  N_3
REMARK    3  A    between atoms: C_2  and  C_16
REMARK    4  A    between atoms: C_4  and  C_6
REMARK    5  A    between atoms: C_19  and  O_20
REMARK    6  A    between atoms: O_20  and  C_21
REMARK                            x       y       z     vdW  Elec       q    Type
REMARK                         _______ _______ _______ _____ _____    ______ ____
ROOT
ATOM      1  C   UNL     1       0.985   0.072   0.052  0.00  0.00    +0.000 C 
ATOM      2  C   UNL     1       2.515   0.041   0.008  0.00  0.00    +0.000 C 
ENDROOT
BRANCH   2   3
ATOM      3  C   UNL     1       3.033   0.806  -1.196  0.00  0.00    +0.000 A 
ATOM      4  C   UNL     1       3.847   1.930  -1.006  0.00  0.00    +0.000 A 
ATOM      5  C   UNL     1       4.352   2.633  -2.101  0.00  0.00    +0.000 A 
ATOM      6  C   UNL     1       4.099   2.195  -3.402  0.00  0.00    +0.000 A 
ATOM      7  C   UNL     1       3.256   1.102  -3.606  0.00  0.00    +0.000 A 
ATOM      8  C   UNL     1       2.728   0.412  -2.512  0.00  0.00    +0.000 A 
BRANCH   6   9
ATOM      9  O   UNL     1       4.586   2.822  -4.528  0.00  0.00    +0.000 OA
BRANCH   9  10
ATOM     10  C   UNL     1       5.879   3.330  -4.488  0.00  0.00    +0.000 A 
ATOM     11  C   UNL     1       6.176   4.353  -5.381  0.00  0.00    +0.000 A 
ATOM     12  C   UNL     1       7.448   4.916  -5.338  0.00  0.00    +0.000 A 
ATOM     13  C   UNL     1       8.374   4.446  -4.410  0.00  0.00    +0.000 A 
ATOM     14  C   UNL     1       7.997   3.402  -3.581  0.00  0.00    +0.000 A 
ATOM     15  N   UNL     1       6.777   2.823  -3.617  0.00  0.00    +0.000 NA
ENDBRANCH   9  10
ENDBRANCH   6   9
ENDBRANCH   2   3
BRANCH   2  16
ATOM     16  N   UNL     1       3.023  -1.320   0.000  0.00  0.00    +0.000 N 
ATOM     17  C   UNL     1       3.124  -2.075   1.140  0.00  0.00    +0.000 C 
ATOM     18  O   UNL     1       2.812  -1.638   2.245  0.00  0.00    +0.000 OA
ATOM     19  H   UNL     1       3.450  -1.652  -0.860  0.00  0.00    +0.000 HD
BRANCH  17  20
ATOM     20  C   UNL     1       3.567  -3.467   0.974  0.00  0.00    +0.000 A 
ATOM     21  C   UNL     1       3.256  -4.409   1.948  0.00  0.00    +0.000 A 
ATOM     22  S   UNL     1       3.821  -5.979   1.588  0.00  0.00    +0.000 S 
ATOM     23  C   UNL     1       4.540  -5.442   0.144  0.00  0.00    +0.000 A 
ATOM     24  N   UNL     1       5.240  -6.280  -0.661  0.00  0.00    +0.000 NA
ATOM     25  N   UNL     1       5.787  -5.825  -1.698  0.00  0.00    +0.000 NA
ATOM     26  N   UNL     1       5.637  -4.502  -2.005  0.00  0.00    +0.000 N 
ATOM     27  C   UNL     1       4.908  -3.583  -1.288  0.00  0.00    +0.000 A 
ATOM     28  O   UNL     1       4.761  -2.428  -1.672  0.00  0.00    +0.000 OA
ATOM     29  C   UNL     1       4.324  -4.101  -0.076  0.00  0.00    +0.000 A 
ATOM     30  H   UNL     1       6.082  -4.192  -2.859  0.00  0.00    +0.000 HD
ENDBRANCH  17  20
ENDBRANCH   2  16
TORSDOF 5
