REMARK  Name = 
REMARK  10 active torsions:
REMARK  status: ('A' for Active; 'I' for Inactive)
REMARK    1  A    between atoms: C_1  and  O_2
REMARK    2  A    between atoms: O_2  and  C_3
REMARK    3  A    between atoms: C_10  and  C_11
REMARK    4  A    between atoms: N_13  and  C_14
REMARK    5  A    between atoms: C_14  and  C_15
REMARK    6  A    between atoms: C_18  and  C_19
REMARK    7  A    between atoms: C_19  and  N_20
REMARK    8  A    between atoms: N_20  and  C_21
REMARK    9  A    between atoms: N_20  and  C_22
REMARK   10  A    between atoms: C_22  and  C_23
REMARK                            x       y       z     vdW  Elec       q    Type
REMARK                         _______ _______ _______ _____ _____    ______ ____
ROOT
ATOM      1  C   UNL     1       3.001   0.419   3.384  0.00  0.00    +0.000 C 
ENDROOT
BRANCH   1   2
ATOM      2  C   UNL     1       1.914   1.438   3.159  0.00  0.00    +0.000 A 
ATOM      3  C   UNL     1       0.597   1.026   2.909  0.00  0.00    +0.000 A 
ATOM      4  C   UNL     1      -0.410   1.966   2.680  0.00  0.00    +0.000 A 
ATOM      5  C   UNL     1      -0.125   3.339   2.710  0.00  0.00    +0.000 A 
ATOM      6  C   UNL     1       1.199   3.748   2.919  0.00  0.00    +0.000 A 
ATOM      7  C   UNL     1       2.209   2.807   3.135  0.00  0.00    +0.000 A 
BRANCH   5   8
ATOM      8  C   UNL     1      -1.232   4.363   2.539  0.00  0.00    +0.000 C 
BRANCH   8   9
ATOM      9  N   UNL     1      -2.314   4.226   3.540  0.00  0.00    +0.000 NA
ATOM     10  C   UNL     1      -1.806   4.452   4.900  0.00  0.00    +0.000 C 
BRANCH   9  11
ATOM     11  C   UNL     1      -3.391   5.208   3.270  0.00  0.00    +0.000 C 
BRANCH  11  12
ATOM     12  C   UNL     1      -4.121   5.026   1.949  0.00  0.00    +0.000 A 
ATOM     13  C   UNL     1      -4.780   3.832   1.662  0.00  0.00    +0.000 A 
ATOM     14  C   UNL     1      -5.495   3.728   0.471  0.00  0.00    +0.000 A 
ATOM     15  C   UNL     1      -5.524   4.808  -0.403  0.00  0.00    +0.000 A 
ATOM     16  C   UNL     1      -4.823   5.949  -0.055  0.00  0.00    +0.000 A 
ATOM     17  N   UNL     1      -4.126   6.083   1.096  0.00  0.00    +0.000 NA
ENDBRANCH  11  12
ENDBRANCH   9  11
ENDBRANCH   8   9
ENDBRANCH   5   8
ENDBRANCH   1   2
BRANCH   1  20
ATOM     18  C   UNL     1       4.598  -0.896   2.044  0.00  0.00    +0.000 C 
ATOM     19  O   UNL     1       5.021  -1.472   3.045  0.00  0.00    +0.000 OA
ATOM     20  N   UNL     1       3.612   0.049   2.133  0.00  0.00    +0.000 N 
ATOM     21  H   UNL     1       3.294   0.532   1.303  0.00  0.00    +0.000 HD
BRANCH  18  29
ATOM     22  C   UNL     1       3.802   0.214  -1.121  0.00  0.00    +0.000 A 
ATOM     23  N   UNL     1       3.719   0.484  -2.439  0.00  0.00    +0.000 NA
ATOM     24  C   UNL     1       4.567  -0.137  -3.265  0.00  0.00    +0.000 A 
ATOM     25  N   UNL     1       5.508  -1.013  -2.929  0.00  0.00    +0.000 NA
ATOM     26  C   UNL     1       5.565  -1.246  -1.607  0.00  0.00    +0.000 A 
ATOM     27  S   UNL     1       6.708  -2.345  -1.002  0.00  0.00    +0.000 S 
ATOM     28  C   UNL     1       6.176  -2.097   0.593  0.00  0.00    +0.000 A 
ATOM     29  C   UNL     1       5.135  -1.183   0.705  0.00  0.00    +0.000 A 
ATOM     30  C   UNL     1       4.766  -0.679  -0.619  0.00  0.00    +0.000 A 
BRANCH  22  32
ATOM     31  C   UNL     1       1.711   1.231  -0.919  0.00  0.00    +0.000 C 
ATOM     32  O   UNL     1       2.936   0.874  -0.276  0.00  0.00    +0.000 OA
ENDBRANCH  22  32
ENDBRANCH  18  29
ENDBRANCH   1  20
TORSDOF 8
