REMARK  Name = 
REMARK  5 active torsions:
REMARK  status: ('A' for Active; 'I' for Inactive)
REMARK    1  A    between atoms: C_2  and  C_4
REMARK    2  A    between atoms: C_8  and  N_9
REMARK    3  A    between atoms: N_9  and  C_10
REMARK    4  A    between atoms: C_10  and  C_11
REMARK    5  A    between atoms: C_15  and  C_16
REMARK                            x       y       z     vdW  Elec       q    Type
REMARK                         _______ _______ _______ _____ _____    ______ ____
ROOT
ATOM      1  C   UNL     1       1.944   4.693  -2.022  0.00  0.00    +0.000 C 
ENDROOT
BRANCH   1   2
ATOM      2  C   UNL     1       1.790   6.088  -2.547  0.00  0.00    +0.000 A 
ATOM      3  C   UNL     1       2.248   7.178  -1.821  0.00  0.00    +0.000 A 
ATOM      4  N   UNL     1       2.142   8.454  -2.242  0.00  0.00    +0.000 NA
ATOM      5  C   UNL     1       1.537   8.653  -3.439  0.00  0.00    +0.000 A 
ATOM      6  C   UNL     1       1.028   7.647  -4.266  0.00  0.00    +0.000 A 
ATOM      7  C   UNL     1       1.171   6.339  -3.778  0.00  0.00    +0.000 A 
BRANCH   6   8
ATOM      8  C   UNL     1       0.390   7.935  -5.568  0.00  0.00    +0.000 A 
ATOM      9  C   UNL     1       0.794   9.024  -6.361  0.00  0.00    +0.000 A 
ATOM     10  C   UNL     1       0.189   9.283  -7.592  0.00  0.00    +0.000 A 
ATOM     11  F   UNL     1       0.600  10.333  -8.314  0.00  0.00    +0.000 F 
ATOM     12  C   UNL     1      -0.822   8.473  -8.080  0.00  0.00    +0.000 A 
ATOM     13  C   UNL     1      -1.227   7.396  -7.315  0.00  0.00    +0.000 A 
ATOM     14  F   UNL     1      -2.200   6.591  -7.769  0.00  0.00    +0.000 F 
ATOM     15  C   UNL     1      -0.645   7.125  -6.078  0.00  0.00    +0.000 A 
ENDBRANCH   6   8
ENDBRANCH   1   2
BRANCH   1  16
ATOM     16  N   UNL     1       0.822   4.356  -1.162  0.00  0.00    +0.000 N 
ATOM     17  H   UNL     1      -0.076   4.728  -1.468  0.00  0.00    +0.000 HD
BRANCH  16  22
ATOM     18  C   UNL     1       1.692   0.977   0.134  0.00  0.00    +0.000 A 
ATOM     19  C   UNL     1       0.522   0.712   0.826  0.00  0.00    +0.000 A 
ATOM     20  N   UNL     1      -0.521   1.572   0.875  0.00  0.00    +0.000 NA
ATOM     21  C   UNL     1      -0.378   2.737   0.192  0.00  0.00    +0.000 A 
ATOM     22  C   UNL     1       0.736   3.092  -0.578  0.00  0.00    +0.000 A 
ATOM     23  C   UNL     1       1.787   2.174  -0.582  0.00  0.00    +0.000 A 
BRANCH  18  25
ATOM     24  N   UNL     1       4.065   0.486  -0.005  0.00  0.00    +0.000 N 
ATOM     25  C   UNL     1       2.798  -0.000   0.172  0.00  0.00    +0.000 C 
ATOM     26  O   UNL     1       2.596  -1.188   0.384  0.00  0.00    +0.000 OA
ATOM     27  H   UNL     1       4.820  -0.175   0.130  0.00  0.00    +0.000 HD
ATOM     28  H   UNL     1       4.287   1.467   0.098  0.00  0.00    +0.000 HD
ENDBRANCH  18  25
ENDBRANCH  16  22
ENDBRANCH   1  16
TORSDOF 5
