REMARK  Name = 
REMARK  5 active torsions:
REMARK  status: ('A' for Active; 'I' for Inactive)
REMARK    1  A    between atoms: C_1  and  C_2
REMARK    2  A    between atoms: C_2  and  C_3
REMARK    3  A    between atoms: C_2  and  C_14
REMARK    4  A    between atoms: C_3  and  N_4
REMARK    5  A    between atoms: C_8  and  C_9
REMARK                            x       y       z     vdW  Elec       q    Type
REMARK                         _______ _______ _______ _____ _____    ______ ____
ROOT
ATOM      1  N   UNL     1       2.755   0.355   2.378  0.00  0.00    +0.000 N 
ATOM      2  C   UNL     1       3.367   0.048   3.581  0.00  0.00    +0.000 A 
ATOM      3  N   UNL     1       4.553  -0.578   3.585  0.00  0.00    +0.000 NA
ATOM      4  C   UNL     1       5.092  -0.876   4.786  0.00  0.00    +0.000 A 
ATOM      5  C   UNL     1       4.503  -0.548   5.982  0.00  0.00    +0.000 A 
ATOM      6  C   UNL     1       3.290   0.091   5.878  0.00  0.00    +0.000 A 
ATOM      7  N   UNL     1       2.704   0.395   4.696  0.00  0.00    +0.000 NA
ATOM      8  H   UNL     1       1.767   0.450   2.568  0.00  0.00    +0.000 HD
ENDROOT
BRANCH   5   9
ATOM      9  C   UNL     1       5.155  -0.922   7.243  0.00  0.00    +0.000 C 
ATOM     10  N   UNL     1       4.860  -0.199   8.363  0.00  0.00    +0.000 N 
ATOM     11  O   UNL     1       5.967  -1.837   7.280  0.00  0.00    +0.000 OA
ATOM     12  H   UNL     1       4.389   0.695   8.350  0.00  0.00    +0.000 HD
ATOM     13  H   UNL     1       5.406  -0.421   9.188  0.00  0.00    +0.000 HD
ENDBRANCH   5   9
BRANCH   1  14
ATOM     14  C   UNL     1       3.094  -0.563   1.309  0.00  0.00    +0.000 C 
BRANCH  14  16
ATOM     15  C   UNL     1       2.823   1.110  -0.621  0.00  0.00    +0.000 C 
ATOM     16  C   UNL     1       2.346  -0.119   0.087  0.00  0.00    +0.000 C 
BRANCH  16  17
ATOM     17  C   UNL     1       0.968  -0.590  -0.095  0.00  0.00    +0.000 A 
ATOM     18  C   UNL     1       0.680  -1.960  -0.155  0.00  0.00    +0.000 A 
ATOM     19  C   UNL     1      -0.640  -2.403  -0.254  0.00  0.00    +0.000 A 
ATOM     20  C   UNL     1      -1.684  -1.479  -0.287  0.00  0.00    +0.000 A 
ATOM     21  C   UNL     1      -1.400  -0.116  -0.241  0.00  0.00    +0.000 A 
ATOM     22 CL   UNL     1      -2.685   1.028  -0.257  0.00  0.00    +0.000 Cl
ATOM     23  C   UNL     1      -0.085   0.330  -0.157  0.00  0.00    +0.000 A 
ENDBRANCH  16  17
ENDBRANCH  14  16
ENDBRANCH   1  14
TORSDOF 4
