REMARK  Name = 
REMARK  5 active torsions:
REMARK  status: ('A' for Active; 'I' for Inactive)
REMARK    1  A    between atoms: N_1  and  C_2
REMARK    2  A    between atoms: C_2  and  C_3
REMARK    3  A    between atoms: C_3  and  C_4
REMARK    4  A    between atoms: N_7  and  C_8
REMARK    5  A    between atoms: C_8  and  C_9
REMARK                            x       y       z     vdW  Elec       q    Type
REMARK                         _______ _______ _______ _____ _____    ______ ____
ROOT
ATOM      1  C   UNL     1       7.606   0.799   2.718  0.00  0.00    +0.000 C 
ENDROOT
BRANCH   1   2
ATOM      2  C   UNL     1       7.276   0.758   4.182  0.00  0.00    +0.000 A 
ATOM      3  C   UNL     1       7.104   1.923   4.913  0.00  0.00    +0.000 A 
ATOM      4  N   UNL     1       6.881   1.961   6.246  0.00  0.00    +0.000 NA
ATOM      5  C   UNL     1       6.802   0.793   6.922  0.00  0.00    +0.000 A 
ATOM      6  C   UNL     1       6.614   0.765   8.306  0.00  0.00    +0.000 A 
ATOM      7  F   UNL     1       6.512   1.916   8.991  0.00  0.00    +0.000 F 
ATOM      8  C   UNL     1       6.539  -0.426   9.030  0.00  0.00    +0.000 A 
ATOM      9  C   UNL     1       6.641  -1.642   8.367  0.00  0.00    +0.000 A 
ATOM     10  C   UNL     1       6.828  -1.653   6.987  0.00  0.00    +0.000 A 
ATOM     11  C   UNL     1       6.919  -0.450   6.263  0.00  0.00    +0.000 A 
ATOM     12  C   UNL     1       7.150  -0.447   4.878  0.00  0.00    +0.000 A 
ENDBRANCH   1   2
BRANCH   1  16
ATOM     13  C   UNL     1       4.701   1.624   0.681  0.00  0.00    +0.000 A 
ATOM     14  C   UNL     1       4.719   0.203   0.598  0.00  0.00    +0.000 A 
ATOM     15  C   UNL     1       5.790  -0.249   1.337  0.00  0.00    +0.000 A 
ATOM     16  N   UNL     1       6.415   0.842   1.883  0.00  0.00    +0.000 N 
ATOM     17  C   UNL     1       5.786   1.984   1.458  0.00  0.00    +0.000 A 
BRANCH  13  18
ATOM     18  C   UNL     1       3.695   2.544   0.064  0.00  0.00    +0.000 C 
BRANCH  18  19
ATOM     19  C   UNL     1       4.099   3.015  -1.337  0.00  0.00    +0.000 C 
BRANCH  19  20
ATOM     20  N   UNL     1       3.115   3.949  -1.889  0.00  0.00    +0.000 NA
ATOM     21  H   UNL     1       3.442   4.282  -2.796  0.00  0.00    +0.000 HD
ATOM     22  H   UNL     1       3.054   4.772  -1.290  0.00  0.00    +0.000 HD
ENDBRANCH  19  20
ENDBRANCH  18  19
ENDBRANCH  13  18
ENDBRANCH   1  16
TORSDOF 5
