REMARK  Name = 
REMARK  6 active torsions:
REMARK  status: ('A' for Active; 'I' for Inactive)
REMARK    1  A    between atoms: N_1  and  C_2
REMARK    2  A    between atoms: C_2  and  C_3
REMARK    3  A    between atoms: C_3  and  C_4
REMARK    4  A    between atoms: C_7  and  C_8
REMARK    5  A    between atoms: C_8  and  C_9
REMARK    6  A    between atoms: C_15  and  C_16
REMARK                            x       y       z     vdW  Elec       q    Type
REMARK                         _______ _______ _______ _____ _____    ______ ____
ROOT
ATOM      1  C   UNL     1       9.447  -2.738  -1.305  0.00  0.00    +0.000 A 
ATOM      2  N   UNL     1       9.660  -3.283  -2.491  0.00  0.00    +0.000 NA
ATOM      3  C   UNL     1      10.354  -4.441  -2.253  0.00  0.00    +0.000 A 
ATOM      4  C   UNL     1      10.588  -4.617  -0.908  0.00  0.00    +0.000 A 
ATOM      5  N   UNL     1      11.245  -5.573  -0.189  0.00  0.00    +0.000 NA
ATOM      6  C   UNL     1      11.272  -5.393   1.101  0.00  0.00    +0.000 A 
ATOM      7  C   UNL     1      10.665  -4.251   1.853  0.00  0.00    +0.000 A 
ATOM      8  C   UNL     1      10.011  -3.361   1.083  0.00  0.00    +0.000 A 
ATOM      9  N   UNL     1       9.979  -3.528  -0.299  0.00  0.00    +0.000 N 
ENDROOT
BRANCH   7  10
ATOM     10  C   UNL     1      10.766  -4.180   3.328  0.00  0.00    +0.000 C 
ATOM     11  N   UNL     1      10.546  -2.974   3.916  0.00  0.00    +0.000 N 
ATOM     12  O   UNL     1      11.082  -5.156   3.999  0.00  0.00    +0.000 OA
ATOM     13  H   UNL     1      10.449  -2.103   3.418  0.00  0.00    +0.000 HD
ATOM     14  H   UNL     1      10.696  -2.927   4.917  0.00  0.00    +0.000 HD
ENDBRANCH   7  10
BRANCH   1  15
ATOM     15  C   UNL     1       8.831  -1.391  -1.076  0.00  0.00    +0.000 C 
BRANCH  15  19
ATOM     16  C   UNL     1       4.498  -1.412  -0.832  0.00  0.00    +0.000 A 
ATOM     17  C   UNL     1       5.275  -1.546   0.325  0.00  0.00    +0.000 A 
ATOM     18  C   UNL     1       6.672  -1.540   0.252  0.00  0.00    +0.000 A 
ATOM     19  C   UNL     1       7.322  -1.398  -0.981  0.00  0.00    +0.000 A 
ATOM     20  C   UNL     1       6.542  -1.249  -2.136  0.00  0.00    +0.000 A 
ATOM     21  C   UNL     1       5.145  -1.245  -2.061  0.00  0.00    +0.000 A 
BRANCH  16  22
ATOM     22  C   UNL     1       2.991  -1.476  -0.755  0.00  0.00    +0.000 C 
BRANCH  22  23
ATOM     23  C   UNL     1       2.342  -0.116  -0.476  0.00  0.00    +0.000 C 
BRANCH  23  24
ATOM     24  N   UNL     1       0.889  -0.249  -0.362  0.00  0.00    +0.000 NA
ATOM     25  H   UNL     1       0.479   0.661  -0.154  0.00  0.00    +0.000 HD
ATOM     26  H   UNL     1       0.659  -0.852   0.428  0.00  0.00    +0.000 HD
ENDBRANCH  23  24
ENDBRANCH  22  23
ENDBRANCH  16  22
ENDBRANCH  15  19
ENDBRANCH   1  15
TORSDOF 6
