REMARK  Name = 
REMARK  4 active torsions:
REMARK  status: ('A' for Active; 'I' for Inactive)
REMARK    1  A    between atoms: C_2  and  C_4
REMARK    2  A    between atoms: C_7  and  C_8
REMARK    3  A    between atoms: C_8  and  C_9
REMARK    4  A    between atoms: C_9  and  C_10
REMARK                            x       y       z     vdW  Elec       q    Type
REMARK                         _______ _______ _______ _____ _____    ______ ____
ROOT
ATOM      1  C   UNL     1       2.557  -0.793   1.210  0.00  0.00    +0.000 A 
ATOM      2  N   UNL     1       2.133  -1.696   2.126  0.00  0.00    +0.000 NA
ATOM      3  C   UNL     1       3.124  -2.479   2.627  0.00  0.00    +0.000 A 
ATOM      4  C   UNL     1       4.444  -2.430   2.226  0.00  0.00    +0.000 A 
ATOM      5  N   UNL     1       4.784  -1.492   1.312  0.00  0.00    +0.000 NA
ATOM      6  N   UNL     1       3.828  -0.654   0.794  0.00  0.00    +0.000 NA
ENDROOT
BRANCH   1   8
ATOM      7  N   UNL     1       0.212  -0.133   0.988  0.00  0.00    +0.000 N 
ATOM      8  C   UNL     1       1.516   0.114   0.609  0.00  0.00    +0.000 C 
ATOM      9  O   UNL     1       1.769   1.020  -0.175  0.00  0.00    +0.000 OA
ATOM     10  H   UNL     1      -0.527   0.436   0.598  0.00  0.00    +0.000 HD
ATOM     11  H   UNL     1      -0.003  -0.888   1.626  0.00  0.00    +0.000 HD
ENDBRANCH   1   8
BRANCH   4  12
ATOM     12  C   UNL     1       5.592  -3.181   2.857  0.00  0.00    +0.000 C 
BRANCH  12  13
ATOM     13  C   UNL     1       5.557  -4.700   3.054  0.00  0.00    +0.000 C 
ATOM     14  C   UNL     1       4.700  -5.615   2.192  0.00  0.00    +0.000 C 
ATOM     15  C   UNL     1       4.338  -5.426   3.627  0.00  0.00    +0.000 C 
BRANCH  13  16
ATOM     16  C   UNL     1       6.932  -5.311   3.392  0.00  0.00    +0.000 A 
ATOM     17  C   UNL     1       7.233  -5.806   4.673  0.00  0.00    +0.000 A 
ATOM     18  C   UNL     1       8.358  -6.603   4.893  0.00  0.00    +0.000 A 
ATOM     19  C   UNL     1       9.232  -6.880   3.845  0.00  0.00    +0.000 A 
ATOM     20  C   UNL     1       9.013  -6.311   2.594  0.00  0.00    +0.000 A 
ATOM     21  C   UNL     1       7.879  -5.529   2.375  0.00  0.00    +0.000 A 
ENDBRANCH  13  16
ENDBRANCH  12  13
ENDBRANCH   4  12
TORSDOF 4
