REMARK  Name = 
REMARK  6 active torsions:
REMARK  status: ('A' for Active; 'I' for Inactive)
REMARK    1  A    between atoms: N_1  and  C_2
REMARK    2  A    between atoms: C_2  and  C_3
REMARK    3  A    between atoms: C_2  and  C_18
REMARK    4  A    between atoms: C_3  and  C_4
REMARK    5  A    between atoms: C_7  and  C_8
REMARK    6  A    between atoms: C_8  and  C_9
REMARK                            x       y       z     vdW  Elec       q    Type
REMARK                         _______ _______ _______ _____ _____    ______ ____
ROOT
ATOM      1  C   UNL     1       0.486   0.508   1.538  0.00  0.00    +0.000 C 
ENDROOT
BRANCH   1   2
ATOM      2  C   UNL     1       0.940   1.954   1.619  0.00  0.00    +0.000 A 
ATOM      3  C   UNL     1       0.062   3.022   1.720  0.00  0.00    +0.000 A 
ATOM      4  S   UNL     1       0.838   4.544   1.683  0.00  0.00    +0.000 S 
ATOM      5  C   UNL     1       2.375   3.825   1.543  0.00  0.00    +0.000 A 
ATOM      6  N   UNL     1       3.499   4.579   1.409  0.00  0.00    +0.000 NA
ATOM      7  C   UNL     1       4.588   3.892   1.297  0.00  0.00    +0.000 A 
ATOM      8  N   UNL     1       4.659   2.522   1.338  0.00  0.00    +0.000 N 
ATOM      9  C   UNL     1       3.561   1.724   1.556  0.00  0.00    +0.000 A 
ATOM     10  O   UNL     1       3.671   0.516   1.740  0.00  0.00    +0.000 OA
ATOM     11  C   UNL     1       2.300   2.446   1.586  0.00  0.00    +0.000 A 
ATOM     12  H   UNL     1       5.550   2.050   1.302  0.00  0.00    +0.000 HD
ENDBRANCH   1   2
BRANCH   1  13
ATOM     13  N   UNL     1       0.976  -0.190   2.723  0.00  0.00    +0.000 NA
ATOM     14  H   UNL     1       0.752   0.346   3.558  0.00  0.00    +0.000 HD
ATOM     15  H   UNL     1       1.998  -0.254   2.674  0.00  0.00    +0.000 HD
ENDBRANCH   1  13
BRANCH   1  16
ATOM     16  C   UNL     1       0.904  -0.154   0.199  0.00  0.00    +0.000 C 
BRANCH  16  17
ATOM     17  C   UNL     1       0.496  -1.594   0.017  0.00  0.00    +0.000 A 
ATOM     18  C   UNL     1       1.452  -2.600  -0.146  0.00  0.00    +0.000 A 
ATOM     19  C   UNL     1       1.050  -3.924  -0.323  0.00  0.00    +0.000 A 
ATOM     20  C   UNL     1      -0.308  -4.215  -0.345  0.00  0.00    +0.000 A 
ATOM     21  N   UNL     1      -1.259  -3.255  -0.216  0.00  0.00    +0.000 NA
ATOM     22  C   UNL     1      -0.837  -1.980  -0.027  0.00  0.00    +0.000 A 
BRANCH  20  23
ATOM     23  C   UNL     1      -0.796  -5.633  -0.427  0.00  0.00    +0.000 C 
BRANCH  23  24
ATOM     24  C   UNL     1      -0.402  -6.360  -1.696  0.00  0.00    +0.000 C 
ATOM     25  O   UNL     1       0.622  -7.048  -1.734  0.00  0.00    +0.000 OA
ATOM     26  N   UNL     1      -1.263  -6.287  -2.764  0.00  0.00    +0.000 N 
ATOM     27  C   UNL     1      -1.053  -7.044  -3.962  0.00  0.00    +0.000 C 
ATOM     28  C   UNL     1      -2.338  -6.798  -4.712  0.00  0.00    +0.000 C 
ATOM     29  O   UNL     1      -2.792  -5.499  -4.290  0.00  0.00    +0.000 OA
ATOM     30  C   UNL     1      -2.133  -5.181  -3.054  0.00  0.00    +0.000 C 
ENDBRANCH  23  24
ENDBRANCH  20  23
ENDBRANCH  16  17
ENDBRANCH   1  16
TORSDOF 6
