REMARK  Name = 
REMARK  7 active torsions:
REMARK  status: ('A' for Active; 'I' for Inactive)
REMARK    1  A    between atoms: C_2  and  C_21
REMARK    2  A    between atoms: N_3  and  C_4
REMARK    3  A    between atoms: C_4  and  C_5
REMARK    4  A    between atoms: C_8  and  C_9
REMARK    5  A    between atoms: C_9  and  N_10
REMARK    6  A    between atoms: C_11  and  C_13
REMARK    7  A    between atoms: C_16  and  O_17
REMARK                            x       y       z     vdW  Elec       q    Type
REMARK                         _______ _______ _______ _____ _____    ______ ____
ROOT
ATOM      1  C   UNL     1       7.122  16.078  -0.045  0.00  0.00    +0.000 A 
ATOM      2  C   UNL     1       7.134  15.483  -1.314  0.00  0.00    +0.000 A 
ATOM      3  C   UNL     1       6.671  14.175  -1.494  0.00  0.00    +0.000 A 
ATOM      4  C   UNL     1       6.165  13.441  -0.414  0.00  0.00    +0.000 A 
ATOM      5  C   UNL     1       6.143  14.040   0.853  0.00  0.00    +0.000 A 
ATOM      6  C   UNL     1       6.607  15.348   1.034  0.00  0.00    +0.000 A 
ENDROOT
BRANCH   1   7
ATOM      7  C   UNL     1       7.605  17.496   0.138  0.00  0.00    +0.000 C 
BRANCH   7  10
ATOM      8  O   UNL     1       7.797  20.266   0.444  0.00  0.00    +0.000 OA
ATOM      9  C   UNL     1       6.720  19.788   0.100  0.00  0.00    +0.000 C 
ATOM     10  N   UNL     1       6.521  18.432  -0.008  0.00  0.00    +0.000 N 
ATOM     11  H   UNL     1       5.699  18.096  -0.497  0.00  0.00    +0.000 HD
BRANCH   9  12
ATOM     12  C   UNL     1       5.551  20.633  -0.165  0.00  0.00    +0.000 A 
ATOM     13  C   UNL     1       5.452  21.892   0.410  0.00  0.00    +0.000 A 
ATOM     14  S   UNL     1       3.998  22.701   0.034  0.00  0.00    +0.000 S 
ATOM     15  C   UNL     1       3.474  21.420  -0.957  0.00  0.00    +0.000 A 
ATOM     16  N   UNL     1       2.281  21.478  -1.607  0.00  0.00    +0.000 NA
ATOM     17  C   UNL     1       2.030  20.453  -2.352  0.00  0.00    +0.000 A 
ATOM     18  N   UNL     1       2.862  19.375  -2.505  0.00  0.00    +0.000 N 
ATOM     19  C   UNL     1       4.059  19.260  -1.843  0.00  0.00    +0.000 A 
ATOM     20  O   UNL     1       4.762  18.259  -1.968  0.00  0.00    +0.000 OA
ATOM     21  C   UNL     1       4.392  20.387  -0.993  0.00  0.00    +0.000 A 
ATOM     22  H   UNL     1       2.607  18.602  -3.101  0.00  0.00    +0.000 HD
ENDBRANCH   9  12
ENDBRANCH   7  10
ENDBRANCH   1   7
BRANCH   4  23
ATOM     23  C   UNL     1       5.657  12.034  -0.613  0.00  0.00    +0.000 C 
BRANCH  23  24
ATOM     24  N   UNL     1       6.697  11.049  -0.422  0.00  0.00    +0.000 N 
ATOM     25  C   UNL     1       6.417   9.704  -0.542  0.00  0.00    +0.000 C 
ATOM     26  O   UNL     1       5.288   9.285  -0.777  0.00  0.00    +0.000 OA
ATOM     27  H   UNL     1       7.657  11.366  -0.437  0.00  0.00    +0.000 HD
BRANCH  25  28
ATOM     28  C   UNL     1       7.617   8.782  -0.301  0.00  0.00    +0.000 C 
ATOM     29  C   UNL     1       7.262   7.281  -0.395  0.00  0.00    +0.000 C 
ATOM     30  C   UNL     1       8.102   6.703  -1.537  0.00  0.00    +0.000 C 
ATOM     31  C   UNL     1       8.478   7.910  -2.380  0.00  0.00    +0.000 C 
ATOM     32  C   UNL     1       8.729   8.991  -1.338  0.00  0.00    +0.000 C 
BRANCH  31  33
ATOM     33  O   UNL     1       7.418   8.295  -3.245  0.00  0.00    +0.000 OA
ATOM     34  H   UNL     1       6.563   8.067  -2.837  0.00  0.00    +0.000 HD
ENDBRANCH  31  33
ENDBRANCH  25  28
ENDBRANCH  23  24
ENDBRANCH   4  23
TORSDOF 7
