REMARK  Name = 
REMARK  7 active torsions:
REMARK  status: ('A' for Active; 'I' for Inactive)
REMARK    1  A    between atoms: C_1  and  C_2
REMARK    2  A    between atoms: C_2  and  N_3
REMARK    3  A    between atoms: C_2  and  C_19
REMARK    4  A    between atoms: C_7  and  C_8
REMARK    5  A    between atoms: C_8  and  O_9
REMARK    6  A    between atoms: C_8  and  C_10
REMARK    7  A    between atoms: C_10  and  C_11
REMARK                            x       y       z     vdW  Elec       q    Type
REMARK                         _______ _______ _______ _____ _____    ______ ____
ROOT
ATOM      1  N   UNL     1       2.920   1.194  -0.628  0.00  0.00    +0.000 N 
ATOM      2  C   UNL     1       2.685   1.442  -1.981  0.00  0.00    +0.000 A 
ATOM      3  C   UNL     1       1.355   1.456  -2.381  0.00  0.00    +0.000 A 
ATOM      4  C   UNL     1       1.037   1.665  -3.717  0.00  0.00    +0.000 A 
ATOM      5  C   UNL     1       2.050   1.921  -4.641  0.00  0.00    +0.000 A 
ATOM      6  C   UNL     1       3.351   1.928  -4.142  0.00  0.00    +0.000 A 
ATOM      7  N   UNL     1       3.684   1.688  -2.845  0.00  0.00    +0.000 NA
ATOM      8  H   UNL     1       2.654   2.033  -0.119  0.00  0.00    +0.000 HD
ENDROOT
BRANCH   1  10
ATOM      9  C   UNL     1       4.493  -0.689  -0.759  0.00  0.00    +0.000 C 
ATOM     10  C   UNL     1       4.243   0.724  -0.202  0.00  0.00    +0.000 C 
BRANCH  10  11
ATOM     11  C   UNL     1       4.329   0.669   1.323  0.00  0.00    +0.000 A 
ATOM     12  C   UNL     1       3.253   0.360   2.145  0.00  0.00    +0.000 A 
ATOM     13  S   UNL     1       3.640   0.388   3.805  0.00  0.00    +0.000 S 
ATOM     14  C   UNL     1       5.264   0.778   3.478  0.00  0.00    +0.000 A 
ATOM     15  N   UNL     1       6.167   0.931   4.484  0.00  0.00    +0.000 NA
ATOM     16  C   UNL     1       7.364   1.205   4.081  0.00  0.00    +0.000 A 
ATOM     17  N   UNL     1       7.739   1.347   2.769  0.00  0.00    +0.000 N 
ATOM     18  C   UNL     1       6.862   1.209   1.718  0.00  0.00    +0.000 A 
ATOM     19  O   UNL     1       7.225   1.334   0.553  0.00  0.00    +0.000 OA
ATOM     20  C   UNL     1       5.504   0.897   2.122  0.00  0.00    +0.000 A 
ATOM     21  H   UNL     1       8.694   1.558   2.523  0.00  0.00    +0.000 HD
ENDBRANCH  10  11
ENDBRANCH   1  10
BRANCH   5  22
ATOM     22  C   UNL     1       1.787   2.089  -6.123  0.00  0.00    +0.000 C 
BRANCH  22  23
ATOM     23  O   UNL     1       1.900   0.793  -6.720  0.00  0.00    +0.000 OA
ATOM     24  H   UNL     1       1.486   0.149  -6.123  0.00  0.00    +0.000 HD
ENDBRANCH  22  23
BRANCH  22  25
ATOM     25  C   UNL     1       0.405   2.685  -6.440  0.00  0.00    +0.000 C 
BRANCH  25  26
ATOM     26  C   UNL     1       0.172   2.880  -7.915  0.00  0.00    +0.000 A 
ATOM     27  C   UNL     1      -0.400   1.855  -8.670  0.00  0.00    +0.000 A 
ATOM     28  C   UNL     1      -0.635   2.067 -10.023  0.00  0.00    +0.000 A 
ATOM     29  C   UNL     1      -0.296   3.291 -10.586  0.00  0.00    +0.000 A 
ATOM     30  C   UNL     1       0.269   4.252  -9.764  0.00  0.00    +0.000 A 
ATOM     31  N   UNL     1       0.506   4.079  -8.445  0.00  0.00    +0.000 NA
ENDBRANCH  25  26
ENDBRANCH  22  25
ENDBRANCH   5  22
TORSDOF 6
