REMARK  Name = 
REMARK  6 active torsions:
REMARK  status: ('A' for Active; 'I' for Inactive)
REMARK    1  A    between atoms: C_1  and  C_2
REMARK    2  A    between atoms: C_2  and  N_3
REMARK    3  A    between atoms: C_2  and  C_16
REMARK    4  A    between atoms: C_4  and  C_6
REMARK    5  A    between atoms: C_19  and  C_20
REMARK    6  A    between atoms: C_20  and  C_21
REMARK                            x       y       z     vdW  Elec       q    Type
REMARK                         _______ _______ _______ _____ _____    ______ ____
ROOT
ATOM      1  C   UNL     1       0.816  -0.002   0.069  0.00  0.00    +0.000 C 
ATOM      2  C   UNL     1       2.346  -0.077   0.177  0.00  0.00    +0.000 C 
ENDROOT
BRANCH   2   3
ATOM      3  C   UNL     1       2.878  -0.804  -1.046  0.00  0.00    +0.000 A 
ATOM      4  C   UNL     1       3.212  -0.072  -2.191  0.00  0.00    +0.000 A 
ATOM      5  C   UNL     1       3.594  -0.727  -3.361  0.00  0.00    +0.000 A 
ATOM      6  C   UNL     1       3.690  -2.128  -3.406  0.00  0.00    +0.000 A 
ATOM      7  C   UNL     1       3.374  -2.857  -2.257  0.00  0.00    +0.000 A 
ATOM      8  C   UNL     1       2.957  -2.204  -1.097  0.00  0.00    +0.000 A 
BRANCH   6   9
ATOM      9  C   UNL     1       4.116  -2.861  -4.656  0.00  0.00    +0.000 C 
BRANCH   9  10
ATOM     10  C   UNL     1       5.603  -3.095  -4.815  0.00  0.00    +0.000 A 
ATOM     11  C   UNL     1       6.473  -2.010  -4.879  0.00  0.00    +0.000 A 
ATOM     12  C   UNL     1       7.787  -2.220  -5.280  0.00  0.00    +0.000 A 
ATOM     13  C   UNL     1       8.211  -3.509  -5.575  0.00  0.00    +0.000 A 
ATOM     14  C   UNL     1       7.304  -4.544  -5.428  0.00  0.00    +0.000 A 
ATOM     15  N   UNL     1       6.013  -4.366  -5.064  0.00  0.00    +0.000 NA
ENDBRANCH   9  10
ENDBRANCH   6   9
ENDBRANCH   2   3
BRANCH   2  16
ATOM     16  N   UNL     1       2.806  -0.720   1.395  0.00  0.00    +0.000 N 
ATOM     17  C   UNL     1       2.488  -0.221   2.632  0.00  0.00    +0.000 C 
ATOM     18  O   UNL     1       1.791   0.776   2.782  0.00  0.00    +0.000 OA
ATOM     19  H   UNL     1       3.652  -1.271   1.321  0.00  0.00    +0.000 HD
BRANCH  17  20
ATOM     20  C   UNL     1       2.969  -0.969   3.788  0.00  0.00    +0.000 A 
ATOM     21  C   UNL     1       2.236  -0.947   4.967  0.00  0.00    +0.000 A 
ATOM     22  S   UNL     1       2.973  -1.809   6.238  0.00  0.00    +0.000 S 
ATOM     23  C   UNL     1       4.304  -2.216   5.259  0.00  0.00    +0.000 A 
ATOM     24  N   UNL     1       5.361  -2.908   5.762  0.00  0.00    +0.000 NA
ATOM     25  C   UNL     1       6.314  -3.115   4.917  0.00  0.00    +0.000 A 
ATOM     26  N   UNL     1       6.297  -2.712   3.603  0.00  0.00    +0.000 N 
ATOM     27  C   UNL     1       5.227  -2.064   3.035  0.00  0.00    +0.000 A 
ATOM     28  O   UNL     1       5.191  -1.803   1.841  0.00  0.00    +0.000 OA
ATOM     29  C   UNL     1       4.159  -1.751   3.966  0.00  0.00    +0.000 A 
ATOM     30  H   UNL     1       7.060  -2.943   2.984  0.00  0.00    +0.000 HD
ENDBRANCH  17  20
ENDBRANCH   2  16
TORSDOF 5
