REMARK  Name = 
REMARK  8 active torsions:
REMARK  status: ('A' for Active; 'I' for Inactive)
REMARK    1  A    between atoms: C_1  and  O_2
REMARK    2  A    between atoms: O_2  and  C_3
REMARK    3  A    between atoms: C_10  and  C_11
REMARK    4  A    between atoms: N_13  and  C_14
REMARK    5  A    between atoms: C_14  and  C_15
REMARK    6  A    between atoms: C_18  and  N_19
REMARK    7  A    between atoms: N_19  and  C_20
REMARK    8  A    between atoms: C_20  and  C_21
REMARK                            x       y       z     vdW  Elec       q    Type
REMARK                         _______ _______ _______ _____ _____    ______ ____
ROOT
ATOM      1  C   UNL     1       2.685   3.330  -0.475  0.00  0.00    +0.000 C 
ENDROOT
BRANCH   1   2
ATOM      2  C   UNL     1       1.456   2.976  -1.272  0.00  0.00    +0.000 A 
ATOM      3  C   UNL     1       1.287   1.689  -1.797  0.00  0.00    +0.000 A 
ATOM      4  C   UNL     1       0.075   1.314  -2.393  0.00  0.00    +0.000 A 
ATOM      5  C   UNL     1      -0.992   2.213  -2.476  0.00  0.00    +0.000 A 
ATOM      6  C   UNL     1      -0.762   3.538  -2.089  0.00  0.00    +0.000 A 
ATOM      7  C   UNL     1       0.441   3.916  -1.479  0.00  0.00    +0.000 A 
BRANCH   5   8
ATOM      8  N   UNL     1      -2.265   1.877  -2.941  0.00  0.00    +0.000 N 
ATOM      9  H   UNL     1      -2.441   2.242  -3.874  0.00  0.00    +0.000 HD
BRANCH   8  10
ATOM     10  C   UNL     1      -2.743   0.511  -2.764  0.00  0.00    +0.000 C 
BRANCH  10  11
ATOM     11  C   UNL     1      -4.250   0.511  -2.621  0.00  0.00    +0.000 A 
ATOM     12  C   UNL     1      -4.865   1.265  -1.604  0.00  0.00    +0.000 A 
ATOM     13  C   UNL     1      -6.251   1.237  -1.424  0.00  0.00    +0.000 A 
ATOM     14  C   UNL     1      -7.042   0.451  -2.258  0.00  0.00    +0.000 A 
ATOM     15  C   UNL     1      -6.438  -0.301  -3.259  0.00  0.00    +0.000 A 
ATOM     16  F   UNL     1      -7.198  -1.067  -4.053  0.00  0.00    +0.000 F 
ATOM     17  C   UNL     1      -5.057  -0.282  -3.446  0.00  0.00    +0.000 A 
ENDBRANCH  10  11
ENDBRANCH   8  10
ENDBRANCH   5   8
ENDBRANCH   1   2
BRANCH   1  20
ATOM     18  C   UNL     1       4.929   4.281  -0.771  0.00  0.00    +0.000 C 
ATOM     19  O   UNL     1       5.175   4.157   0.427  0.00  0.00    +0.000 OA
ATOM     20  N   UNL     1       3.724   3.892  -1.295  0.00  0.00    +0.000 N 
ATOM     21  H   UNL     1       3.530   4.013  -2.278  0.00  0.00    +0.000 HD
BRANCH  18  29
ATOM     22  C   UNL     1       4.946   4.809  -4.170  0.00  0.00    +0.000 A 
ATOM     23  N   UNL     1       5.182   5.181  -5.442  0.00  0.00    +0.000 NA
ATOM     24  C   UNL     1       6.336   5.801  -5.709  0.00  0.00    +0.000 A 
ATOM     25  N   UNL     1       7.309   6.089  -4.848  0.00  0.00    +0.000 NA
ATOM     26  C   UNL     1       7.026   5.713  -3.589  0.00  0.00    +0.000 A 
ATOM     27  S   UNL     1       8.157   5.991  -2.355  0.00  0.00    +0.000 S 
ATOM     28  C   UNL     1       7.126   5.310  -1.188  0.00  0.00    +0.000 A 
ATOM     29  C   UNL     1       5.912   4.866  -1.700  0.00  0.00    +0.000 A 
ATOM     30  C   UNL     1       5.867   5.086  -3.144  0.00  0.00    +0.000 A 
BRANCH  22  32
ATOM     31  C   UNL     1       3.204   3.486  -5.008  0.00  0.00    +0.000 C 
ATOM     32  O   UNL     1       3.757   4.171  -3.889  0.00  0.00    +0.000 OA
ENDBRANCH  22  32
ENDBRANCH  18  29
ENDBRANCH   1  20
TORSDOF 7
