REMARK  Name = 
REMARK  8 active torsions:
REMARK  status: ('A' for Active; 'I' for Inactive)
REMARK    1  A    between atoms: C_1  and  C_2
REMARK    2  A    between atoms: C_2  and  N_3
REMARK    3  A    between atoms: C_2  and  C_25
REMARK    4  A    between atoms: N_3  and  C_4
REMARK    5  A    between atoms: C_4  and  C_5
REMARK    6  A    between atoms: C_8  and  C_9
REMARK    7  A    between atoms: C_9  and  N_10
REMARK    8  A    between atoms: C_11  and  C_13
REMARK                            x       y       z     vdW  Elec       q    Type
REMARK                         _______ _______ _______ _____ _____    ______ ____
ROOT
ATOM      1  C   UNL     1       2.938  -3.718  -0.425  0.00  0.00    +0.000 C 
ATOM      2  C   UNL     1       2.100  -4.900   0.097  0.00  0.00    +0.000 C 
ATOM      3  C   UNL     1       2.643  -6.244  -0.382  0.00  0.00    +0.000 C 
ATOM      4  C   UNL     1       4.118  -6.442   0.012  0.00  0.00    +0.000 C 
ATOM      5  C   UNL     1       4.969  -5.275  -0.509  0.00  0.00    +0.000 C 
ATOM      6  C   UNL     1       4.424  -3.913  -0.069  0.00  0.00    +0.000 C 
ENDROOT
BRANCH   1   7
ATOM      7  C   UNL     1       2.788  -3.484  -1.945  0.00  0.00    +0.000 C 
BRANCH   7   8
ATOM      8  N   UNL     1       1.410  -3.155  -2.296  0.00  0.00    +0.000 NA
ATOM      9  H   UNL     1       0.792  -3.911  -1.998  0.00  0.00    +0.000 HD
BRANCH   8  11
ATOM     10  C   UNL     1       2.028  -1.864  -4.351  0.00  0.00    +0.000 C 
ATOM     11  C   UNL     1       1.194  -3.000  -3.749  0.00  0.00    +0.000 C 
BRANCH  11  12
ATOM     12  C   UNL     1      -0.294  -2.773  -4.016  0.00  0.00    +0.000 A 
ATOM     13  C   UNL     1      -0.943  -1.657  -3.481  0.00  0.00    +0.000 A 
ATOM     14  C   UNL     1      -2.310  -1.506  -3.683  0.00  0.00    +0.000 A 
ATOM     15  C   UNL     1      -2.998  -2.471  -4.405  0.00  0.00    +0.000 A 
ATOM     16  C   UNL     1      -2.286  -3.551  -4.898  0.00  0.00    +0.000 A 
ATOM     17  N   UNL     1      -0.956  -3.726  -4.721  0.00  0.00    +0.000 NA
ENDBRANCH  11  12
ENDBRANCH   8  11
ENDBRANCH   7   8
ENDBRANCH   1   7
BRANCH   4  18
ATOM     18  C   UNL     1       4.304  -6.592   1.532  0.00  0.00    +0.000 C 
BRANCH  18  19
ATOM     19  N   UNL     1       3.557  -7.712   2.049  0.00  0.00    +0.000 N 
ATOM     20  C   UNL     1       2.930  -7.676   3.268  0.00  0.00    +0.000 C 
ATOM     21  O   UNL     1       2.919  -6.673   3.977  0.00  0.00    +0.000 OA
ATOM     22  H   UNL     1       3.697  -8.605   1.588  0.00  0.00    +0.000 HD
BRANCH  20  23
ATOM     23  C   UNL     1       2.218  -8.894   3.662  0.00  0.00    +0.000 A 
ATOM     24  C   UNL     1       1.188  -8.814   4.590  0.00  0.00    +0.000 A 
ATOM     25  S   UNL     1       0.463 -10.317   4.934  0.00  0.00    +0.000 S 
ATOM     26  C   UNL     1       1.526 -11.132   3.883  0.00  0.00    +0.000 A 
ATOM     27  N   UNL     1       1.462 -12.482   3.736  0.00  0.00    +0.000 NA
ATOM     28  C   UNL     1       2.344 -12.971   2.930  0.00  0.00    +0.000 A 
ATOM     29  N   UNL     1       3.274 -12.233   2.249  0.00  0.00    +0.000 N 
ATOM     30  C   UNL     1       3.344 -10.863   2.327  0.00  0.00    +0.000 A 
ATOM     31  O   UNL     1       4.132 -10.227   1.632  0.00  0.00    +0.000 OA
ATOM     32  C   UNL     1       2.399 -10.265   3.252  0.00  0.00    +0.000 A 
ATOM     33  H   UNL     1       3.926 -12.677   1.616  0.00  0.00    +0.000 HD
ENDBRANCH  20  23
ENDBRANCH  18  19
ENDBRANCH   4  18
TORSDOF 7
