REMARK  Name = 
REMARK  4 active torsions:
REMARK  status: ('A' for Active; 'I' for Inactive)
REMARK    1  A    between atoms: C_2  and  C_4
REMARK    2  A    between atoms: N_8  and  C_9
REMARK    3  A    between atoms: C_9  and  C_10
REMARK    4  A    between atoms: C_10  and  C_11
REMARK                            x       y       z     vdW  Elec       q    Type
REMARK                         _______ _______ _______ _____ _____    ______ ____
ROOT
ATOM      1  C   UNL     1       2.773   1.471   0.601  0.00  0.00    +0.000 A 
ATOM      2  C   UNL     1       4.065   1.576   0.099  0.00  0.00    +0.000 A 
ATOM      3  C   UNL     1       4.877   2.627   0.533  0.00  0.00    +0.000 A 
ATOM      4  C   UNL     1       4.405   3.518   1.499  0.00  0.00    +0.000 A 
ATOM      5  N   UNL     1       5.252   4.563   1.911  0.00  0.00    +0.000 N 
ATOM      6  N   UNL     1       3.144   3.437   1.967  0.00  0.00    +0.000 NA
ATOM      7  C   UNL     1       2.349   2.439   1.500  0.00  0.00    +0.000 A 
ATOM      8  H   UNL     1       6.217   4.249   1.889  0.00  0.00    +0.000 HD
ENDROOT
BRANCH   1  10
ATOM      9  N   UNL     1       2.378  -0.799  -0.168  0.00  0.00    +0.000 N 
ATOM     10  C   UNL     1       1.836   0.400   0.205  0.00  0.00    +0.000 C 
ATOM     11  O   UNL     1       0.625   0.561   0.249  0.00  0.00    +0.000 OA
ATOM     12  H   UNL     1       1.722  -1.555  -0.324  0.00  0.00    +0.000 HD
ATOM     13  H   UNL     1       3.335  -1.050   0.038  0.00  0.00    +0.000 HD
ENDBRANCH   1  10
BRANCH   5  14
ATOM     14  C   UNL     1       4.906   5.115   3.229  0.00  0.00    +0.000 C 
BRANCH  14  15
ATOM     15  C   UNL     1       5.927   6.196   3.609  0.00  0.00    +0.000 C 
BRANCH  15  16
ATOM     16  C   UNL     1       5.692   6.785   4.979  0.00  0.00    +0.000 A 
ATOM     17  C   UNL     1       6.287   6.220   6.114  0.00  0.00    +0.000 A 
ATOM     18  C   UNL     1       6.086   6.787   7.376  0.00  0.00    +0.000 A 
ATOM     19  C   UNL     1       5.283   7.919   7.513  0.00  0.00    +0.000 A 
ATOM     20  C   UNL     1       4.676   8.478   6.393  0.00  0.00    +0.000 A 
ATOM     21  C   UNL     1       4.874   7.915   5.131  0.00  0.00    +0.000 A 
ENDBRANCH  15  16
ENDBRANCH  14  15
ENDBRANCH   5  14
TORSDOF 4
