REMARK  Name = 
REMARK  6 active torsions:
REMARK  status: ('A' for Active; 'I' for Inactive)
REMARK    1  A    between atoms: C_2  and  C_25
REMARK    2  A    between atoms: N_3  and  C_4
REMARK    3  A    between atoms: C_4  and  C_5
REMARK    4  A    between atoms: C_8  and  C_9
REMARK    5  A    between atoms: C_9  and  N_10
REMARK    6  A    between atoms: C_11  and  C_13
REMARK                            x       y       z     vdW  Elec       q    Type
REMARK                         _______ _______ _______ _____ _____    ______ ____
ROOT
ATOM      1  C   UNL     1       3.232  -1.206   3.457  0.00  0.00    +0.000 A 
ATOM      2  C   UNL     1       3.912  -0.205   4.165  0.00  0.00    +0.000 A 
ATOM      3  C   UNL     1       4.756  -0.528   5.239  0.00  0.00    +0.000 A 
ATOM      4  C   UNL     1       4.953  -1.864   5.620  0.00  0.00    +0.000 A 
ATOM      5  C   UNL     1       4.264  -2.861   4.913  0.00  0.00    +0.000 A 
ATOM      6  C   UNL     1       3.426  -2.539   3.837  0.00  0.00    +0.000 A 
ENDROOT
BRANCH   1   7
ATOM      7  C   UNL     1       2.306  -0.843   2.324  0.00  0.00    +0.000 C 
BRANCH   7  10
ATOM      8  O   UNL     1       1.079  -0.197  -0.087  0.00  0.00    +0.000 OA
ATOM      9  C   UNL     1       2.279  -0.450  -0.087  0.00  0.00    +0.000 C 
ATOM     10  N   UNL     1       2.984  -0.793   1.048  0.00  0.00    +0.000 N 
ATOM     11  H   UNL     1       3.995  -0.796   1.041  0.00  0.00    +0.000 HD
BRANCH   9  12
ATOM     12  C   UNL     1       3.052  -0.359  -1.351  0.00  0.00    +0.000 A 
ATOM     13  C   UNL     1       2.637   0.553  -2.322  0.00  0.00    +0.000 A 
ATOM     14  C   UNL     1       3.358   0.619  -3.499  0.00  0.00    +0.000 A 
ATOM     15  N   UNL     1       4.430  -0.159  -3.763  0.00  0.00    +0.000 NA
ATOM     16  C   UNL     1       4.792  -1.051  -2.816  0.00  0.00    +0.000 A 
ATOM     17  C   UNL     1       4.143  -1.190  -1.602  0.00  0.00    +0.000 A 
ENDBRANCH   9  12
ENDBRANCH   7  10
ENDBRANCH   1   7
BRANCH   4  18
ATOM     18  C   UNL     1       5.869  -2.249   6.762  0.00  0.00    +0.000 C 
BRANCH  18  19
ATOM     19  N   UNL     1       5.171  -2.311   8.022  0.00  0.00    +0.000 N 
ATOM     20  C   UNL     1       5.811  -2.628   9.201  0.00  0.00    +0.000 C 
ATOM     21  O   UNL     1       7.013  -2.851   9.261  0.00  0.00    +0.000 OA
ATOM     22  H   UNL     1       4.175  -2.495   7.967  0.00  0.00    +0.000 HD
BRANCH  20  23
ATOM     23  C   UNL     1       4.961  -2.626  10.404  0.00  0.00    +0.000 A 
ATOM     24  C   UNL     1       5.506  -2.342  11.650  0.00  0.00    +0.000 A 
ATOM     25  S   UNL     1       4.356  -2.355  12.914  0.00  0.00    +0.000 S 
ATOM     26  C   UNL     1       3.102  -2.784  11.850  0.00  0.00    +0.000 A 
ATOM     27  N   UNL     1       1.832  -2.993  12.298  0.00  0.00    +0.000 NA
ATOM     28  C   UNL     1       0.990  -3.331  11.379  0.00  0.00    +0.000 A 
ATOM     29  N   UNL     1       1.297  -3.470  10.051  0.00  0.00    +0.000 N 
ATOM     30  C   UNL     1       2.552  -3.233   9.550  0.00  0.00    +0.000 A 
ATOM     31  O   UNL     1       2.777  -3.307   8.346  0.00  0.00    +0.000 OA
ATOM     32  C   UNL     1       3.546  -2.882  10.542  0.00  0.00    +0.000 A 
ATOM     33  H   UNL     1       0.589  -3.716   9.374  0.00  0.00    +0.000 HD
ENDBRANCH  20  23
ENDBRANCH  18  19
ENDBRANCH   4  18
TORSDOF 6
