REMARK  Name = 
REMARK  9 active torsions:
REMARK  status: ('A' for Active; 'I' for Inactive)
REMARK    1  A    between atoms: C_1  and  C_2
REMARK    2  A    between atoms: C_2  and  O_3
REMARK    3  A    between atoms: O_3  and  C_4
REMARK    4  A    between atoms: C_8  and  C_9
REMARK    5  A    between atoms: C_9  and  C_10
REMARK    6  A    between atoms: C_10  and  N_11
REMARK    7  A    between atoms: N_11  and  C_12
REMARK    8  A    between atoms: C_15  and  C_16
REMARK    9  A    between atoms: C_23  and  O_24
REMARK                            x       y       z     vdW  Elec       q    Type
REMARK                         _______ _______ _______ _____ _____    ______ ____
ROOT
ATOM      1  C   UNL     1       6.101   1.778  -4.595  0.00  0.00    +0.000 C 
ENDROOT
BRANCH   1   6
ATOM      2  C   UNL     1       4.100  -0.138  -1.911  0.00  0.00    +0.000 A 
ATOM      3  C   UNL     1       4.952  -1.211  -1.679  0.00  0.00    +0.000 A 
ATOM      4  C   UNL     1       6.193  -1.267  -2.318  0.00  0.00    +0.000 A 
ATOM      5  C   UNL     1       6.565  -0.276  -3.224  0.00  0.00    +0.000 A 
ATOM      6  C   UNL     1       5.696   0.778  -3.527  0.00  0.00    +0.000 A 
ATOM      7  C   UNL     1       4.468   0.839  -2.837  0.00  0.00    +0.000 A 
BRANCH   2   8
ATOM      8  O   UNL     1       2.881   0.077  -1.308  0.00  0.00    +0.000 OA
BRANCH   8  10
ATOM      9  C   UNL     1       1.859  -2.029  -0.600  0.00  0.00    +0.000 C 
ATOM     10  C   UNL     1       2.468  -0.700  -0.155  0.00  0.00    +0.000 C 
ATOM     11  C   UNL     1       3.430  -0.726   1.071  0.00  0.00    +0.000 C 
ATOM     12  C   UNL     1       2.585   0.365   1.744  0.00  0.00    +0.000 C 
ATOM     13  C   UNL     1       1.452   0.061   0.755  0.00  0.00    +0.000 C 
BRANCH  12  14
ATOM     14  O   UNL     1       3.114   1.705   1.715  0.00  0.00    +0.000 OA
ATOM     15  H   UNL     1       3.141   1.957   0.774  0.00  0.00    +0.000 HD
ENDBRANCH  12  14
ENDBRANCH   8  10
ENDBRANCH   2   8
ENDBRANCH   1   6
BRANCH   1  16
ATOM     16  C   UNL     1       5.048   2.857  -4.862  0.00  0.00    +0.000 C 
BRANCH  16  17
ATOM     17  N   UNL     1       5.409   3.759  -5.957  0.00  0.00    +0.000 N 
ATOM     18  H   UNL     1       5.674   3.251  -6.804  0.00  0.00    +0.000 HD
BRANCH  17  19
ATOM     19  C   UNL     1       4.451   4.754  -6.242  0.00  0.00    +0.000 A 
ATOM     20  C   UNL     1       3.639   5.334  -5.259  0.00  0.00    +0.000 A 
ATOM     21  C   UNL     1       2.743   6.350  -5.575  0.00  0.00    +0.000 A 
ATOM     22  C   UNL     1       2.704   6.800  -6.881  0.00  0.00    +0.000 A 
ATOM     23  N   UNL     1       3.496   6.315  -7.876  0.00  0.00    +0.000 NA
ATOM     24  C   UNL     1       4.354   5.323  -7.519  0.00  0.00    +0.000 A 
BRANCH  22  25
ATOM     25  C   UNL     1       1.757   7.901  -7.245  0.00  0.00    +0.000 C 
ATOM     26  N   UNL     1       1.798   8.303  -8.549  0.00  0.00    +0.000 N 
ATOM     27  O   UNL     1       0.994   8.415  -6.434  0.00  0.00    +0.000 OA
ATOM     28  H   UNL     1       2.458   7.869  -9.179  0.00  0.00    +0.000 HD
ATOM     29  H   UNL     1       1.206   9.062  -8.856  0.00  0.00    +0.000 HD
ENDBRANCH  22  25
ENDBRANCH  17  19
ENDBRANCH  16  17
ENDBRANCH   1  16
TORSDOF 8
