REMARK  Name = 
REMARK  6 active torsions:
REMARK  status: ('A' for Active; 'I' for Inactive)
REMARK    1  A    between atoms: N_1  and  C_2
REMARK    2  A    between atoms: C_2  and  C_3
REMARK    3  A    between atoms: C_3  and  C_4
REMARK    4  A    between atoms: C_4  and  C_5
REMARK    5  A    between atoms: N_7  and  C_8
REMARK    6  A    between atoms: C_8  and  C_9
REMARK                            x       y       z     vdW  Elec       q    Type
REMARK                         _______ _______ _______ _____ _____    ______ ____
ROOT
ATOM      1  C   UNL     1       4.983  -1.996   1.937  0.00  0.00    +0.000 A 
ATOM      2  C   UNL     1       5.645  -1.777   3.129  0.00  0.00    +0.000 A 
ATOM      3  N   UNL     1       5.815  -2.981   3.766  0.00  0.00    +0.000 N 
ATOM      4  C   UNL     1       5.270  -3.997   3.007  0.00  0.00    +0.000 A 
ATOM      5  C   UNL     1       5.183  -5.379   3.242  0.00  0.00    +0.000 A 
ATOM      6  C   UNL     1       4.550  -6.173   2.283  0.00  0.00    +0.000 A 
ATOM      7  C   UNL     1       4.028  -5.612   1.121  0.00  0.00    +0.000 A 
ATOM      8  C   UNL     1       4.126  -4.236   0.893  0.00  0.00    +0.000 A 
ATOM      9  C   UNL     1       4.751  -3.407   1.849  0.00  0.00    +0.000 A 
ENDROOT
BRANCH   1  10
ATOM     10  C   UNL     1       4.553  -0.945   0.962  0.00  0.00    +0.000 C 
BRANCH  10  11
ATOM     11  C   UNL     1       5.725  -0.188   0.334  0.00  0.00    +0.000 C 
BRANCH  11  12
ATOM     12  C   UNL     1       5.219   0.878  -0.636  0.00  0.00    +0.000 C 
BRANCH  12  13
ATOM     13  N   UNL     1       6.337   1.616  -1.213  0.00  0.00    +0.000 NA
ATOM     14  H   UNL     1       5.988   2.269  -1.913  0.00  0.00    +0.000 HD
ATOM     15  H   UNL     1       6.957   0.973  -1.705  0.00  0.00    +0.000 HD
ENDBRANCH  12  13
ENDBRANCH  11  12
ENDBRANCH  10  11
ENDBRANCH   1  10
BRANCH   3  16
ATOM     16  C   UNL     1       6.392  -3.127   5.096  0.00  0.00    +0.000 C 
BRANCH  16  17
ATOM     17  C   UNL     1       7.848  -3.490   5.036  0.00  0.00    +0.000 A 
ATOM     18  C   UNL     1       8.791  -2.603   4.522  0.00  0.00    +0.000 A 
ATOM     19  N   UNL     1      10.115  -2.884   4.463  0.00  0.00    +0.000 NA
ATOM     20  C   UNL     1      10.467  -4.100   4.932  0.00  0.00    +0.000 A 
ATOM     21  C   UNL     1       9.544  -4.987   5.455  0.00  0.00    +0.000 A 
ATOM     22  N   UNL     1       8.223  -4.703   5.527  0.00  0.00    +0.000 NA
ENDBRANCH  16  17
ENDBRANCH   3  16
TORSDOF 6
