REMARK  Name = 
REMARK  5 active torsions:
REMARK  status: ('A' for Active; 'I' for Inactive)
REMARK    1  A    between atoms: C_2  and  C_4
REMARK    2  A    between atoms: C_7  and  O_8
REMARK    3  A    between atoms: O_8  and  C_9
REMARK    4  A    between atoms: C_9  and  C_10
REMARK    5  A    between atoms: C_14  and  C_15
REMARK                            x       y       z     vdW  Elec       q    Type
REMARK                         _______ _______ _______ _____ _____    ______ ____
ROOT
ATOM      1  C   UNL     1       5.390  -4.707   2.951  0.00  0.00    +0.000 C 
ENDROOT
BRANCH   1   2
ATOM      2  C   UNL     1       6.383  -5.276   3.938  0.00  0.00    +0.000 A 
ATOM      3  C   UNL     1       7.230  -4.408   4.635  0.00  0.00    +0.000 A 
ATOM      4  C   UNL     1       8.081  -4.901   5.617  0.00  0.00    +0.000 A 
ATOM      5  C   UNL     1       8.109  -6.268   5.898  0.00  0.00    +0.000 A 
ATOM      6  C   UNL     1       7.316  -7.176   5.182  0.00  0.00    +0.000 A 
ATOM      7  C   UNL     1       6.422  -6.648   4.234  0.00  0.00    +0.000 A 
BRANCH   6   8
ATOM      8  C   UNL     1       7.353  -8.688   5.405  0.00  0.00    +0.000 C 
ATOM      9  C   UNL     1       8.354  -9.194   6.461  0.00  0.00    +0.000 C 
ATOM     10  C   UNL     1       9.801  -9.146   5.963  0.00  0.00    +0.000 C 
ATOM     11  N   UNL     1       9.981  -9.896   4.718  0.00  0.00    +0.000 NA
ATOM     12  C   UNL     1       9.079  -9.411   3.671  0.00  0.00    +0.000 C 
ATOM     13  C   UNL     1       7.613  -9.476   4.102  0.00  0.00    +0.000 C 
ATOM     14  H   UNL     1       9.789 -10.883   4.893  0.00  0.00    +0.000 HD
ENDBRANCH   6   8
ENDBRANCH   1   2
BRANCH   1  15
ATOM     15  O   UNL     1       5.092  -5.660   1.927  0.00  0.00    +0.000 OA
BRANCH  15  19
ATOM     16  C   UNL     1       2.439  -4.243  -0.878  0.00  0.00    +0.000 A 
ATOM     17  C   UNL     1       2.949  -5.537  -1.001  0.00  0.00    +0.000 A 
ATOM     18  C   UNL     1       3.844  -6.008  -0.038  0.00  0.00    +0.000 A 
ATOM     19  C   UNL     1       4.190  -5.168   1.009  0.00  0.00    +0.000 A 
ATOM     20  N   UNL     1       3.706  -3.916   1.158  0.00  0.00    +0.000 NA
ATOM     21  C   UNL     1       2.849  -3.478   0.205  0.00  0.00    +0.000 A 
BRANCH  16  23
ATOM     22  N   UNL     1       0.732  -4.467  -2.597  0.00  0.00    +0.000 N 
ATOM     23  C   UNL     1       1.519  -3.630  -1.855  0.00  0.00    +0.000 C 
ATOM     24  O   UNL     1       1.436  -2.414  -1.979  0.00  0.00    +0.000 OA
ATOM     25  H   UNL     1       0.041  -4.019  -3.186  0.00  0.00    +0.000 HD
ATOM     26  H   UNL     1       0.589  -5.437  -2.360  0.00  0.00    +0.000 HD
ENDBRANCH  16  23
ENDBRANCH  15  19
ENDBRANCH   1  15
TORSDOF 5
