REMARK  Name = 
REMARK  6 active torsions:
REMARK  status: ('A' for Active; 'I' for Inactive)
REMARK    1  A    between atoms: C_2  and  C_3
REMARK    2  A    between atoms: C_7  and  C_8
REMARK    3  A    between atoms: C_12  and  C_13
REMARK    4  A    between atoms: C_13  and  N_14
REMARK    5  A    between atoms: N_14  and  C_15
REMARK    6  A    between atoms: C_18  and  C_19
REMARK                            x       y       z     vdW  Elec       q    Type
REMARK                         _______ _______ _______ _____ _____    ______ ____
ROOT
ATOM      1  C   UNL     1      -5.161   4.118   1.813  0.00  0.00    +0.000 C 
ATOM      2  C   UNL     1      -6.592   4.005   1.308  0.00  0.00    +0.000 C 
ATOM      3  C   UNL     1      -6.090   5.318   1.811  0.00  0.00    +0.000 C 
ENDROOT
BRANCH   1   8
ATOM      4  C   UNL     1      -2.110   4.989  -0.391  0.00  0.00    +0.000 A 
ATOM      5  C   UNL     1      -1.999   3.822  -1.160  0.00  0.00    +0.000 A 
ATOM      6  C   UNL     1      -2.896   2.764  -0.993  0.00  0.00    +0.000 A 
ATOM      7  C   UNL     1      -3.913   2.848  -0.040  0.00  0.00    +0.000 A 
ATOM      8  C   UNL     1      -4.070   3.996   0.754  0.00  0.00    +0.000 A 
ATOM      9  C   UNL     1      -3.163   5.047   0.541  0.00  0.00    +0.000 A 
BRANCH   4  14
ATOM     10  C   UNL     1       0.028   8.020   0.425  0.00  0.00    +0.000 A 
ATOM     11  C   UNL     1       0.538   8.278  -0.834  0.00  0.00    +0.000 A 
ATOM     12  N   UNL     1       0.247   7.533  -1.924  0.00  0.00    +0.000 NA
ATOM     13  C   UNL     1      -0.599   6.487  -1.745  0.00  0.00    +0.000 A 
ATOM     14  C   UNL     1      -1.175   6.123  -0.525  0.00  0.00    +0.000 A 
ATOM     15  C   UNL     1      -0.824   6.925   0.577  0.00  0.00    +0.000 A 
BRANCH  10  17
ATOM     16  N   UNL     1       0.605   9.548   2.432  0.00  0.00    +0.000 NA
ATOM     17  C   UNL     1       0.357   8.861   1.530  0.00  0.00    +0.000 C 
ENDBRANCH  10  17
ENDBRANCH   4  14
ENDBRANCH   1   8
BRANCH   1  18
ATOM     18  N   UNL     1      -4.829   3.472   3.100  0.00  0.00    +0.000 N 
ATOM     19  H   UNL     1      -4.672   2.468   3.041  0.00  0.00    +0.000 HD
BRANCH  18  20
ATOM     20  C   UNL     1      -4.041   4.072   4.108  0.00  0.00    +0.000 A 
ATOM     21  C   UNL     1      -3.716   5.430   4.153  0.00  0.00    +0.000 A 
ATOM     22  C   UNL     1      -3.008   5.960   5.237  0.00  0.00    +0.000 A 
ATOM     23  C   UNL     1      -2.667   5.109   6.278  0.00  0.00    +0.000 A 
ATOM     24  N   UNL     1      -2.982   3.786   6.302  0.00  0.00    +0.000 NA
ATOM     25  C   UNL     1      -3.665   3.320   5.228  0.00  0.00    +0.000 A 
BRANCH  23  26
ATOM     26  C   UNL     1      -1.930   5.636   7.472  0.00  0.00    +0.000 C 
ATOM     27  N   UNL     1      -1.670   4.709   8.447  0.00  0.00    +0.000 N 
ATOM     28  O   UNL     1      -1.586   6.805   7.580  0.00  0.00    +0.000 OA
ATOM     29  H   UNL     1      -1.986   3.754   8.318  0.00  0.00    +0.000 HD
ATOM     30  H   UNL     1      -1.184   4.984   9.287  0.00  0.00    +0.000 HD
ENDBRANCH  23  26
ENDBRANCH  18  20
ENDBRANCH   1  18
TORSDOF 6
