REMARK  Name = 
REMARK  6 active torsions:
REMARK  status: ('A' for Active; 'I' for Inactive)
REMARK    1  A    between atoms: C_1  and  C_2
REMARK    2  A    between atoms: C_2  and  N_3
REMARK    3  A    between atoms: C_2  and  C_16
REMARK    4  A    between atoms: C_4  and  C_6
REMARK    5  A    between atoms: C_19  and  O_20
REMARK    6  A    between atoms: O_20  and  C_21
REMARK                            x       y       z     vdW  Elec       q    Type
REMARK                         _______ _______ _______ _____ _____    ______ ____
ROOT
ATOM      1  C   UNL     1       0.932  -0.036  -0.086  0.00  0.00    +0.000 C 
ATOM      2  C   UNL     1       2.462   0.005  -0.076  0.00  0.00    +0.000 C 
ENDROOT
BRANCH   2   3
ATOM      3  C   UNL     1       2.944   1.201  -0.884  0.00  0.00    +0.000 A 
ATOM      4  C   UNL     1       3.094   2.430  -0.223  0.00  0.00    +0.000 A 
ATOM      5  C   UNL     1       3.451   3.585  -0.919  0.00  0.00    +0.000 A 
ATOM      6  C   UNL     1       3.740   3.522  -2.282  0.00  0.00    +0.000 A 
ATOM      7  C   UNL     1       3.570   2.317  -2.960  0.00  0.00    +0.000 A 
ATOM      8  C   UNL     1       3.162   1.168  -2.272  0.00  0.00    +0.000 A 
BRANCH   6   9
ATOM      9  O   UNL     1       4.125   4.601  -3.048  0.00  0.00    +0.000 OA
BRANCH   9  10
ATOM     10  C   UNL     1       4.859   5.620  -2.486  0.00  0.00    +0.000 A 
ATOM     11  C   UNL     1       5.818   5.437  -1.486  0.00  0.00    +0.000 A 
ATOM     12  C   UNL     1       6.491   6.536  -0.950  0.00  0.00    +0.000 A 
ATOM     13  C   UNL     1       6.256   7.812  -1.458  0.00  0.00    +0.000 A 
ATOM     14  C   UNL     1       5.352   7.990  -2.504  0.00  0.00    +0.000 A 
ATOM     15  C   UNL     1       4.652   6.896  -3.017  0.00  0.00    +0.000 A 
ENDBRANCH   9  10
ENDBRANCH   6   9
ENDBRANCH   2   3
BRANCH   2  16
ATOM     16  N   UNL     1       3.020  -1.258  -0.520  0.00  0.00    +0.000 N 
ATOM     17  C   UNL     1       3.122  -2.345   0.311  0.00  0.00    +0.000 C 
ATOM     18  O   UNL     1       2.800  -2.294   1.495  0.00  0.00    +0.000 OA
ATOM     19  H   UNL     1       3.357  -1.328  -1.472  0.00  0.00    +0.000 HD
BRANCH  17  20
ATOM     20  C   UNL     1       3.585  -3.600  -0.297  0.00  0.00    +0.000 A 
ATOM     21  C   UNL     1       3.307  -4.807   0.330  0.00  0.00    +0.000 A 
ATOM     22  S   UNL     1       3.897  -6.169  -0.510  0.00  0.00    +0.000 S 
ATOM     23  C   UNL     1       4.587  -5.191  -1.718  0.00  0.00    +0.000 A 
ATOM     24  N   UNL     1       5.289  -5.743  -2.745  0.00  0.00    +0.000 NA
ATOM     25  C   UNL     1       5.796  -4.883  -3.566  0.00  0.00    +0.000 A 
ATOM     26  N   UNL     1       5.652  -3.526  -3.461  0.00  0.00    +0.000 N 
ATOM     27  C   UNL     1       4.886  -2.931  -2.489  0.00  0.00    +0.000 A 
ATOM     28  O   UNL     1       4.662  -1.727  -2.511  0.00  0.00    +0.000 OA
ATOM     29  C   UNL     1       4.342  -3.846  -1.503  0.00  0.00    +0.000 A 
ATOM     30  H   UNL     1       6.047  -2.908  -4.157  0.00  0.00    +0.000 HD
ENDBRANCH  17  20
ENDBRANCH   2  16
TORSDOF 5
