REMARK  Name = 
REMARK  10 active torsions:
REMARK  status: ('A' for Active; 'I' for Inactive)
REMARK    1  A    between atoms: C_1  and  O_2
REMARK    2  A    between atoms: O_2  and  C_3
REMARK    3  A    between atoms: C_10  and  C_11
REMARK    4  A    between atoms: N_13  and  C_14
REMARK    5  A    between atoms: C_14  and  C_15
REMARK    6  A    between atoms: C_18  and  C_19
REMARK    7  A    between atoms: C_19  and  N_20
REMARK    8  A    between atoms: N_20  and  C_21
REMARK    9  A    between atoms: C_21  and  C_22
REMARK   10  A    between atoms: C_25  and  C_26
REMARK                            x       y       z     vdW  Elec       q    Type
REMARK                         _______ _______ _______ _____ _____    ______ ____
ROOT
ATOM      1  C   UNL     1       1.905   1.451   3.052  0.00  0.00    +0.000 A 
ATOM      2  C   UNL     1       0.570   1.068   2.856  0.00  0.00    +0.000 A 
ATOM      3  C   UNL     1      -0.419   2.025   2.591  0.00  0.00    +0.000 A 
ATOM      4  C   UNL     1      -0.099   3.390   2.519  0.00  0.00    +0.000 A 
ATOM      5  C   UNL     1       1.239   3.768   2.708  0.00  0.00    +0.000 A 
ATOM      6  C   UNL     1       2.229   2.811   2.963  0.00  0.00    +0.000 A 
ENDROOT
BRANCH   1   7
ATOM      7  C   UNL     1       2.976   0.419   3.308  0.00  0.00    +0.000 C 
BRANCH   7  10
ATOM      8  C   UNL     1       4.539  -0.999   2.039  0.00  0.00    +0.000 C 
ATOM      9  O   UNL     1       4.970  -1.506   3.074  0.00  0.00    +0.000 OA
ATOM     10  N   UNL     1       3.562  -0.044   2.072  0.00  0.00    +0.000 N 
ATOM     11  H   UNL     1       3.259   0.403   1.217  0.00  0.00    +0.000 HD
BRANCH   8  19
ATOM     12  C   UNL     1       3.733  -0.124  -1.192  0.00  0.00    +0.000 A 
ATOM     13  N   UNL     1       3.635   0.045  -2.525  0.00  0.00    +0.000 NA
ATOM     14  C   UNL     1       4.453  -0.658  -3.311  0.00  0.00    +0.000 A 
ATOM     15  N   UNL     1       5.380  -1.529  -2.922  0.00  0.00    +0.000 NA
ATOM     16  C   UNL     1       5.453  -1.659  -1.586  0.00  0.00    +0.000 A 
ATOM     17  S   UNL     1       6.581  -2.733  -0.911  0.00  0.00    +0.000 S 
ATOM     18  C   UNL     1       6.077  -2.349   0.666  0.00  0.00    +0.000 A 
ATOM     19  C   UNL     1       5.057  -1.406   0.719  0.00  0.00    +0.000 A 
ATOM     20  C   UNL     1       4.684  -0.997  -0.634  0.00  0.00    +0.000 A 
BRANCH  12  22
ATOM     21  C   UNL     1       1.671   0.946  -1.043  0.00  0.00    +0.000 C 
ATOM     22  O   UNL     1       2.895   0.620  -0.388  0.00  0.00    +0.000 OA
ENDBRANCH  12  22
ENDBRANCH   8  19
ENDBRANCH   7  10
ENDBRANCH   1   7
BRANCH   4  23
ATOM     23  C   UNL     1      -1.161   4.433   2.221  0.00  0.00    +0.000 C 
BRANCH  23  24
ATOM     24  N   UNL     1      -2.218   4.419   3.232  0.00  0.00    +0.000 NA
ATOM     25  H   UNL     1      -1.800   4.629   4.139  0.00  0.00    +0.000 HD
BRANCH  24  26
ATOM     26  C   UNL     1      -3.247   5.438   2.971  0.00  0.00    +0.000 C 
BRANCH  26  27
ATOM     27  C   UNL     1      -4.341   5.420   4.029  0.00  0.00    +0.000 A 
ATOM     28  C   UNL     1      -5.092   4.264   4.240  0.00  0.00    +0.000 A 
ATOM     29  C   UNL     1      -6.068   4.259   5.234  0.00  0.00    +0.000 A 
ATOM     30  C   UNL     1      -6.289   5.406   5.993  0.00  0.00    +0.000 A 
ATOM     31  C   UNL     1      -7.327   5.451   7.068  0.00  0.00    +0.000 C 
ATOM     32  C   UNL     1      -5.503   6.517   5.709  0.00  0.00    +0.000 A 
ATOM     33  N   UNL     1      -4.539   6.550   4.755  0.00  0.00    +0.000 NA
ENDBRANCH  26  27
ENDBRANCH  24  26
ENDBRANCH  23  24
ENDBRANCH   4  23
TORSDOF 8
