REMARK  Name = 
REMARK  8 active torsions:
REMARK  status: ('A' for Active; 'I' for Inactive)
REMARK    1  A    between atoms: C_2  and  C_21
REMARK    2  A    between atoms: N_3  and  C_4
REMARK    3  A    between atoms: C_4  and  C_5
REMARK    4  A    between atoms: C_8  and  C_9
REMARK    5  A    between atoms: C_9  and  C_10
REMARK    6  A    between atoms: C_10  and  O_11
REMARK    7  A    between atoms: C_10  and  C_12
REMARK    8  A    between atoms: C_12  and  C_13
REMARK                            x       y       z     vdW  Elec       q    Type
REMARK                         _______ _______ _______ _____ _____    ______ ____
ROOT
ATOM      1  C   UNL     1      10.486  -7.482   1.432  0.00  0.00    +0.000 A 
ATOM      2  C   UNL     1      10.008  -8.088   0.275  0.00  0.00    +0.000 A 
ATOM      3  C   UNL     1       9.070  -7.429  -0.518  0.00  0.00    +0.000 A 
ATOM      4  C   UNL     1       8.635  -6.153  -0.156  0.00  0.00    +0.000 A 
ATOM      5  N   UNL     1       9.127  -5.512   0.932  0.00  0.00    +0.000 NA
ATOM      6  C   UNL     1      10.029  -6.187   1.699  0.00  0.00    +0.000 A 
ENDROOT
BRANCH   1   7
ATOM      7  C   UNL     1      11.455  -8.190   2.333  0.00  0.00    +0.000 C 
BRANCH   7  10
ATOM      8  O   UNL     1      13.187  -9.695   0.662  0.00  0.00    +0.000 OA
ATOM      9  C   UNL     1      13.573  -8.625   1.123  0.00  0.00    +0.000 C 
ATOM     10  N   UNL     1      12.822  -7.884   1.999  0.00  0.00    +0.000 N 
ATOM     11  H   UNL     1      13.135  -6.951   2.242  0.00  0.00    +0.000 HD
BRANCH   9  12
ATOM     12  C   UNL     1      14.894  -8.073   0.791  0.00  0.00    +0.000 A 
ATOM     13  C   UNL     1      15.915  -8.906   0.354  0.00  0.00    +0.000 A 
ATOM     14  S   UNL     1      17.366  -8.079   0.000  0.00  0.00    +0.000 S 
ATOM     15  C   UNL     1      16.667  -6.574   0.378  0.00  0.00    +0.000 A 
ATOM     16  N   UNL     1      17.371  -5.417   0.245  0.00  0.00    +0.000 NA
ATOM     17  C   UNL     1      16.700  -4.348   0.522  0.00  0.00    +0.000 A 
ATOM     18  N   UNL     1      15.395  -4.331   0.937  0.00  0.00    +0.000 N 
ATOM     19  C   UNL     1      14.676  -5.476   1.172  0.00  0.00    +0.000 A 
ATOM     20  O   UNL     1      13.570  -5.430   1.702  0.00  0.00    +0.000 OA
ATOM     21  C   UNL     1      15.359  -6.705   0.809  0.00  0.00    +0.000 A 
ATOM     22  H   UNL     1      14.939  -3.464   1.181  0.00  0.00    +0.000 HD
ENDBRANCH   9  12
ENDBRANCH   7  10
ENDBRANCH   1   7
BRANCH   4  23
ATOM     23  C   UNL     1       7.601  -5.468  -1.033  0.00  0.00    +0.000 C 
BRANCH  23  24
ATOM     24  C   UNL     1       7.187  -4.017  -0.711  0.00  0.00    +0.000 C 
BRANCH  24  25
ATOM     25  O   UNL     1       8.343  -3.170  -0.782  0.00  0.00    +0.000 OA
ATOM     26  H   UNL     1       9.003  -3.574  -0.184  0.00  0.00    +0.000 HD
ENDBRANCH  24  25
BRANCH  24  27
ATOM     27  C   UNL     1       6.446  -3.831   0.623  0.00  0.00    +0.000 C 
BRANCH  27  28
ATOM     28  C   UNL     1       5.798  -2.462   0.722  0.00  0.00    +0.000 A 
ATOM     29  C   UNL     1       6.499  -1.389   1.273  0.00  0.00    +0.000 A 
ATOM     30  C   UNL     1       5.890  -0.138   1.338  0.00  0.00    +0.000 A 
ATOM     31  C   UNL     1       4.599   0.014   0.849  0.00  0.00    +0.000 A 
ATOM     32  C   UNL     1       3.970  -1.099   0.317  0.00  0.00    +0.000 A 
ATOM     33  N   UNL     1       4.535  -2.328   0.244  0.00  0.00    +0.000 NA
ENDBRANCH  27  28
ENDBRANCH  24  27
ENDBRANCH  23  24
ENDBRANCH   4  23
TORSDOF 8
