REMARK  Name = 
REMARK  5 active torsions:
REMARK  status: ('A' for Active; 'I' for Inactive)
REMARK    1  A    between atoms: C_1  and  C_2
REMARK    2  A    between atoms: C_7  and  C_8
REMARK    3  A    between atoms: C_8  and  N_9
REMARK    4  A    between atoms: N_9  and  C_10
REMARK    5  A    between atoms: C_13  and  C_14
REMARK                            x       y       z     vdW  Elec       q    Type
REMARK                         _______ _______ _______ _____ _____    ______ ____
ROOT
ATOM      1  C   UNL     1       1.551  -2.199  -3.121  0.00  0.00    +0.000 C 
ATOM      2  C   UNL     1       2.509  -1.705  -2.035  0.00  0.00    +0.000 C 
ATOM      3  C   UNL     1       2.240  -0.233  -1.627  0.00  0.00    +0.000 C 
ATOM      4  N   UNL     1       2.807   0.757  -2.554  0.00  0.00    +0.000 N 
ATOM      5  C   UNL     1       1.935   1.499  -3.340  0.00  0.00    +0.000 A 
ATOM      6  C   UNL     1       2.321   2.771  -3.779  0.00  0.00    +0.000 A 
ATOM      7  C   UNL     1       1.446   3.570  -4.526  0.00  0.00    +0.000 A 
ATOM      8  C   UNL     1       0.202   3.040  -4.856  0.00  0.00    +0.000 A 
ATOM      9  C   UNL     1      -0.116   1.780  -4.381  0.00  0.00    +0.000 A 
ATOM     10  N   UNL     1       0.708   1.021  -3.624  0.00  0.00    +0.000 NA
ATOM     11  C   UNL     1       4.142   0.473  -3.098  0.00  0.00    +0.000 C 
ATOM     12  C   UNL     1       4.335  -1.015  -3.461  0.00  0.00    +0.000 C 
ATOM     13  N   UNL     1       3.924  -1.957  -2.402  0.00  0.00    +0.000 NA
ATOM     14  H   UNL     1       4.492  -1.761  -1.578  0.00  0.00    +0.000 HD
ENDROOT
BRANCH   7  15
ATOM     15  C   UNL     1       1.846   4.963  -4.948  0.00  0.00    +0.000 C 
BRANCH  15  16
ATOM     16  N   UNL     1       2.554   4.916  -6.216  0.00  0.00    +0.000 N 
ATOM     17  H   UNL     1       3.187   4.125  -6.298  0.00  0.00    +0.000 HD
BRANCH  16  18
ATOM     18  C   UNL     1       3.075   6.077  -6.796  0.00  0.00    +0.000 A 
ATOM     19  C   UNL     1       2.821   7.370  -6.330  0.00  0.00    +0.000 A 
ATOM     20  C   UNL     1       3.313   8.497  -7.007  0.00  0.00    +0.000 A 
ATOM     21  C   UNL     1       4.047   8.350  -8.187  0.00  0.00    +0.000 A 
ATOM     22  C   UNL     1       4.274   7.069  -8.690  0.00  0.00    +0.000 A 
ATOM     23  C   UNL     1       3.785   5.950  -8.001  0.00  0.00    +0.000 A 
BRANCH  21  24
ATOM     24  C   UNL     1       4.516   9.576  -8.889  0.00  0.00    +0.000 C 
ATOM     25  N   UNL     1       5.599   9.462  -9.716  0.00  0.00    +0.000 N 
ATOM     26  O   UNL     1       3.976  10.661  -8.715  0.00  0.00    +0.000 OA
ATOM     27  H   UNL     1       6.195   8.647  -9.743  0.00  0.00    +0.000 HD
ATOM     28  H   UNL     1       5.957  10.319 -10.114  0.00  0.00    +0.000 HD
ENDBRANCH  21  24
ENDBRANCH  16  18
ENDBRANCH  15  16
ENDBRANCH   7  15
TORSDOF 4
