REMARK  Name = 
REMARK  7 active torsions:
REMARK  status: ('A' for Active; 'I' for Inactive)
REMARK    1  A    between atoms: N_1  and  C_2
REMARK    2  A    between atoms: C_2  and  C_3
REMARK    3  A    between atoms: C_6  and  C_7
REMARK    4  A    between atoms: C_7  and  C_8
REMARK    5  A    between atoms: C_8  and  N_9
REMARK    6  A    between atoms: N_9  and  C_10
REMARK    7  A    between atoms: C_13  and  C_14
REMARK                            x       y       z     vdW  Elec       q    Type
REMARK                         _______ _______ _______ _____ _____    ______ ____
ROOT
ATOM      1  N   UNL     1       3.942  -5.953   5.055  0.00  0.00    +0.000 N 
ATOM      2  H   UNL     1       3.635  -5.608   5.963  0.00  0.00    +0.000 HD
ENDROOT
BRANCH   1   3
ATOM      3  C   UNL     1       3.627  -7.317   4.894  0.00  0.00    +0.000 A 
ATOM      4  C   UNL     1       3.615  -7.952   3.649  0.00  0.00    +0.000 A 
ATOM      5  C   UNL     1       3.389  -9.324   3.548  0.00  0.00    +0.000 A 
ATOM      6  C   UNL     1       3.203 -10.048   4.713  0.00  0.00    +0.000 A 
ATOM      7  N   UNL     1       3.229  -9.496   5.957  0.00  0.00    +0.000 NA
ATOM      8  C   UNL     1       3.456  -8.156   6.004  0.00  0.00    +0.000 A 
BRANCH   6   9
ATOM      9  C   UNL     1       2.990 -11.526   4.622  0.00  0.00    +0.000 C 
ATOM     10  N   UNL     1       2.821 -12.177   5.812  0.00  0.00    +0.000 N 
ATOM     11  O   UNL     1       2.972 -12.130   3.555  0.00  0.00    +0.000 OA
ATOM     12  H   UNL     1       2.865 -11.654   6.679  0.00  0.00    +0.000 HD
ATOM     13  H   UNL     1       2.704 -13.178   5.817  0.00  0.00    +0.000 HD
ENDBRANCH   6   9
ENDBRANCH   1   3
BRANCH   1  14
ATOM     14  C   UNL     1       3.542  -5.058   3.957  0.00  0.00    +0.000 C 
BRANCH  14  15
ATOM     15  C   UNL     1       3.927  -3.607   4.259  0.00  0.00    +0.000 C 
BRANCH  15  19
ATOM     16  C   UNL     1       2.784  -0.910   1.229  0.00  0.00    +0.000 A 
ATOM     17  C   UNL     1       2.084  -2.089   1.453  0.00  0.00    +0.000 A 
ATOM     18  N   UNL     1       2.440  -2.988   2.403  0.00  0.00    +0.000 NA
ATOM     19  C   UNL     1       3.539  -2.681   3.135  0.00  0.00    +0.000 A 
ATOM     20  C   UNL     1       4.242  -1.502   2.906  0.00  0.00    +0.000 A 
ATOM     21  N   UNL     1       3.888  -0.600   1.958  0.00  0.00    +0.000 NA
BRANCH  16  22
ATOM     22  C   UNL     1       2.296   0.079   0.200  0.00  0.00    +0.000 C 
BRANCH  22  23
ATOM     23  N   UNL     1       0.964   0.602   0.523  0.00  0.00    +0.000 NA
ATOM     24  H   UNL     1       0.723   1.328  -0.150  0.00  0.00    +0.000 HD
ATOM     25  H   UNL     1       1.020   1.070   1.429  0.00  0.00    +0.000 HD
ENDBRANCH  22  23
ENDBRANCH  16  22
ENDBRANCH  15  19
ENDBRANCH  14  15
ENDBRANCH   1  14
TORSDOF 7
