REMARK  Name = 
REMARK  9 active torsions:
REMARK  status: ('A' for Active; 'I' for Inactive)
REMARK    1  A    between atoms: C_1  and  C_2
REMARK    2  A    between atoms: C_2  and  C_3
REMARK    3  A    between atoms: C_5  and  O_6
REMARK    4  A    between atoms: O_6  and  C_7
REMARK    5  A    between atoms: C_9  and  C_10
REMARK    6  A    between atoms: C_10  and  C_11
REMARK    7  A    between atoms: C_11  and  N_12
REMARK    8  A    between atoms: N_12  and  C_13
REMARK    9  A    between atoms: C_16  and  C_17
REMARK                            x       y       z     vdW  Elec       q    Type
REMARK                         _______ _______ _______ _____ _____    ______ ____
ROOT
ATOM      1  C   UNL     1      -4.301   0.559   4.678  0.00  0.00    +0.000 C 
ENDROOT
BRANCH   1   4
ATOM      2  C   UNL     1      -3.877   0.677   0.907  0.00  0.00    +0.000 A 
ATOM      3  C   UNL     1      -3.582   0.735   2.263  0.00  0.00    +0.000 A 
ATOM      4  C   UNL     1      -4.615   0.544   3.189  0.00  0.00    +0.000 A 
ATOM      5  C   UNL     1      -5.902   0.329   2.675  0.00  0.00    +0.000 A 
ATOM      6  C   UNL     1      -6.097   0.309   1.304  0.00  0.00    +0.000 A 
ATOM      7  N   UNL     1      -5.112   0.473   0.404  0.00  0.00    +0.000 NA
BRANCH   2   8
ATOM      8  O   UNL     1      -2.824   0.821   0.025  0.00  0.00    +0.000 OA
BRANCH   8  13
ATOM      9  C   UNL     1      -2.814  -1.479  -3.852  0.00  0.00    +0.000 C 
ATOM     10  C   UNL     1      -2.104  -1.352  -2.505  0.00  0.00    +0.000 C 
ATOM     11  C   UNL     1      -0.952  -2.344  -2.382  0.00  0.00    +0.000 C 
ATOM     12  C   UNL     1      -3.059  -1.354  -1.283  0.00  0.00    +0.000 C 
ATOM     13  C   UNL     1      -3.009   0.197  -1.268  0.00  0.00    +0.000 C 
ATOM     14  C   UNL     1      -1.721   0.103  -2.122  0.00  0.00    +0.000 C 
ENDBRANCH   8  13
ENDBRANCH   2   8
ENDBRANCH   1   4
BRANCH   1  15
ATOM     15  C   UNL     1      -5.522   0.296   5.571  0.00  0.00    +0.000 C 
BRANCH  15  16
ATOM     16  N   UNL     1      -5.218   0.320   7.004  0.00  0.00    +0.000 N 
ATOM     17  H   UNL     1      -4.685   1.143   7.281  0.00  0.00    +0.000 HD
BRANCH  16  18
ATOM     18  C   UNL     1      -6.320   0.104   7.862  0.00  0.00    +0.000 A 
ATOM     19  C   UNL     1      -7.402  -0.718   7.519  0.00  0.00    +0.000 A 
ATOM     20  C   UNL     1      -8.432  -0.964   8.425  0.00  0.00    +0.000 A 
ATOM     21  C   UNL     1      -8.342  -0.405   9.686  0.00  0.00    +0.000 A 
ATOM     22  N   UNL     1      -7.306   0.377  10.094  0.00  0.00    +0.000 NA
ATOM     23  C   UNL     1      -6.323   0.586   9.176  0.00  0.00    +0.000 A 
BRANCH  21  24
ATOM     24  C   UNL     1      -9.429  -0.681  10.680  0.00  0.00    +0.000 C 
ATOM     25  N   UNL     1      -9.265  -0.104  11.910  0.00  0.00    +0.000 N 
ATOM     26  O   UNL     1     -10.398  -1.382  10.425  0.00  0.00    +0.000 OA
ATOM     27  H   UNL     1      -8.437   0.447  12.095  0.00  0.00    +0.000 HD
ATOM     28  H   UNL     1      -9.943  -0.283  12.634  0.00  0.00    +0.000 HD
ENDBRANCH  21  24
ENDBRANCH  16  18
ENDBRANCH  15  16
ENDBRANCH   1  15
TORSDOF 7
