REMARK  Name = 
REMARK  6 active torsions:
REMARK  status: ('A' for Active; 'I' for Inactive)
REMARK    1  A    between atoms: C_1  and  O_2
REMARK    2  A    between atoms: O_2  and  C_3
REMARK    3  A    between atoms: N_10  and  C_11
REMARK    4  A    between atoms: C_11  and  C_12
REMARK    5  A    between atoms: C_16  and  C_17
REMARK    6  A    between atoms: C_17  and  N_18
REMARK                            x       y       z     vdW  Elec       q    Type
REMARK                         _______ _______ _______ _____ _____    ______ ____
ROOT
ATOM      1  C   UNL     1       3.019  -1.154   0.516  0.00  0.00    +0.000 A 
ATOM      2  C   UNL     1       2.601  -2.418   0.106  0.00  0.00    +0.000 A 
ATOM      3  C   UNL     1       3.337  -3.566   0.436  0.00  0.00    +0.000 A 
ATOM      4  C   UNL     1       4.505  -3.411   1.202  0.00  0.00    +0.000 A 
ATOM      5  C   UNL     1       4.931  -2.155   1.641  0.00  0.00    +0.000 A 
ATOM      6  C   UNL     1       6.110  -2.347   2.409  0.00  0.00    +0.000 A 
ATOM      7  C   UNL     1       6.389  -3.694   2.416  0.00  0.00    +0.000 A 
ATOM      8  N   UNL     1       5.433  -4.330   1.663  0.00  0.00    +0.000 N 
ATOM      9  C   UNL     1       4.189  -1.016   1.273  0.00  0.00    +0.000 A 
ENDROOT
BRANCH   1  11
ATOM     10  C   UNL     1       0.998  -0.050  -0.048  0.00  0.00    +0.000 C 
ATOM     11  O   UNL     1       2.396   0.026   0.205  0.00  0.00    +0.000 OA
ENDBRANCH   1  11
BRANCH   8  12
ATOM     12  C   UNL     1       5.492  -5.745   1.304  0.00  0.00    +0.000 C 
BRANCH  12  13
ATOM     13  C   UNL     1       4.830  -6.666   2.293  0.00  0.00    +0.000 A 
ATOM     14  C   UNL     1       5.337  -7.950   2.481  0.00  0.00    +0.000 A 
ATOM     15  N   UNL     1       4.772  -8.889   3.271  0.00  0.00    +0.000 NA
ATOM     16  C   UNL     1       3.632  -8.541   3.910  0.00  0.00    +0.000 A 
ATOM     17  C   UNL     1       3.034  -7.290   3.808  0.00  0.00    +0.000 A 
ATOM     18  C   UNL     1       3.649  -6.350   2.975  0.00  0.00    +0.000 A 
BRANCH  17  19
ATOM     19  C   UNL     1       1.791  -6.954   4.579  0.00  0.00    +0.000 C 
BRANCH  19  20
ATOM     20  N   UNL     1       0.659  -7.782   4.180  0.00  0.00    +0.000 NA
ATOM     21  H   UNL     1       0.438  -7.592   3.203  0.00  0.00    +0.000 HD
ATOM     22  H   UNL     1      -0.160  -7.501   4.716  0.00  0.00    +0.000 HD
ENDBRANCH  19  20
ENDBRANCH  17  19
ENDBRANCH  12  13
ENDBRANCH   8  12
TORSDOF 5
