REMARK  Name = 
REMARK  7 active torsions:
REMARK  status: ('A' for Active; 'I' for Inactive)
REMARK    1  A    between atoms: C_1  and  C_2
REMARK    2  A    between atoms: C_2  and  N_3
REMARK    3  A    between atoms: N_3  and  C_4
REMARK    4  A    between atoms: C_4  and  C_5
REMARK    5  A    between atoms: C_8  and  C_9
REMARK    6  A    between atoms: C_9  and  C_10
REMARK    7  A    between atoms: C_17  and  C_19
REMARK                            x       y       z     vdW  Elec       q    Type
REMARK                         _______ _______ _______ _____ _____    ______ ____
ROOT
ATOM      1  N   UNL     1       2.925   0.825  -1.068  0.00  0.00    +0.000 N 
ATOM      2  C   UNL     1       4.302   0.935  -1.351  0.00  0.00    +0.000 C 
ATOM      3  O   UNL     1       5.141   0.495  -0.567  0.00  0.00    +0.000 OA
ENDROOT
BRANCH   2   4
ATOM      4  C   UNL     1       4.759   1.639  -2.571  0.00  0.00    +0.000 A 
ATOM      5  C   UNL     1       4.263   2.846  -3.041  0.00  0.00    +0.000 A 
ATOM      6  S   UNL     1       5.060   3.438  -4.430  0.00  0.00    +0.000 S 
ATOM      7  C   UNL     1       6.216   2.198  -4.347  0.00  0.00    +0.000 A 
ATOM      8  N   UNL     1       7.295   2.198  -5.173  0.00  0.00    +0.000 NA
ATOM      9  C   UNL     1       8.130   1.241  -4.945  0.00  0.00    +0.000 A 
ATOM     10  N   UNL     1       7.953   0.261  -4.002  0.00  0.00    +0.000 N 
ATOM     11  C   UNL     1       6.812   0.137  -3.250  0.00  0.00    +0.000 A 
ATOM     12  O   UNL     1       6.576  -0.881  -2.612  0.00  0.00    +0.000 OA
ATOM     13  C   UNL     1       5.914   1.276  -3.362  0.00  0.00    +0.000 A 
ATOM     14  H   UNL     1       8.591  -0.514  -3.937  0.00  0.00    +0.000 HD
ENDBRANCH   2   4
BRANCH   1  16
ATOM     15  C   UNL     1       2.548  -1.311   0.167  0.00  0.00    +0.000 C 
ATOM     16  C   UNL     1       2.536   0.211   0.204  0.00  0.00    +0.000 C 
ENDBRANCH   1  16
BRANCH   1  17
ATOM     17  C   UNL     1       1.900   1.309  -1.991  0.00  0.00    +0.000 C 
BRANCH  17  18
ATOM     18  C   UNL     1       0.430   1.033  -1.778  0.00  0.00    +0.000 A 
ATOM     19  C   UNL     1      -0.355   1.994  -1.138  0.00  0.00    +0.000 A 
ATOM     20  C   UNL     1      -1.739   1.917  -1.247  0.00  0.00    +0.000 A 
ATOM     21  C   UNL     1      -2.315   0.880  -1.981  0.00  0.00    +0.000 A 
ATOM     22  C   UNL     1      -1.456  -0.073  -2.519  0.00  0.00    +0.000 A 
ATOM     23  N   UNL     1      -0.108  -0.024  -2.431  0.00  0.00    +0.000 NA
BRANCH  21  24
ATOM     24  C   UNL     1      -3.797   0.854  -2.247  0.00  0.00    +0.000 C 
BRANCH  24  25
ATOM     25  C   UNL     1      -4.509  -0.409  -1.754  0.00  0.00    +0.000 C 
ATOM     26  C   UNL     1      -5.996  -0.388  -2.072  0.00  0.00    +0.000 C 
ATOM     27  C   UNL     1      -6.552  -1.434  -1.125  0.00  0.00    +0.000 C 
ATOM     28  C   UNL     1      -5.618  -1.397   0.078  0.00  0.00    +0.000 C 
ATOM     29  N   UNL     1      -4.505  -0.523  -0.291  0.00  0.00    +0.000 NA
ATOM     30  H   UNL     1      -3.616  -0.897   0.041  0.00  0.00    +0.000 HD
ENDBRANCH  24  25
ENDBRANCH  21  24
ENDBRANCH  17  18
ENDBRANCH   1  17
TORSDOF 6
