REMARK  Name = 
REMARK  9 active torsions:
REMARK  status: ('A' for Active; 'I' for Inactive)
REMARK    1  A    between atoms: C_1  and  N_2
REMARK    2  A    between atoms: N_2  and  C_3
REMARK    3  A    between atoms: N_2  and  C_4
REMARK    4  A    between atoms: C_4  and  C_5
REMARK    5  A    between atoms: C_5  and  N_6
REMARK    6  A    between atoms: C_5  and  C_7
REMARK    7  A    between atoms: C_7  and  C_8
REMARK    8  A    between atoms: C_11  and  C_12
REMARK    9  A    between atoms: C_12  and  N_13
REMARK                            x       y       z     vdW  Elec       q    Type
REMARK                         _______ _______ _______ _____ _____    ______ ____
ROOT
ATOM      1  C   UNL     1       6.560  -2.580   0.932  0.00  0.00    +0.000 A 
ATOM      2  C   UNL     1       7.274  -1.557   0.295  0.00  0.00    +0.000 A 
ATOM      3  C   UNL     1       8.667  -1.489   0.395  0.00  0.00    +0.000 A 
ATOM      4  C   UNL     1       9.380  -2.438   1.137  0.00  0.00    +0.000 A 
ATOM      5  C   UNL     1       8.671  -3.499   1.719  0.00  0.00    +0.000 A 
ATOM      6  C   UNL     1       7.274  -3.569   1.616  0.00  0.00    +0.000 A 
ENDROOT
BRANCH   1   7
ATOM      7  C   UNL     1       5.044  -2.569   0.957  0.00  0.00    +0.000 C 
BRANCH   7   8
ATOM      8  C   UNL     1       4.369  -2.571  -0.426  0.00  0.00    +0.000 C 
BRANCH   8   9
ATOM      9  N   UNL     1       2.912  -2.373  -0.245  0.00  0.00    +0.000 NA
ATOM     10  H   UNL     1       2.445  -3.272  -0.397  0.00  0.00    +0.000 HD
ATOM     11  H   UNL     1       2.571  -1.798  -1.016  0.00  0.00    +0.000 HD
ENDBRANCH   8   9
BRANCH   8  12
ATOM     12  C   UNL     1       4.703  -3.848  -1.273  0.00  0.00    +0.000 C 
BRANCH  12  14
ATOM     13  C   UNL     1       4.609  -2.737  -3.429  0.00  0.00    +0.000 C 
ATOM     14  N   UNL     1       4.086  -3.847  -2.626  0.00  0.00    +0.000 NA
ATOM     15  C   UNL     1       4.352  -5.108  -3.331  0.00  0.00    +0.000 C 
ENDBRANCH  12  14
ENDBRANCH   8  12
ENDBRANCH   7   8
ENDBRANCH   1   7
BRANCH   4  16
ATOM     16  C   UNL     1      10.874  -2.309   1.315  0.00  0.00    +0.000 C 
BRANCH  16  17
ATOM     17  N   UNL     1      11.241  -1.537   2.505  0.00  0.00    +0.000 N 
ATOM     18  C   UNL     1      11.455  -2.095   3.747  0.00  0.00    +0.000 A 
ATOM     19  C   UNL     1      11.882  -1.100   4.598  0.00  0.00    +0.000 A 
ATOM     20  C   UNL     1      11.972   0.086   3.841  0.00  0.00    +0.000 A 
ATOM     21  N   UNL     1      12.392   1.319   4.251  0.00  0.00    +0.000 NA
ATOM     22  C   UNL     1      12.418   2.258   3.290  0.00  0.00    +0.000 A 
ATOM     23  C   UNL     1      12.050   2.060   1.965  0.00  0.00    +0.000 A 
ATOM     24  C   UNL     1      11.611   0.803   1.558  0.00  0.00    +0.000 A 
ATOM     25  C   UNL     1      11.581  -0.197   2.535  0.00  0.00    +0.000 A 
ENDBRANCH  16  17
ENDBRANCH   4  16
TORSDOF 7
