REMARK  Name = 
REMARK  4 active torsions:
REMARK  status: ('A' for Active; 'I' for Inactive)
REMARK    1  A    between atoms: C_2  and  C_4
REMARK    2  A    between atoms: C_7  and  N_8
REMARK    3  A    between atoms: N_8  and  C_9
REMARK    4  A    between atoms: C_9  and  C_10
REMARK                            x       y       z     vdW  Elec       q    Type
REMARK                         _______ _______ _______ _____ _____    ______ ____
ROOT
ATOM      1  C   UNL     1       3.111  -0.600   1.013  0.00  0.00    +0.000 A 
ATOM      2  C   UNL     1       2.693  -0.982   2.292  0.00  0.00    +0.000 A 
ATOM      3  C   UNL     1       3.536  -1.743   3.112  0.00  0.00    +0.000 A 
ATOM      4  C   UNL     1       4.802  -2.134   2.672  0.00  0.00    +0.000 A 
ATOM      5  C   UNL     1       5.231  -1.703   1.409  0.00  0.00    +0.000 A 
ATOM      6  C   UNL     1       4.386  -0.963   0.572  0.00  0.00    +0.000 A 
ENDROOT
BRANCH   1   8
ATOM      7  N   UNL     1       1.246   0.929   0.651  0.00  0.00    +0.000 N 
ATOM      8  C   UNL     1       2.217   0.145   0.089  0.00  0.00    +0.000 C 
ATOM      9  O   UNL     1       2.349   0.083  -1.124  0.00  0.00    +0.000 OA
ATOM     10  H   UNL     1       0.692   1.483   0.011  0.00  0.00    +0.000 HD
ATOM     11  H   UNL     1       1.269   1.210   1.620  0.00  0.00    +0.000 HD
ENDBRANCH   1   8
BRANCH   4  12
ATOM     12  N   UNL     1       5.715  -2.854   3.472  0.00  0.00    +0.000 N 
ATOM     13  H   UNL     1       6.395  -2.207   3.879  0.00  0.00    +0.000 HD
BRANCH  12  14
ATOM     14  C   UNL     1       5.272  -3.862   4.478  0.00  0.00    +0.000 C 
ATOM     15  C   UNL     1       6.005  -5.197   4.378  0.00  0.00    +0.000 C 
ATOM     16  C   UNL     1       4.550  -5.130   4.051  0.00  0.00    +0.000 C 
BRANCH  14  17
ATOM     17  C   UNL     1       5.047  -3.320   5.899  0.00  0.00    +0.000 A 
ATOM     18  C   UNL     1       3.790  -3.394   6.513  0.00  0.00    +0.000 A 
ATOM     19  C   UNL     1       3.623  -2.966   7.826  0.00  0.00    +0.000 A 
ATOM     20  C   UNL     1       4.713  -2.451   8.510  0.00  0.00    +0.000 A 
ATOM     21  C   UNL     1       5.922  -2.374   7.837  0.00  0.00    +0.000 A 
ATOM     22  N   UNL     1       6.108  -2.786   6.563  0.00  0.00    +0.000 NA
ENDBRANCH  14  17
ENDBRANCH  12  14
ENDBRANCH   4  12
TORSDOF 4
