REMARK  Name = 
REMARK  7 active torsions:
REMARK  status: ('A' for Active; 'I' for Inactive)
REMARK    1  A    between atoms: C_1  and  C_2
REMARK    2  A    between atoms: C_5  and  C_6
REMARK    3  A    between atoms: C_6  and  C_7
REMARK    4  A    between atoms: C_10  and  C_11
REMARK    5  A    between atoms: C_11  and  N_12
REMARK    6  A    between atoms: C_13  and  C_15
REMARK    7  A    between atoms: N_21  and  C_22
REMARK                            x       y       z     vdW  Elec       q    Type
REMARK                         _______ _______ _______ _____ _____    ______ ____
ROOT
ATOM      1  C   UNL     1      -5.619  -2.336   4.714  0.00  0.00    +0.000 C 
ENDROOT
BRANCH   1   5
ATOM      2  C   UNL     1      -3.875  -0.519   1.267  0.00  0.00    +0.000 A 
ATOM      3  C   UNL     1      -3.029  -1.059   2.232  0.00  0.00    +0.000 A 
ATOM      4  C   UNL     1      -3.586  -1.642   3.371  0.00  0.00    +0.000 A 
ATOM      5  C   UNL     1      -4.972  -1.675   3.529  0.00  0.00    +0.000 A 
ATOM      6  C   UNL     1      -5.737  -1.137   2.500  0.00  0.00    +0.000 A 
ATOM      7  N   UNL     1      -5.225  -0.558   1.387  0.00  0.00    +0.000 NA
BRANCH   2   8
ATOM      8  C   UNL     1      -3.311   0.153   0.035  0.00  0.00    +0.000 C 
BRANCH   8  13
ATOM      9  C   UNL     1      -2.745  -3.074  -4.707  0.00  0.00    +0.000 C 
ATOM     10  C   UNL     1      -2.835  -2.279  -3.440  0.00  0.00    +0.000 A 
ATOM     11  C   UNL     1      -1.700  -1.709  -2.871  0.00  0.00    +0.000 A 
ATOM     12  C   UNL     1      -1.837  -0.939  -1.717  0.00  0.00    +0.000 A 
ATOM     13  C   UNL     1      -3.100  -0.752  -1.151  0.00  0.00    +0.000 A 
ATOM     14  C   UNL     1      -4.172  -1.380  -1.777  0.00  0.00    +0.000 A 
ATOM     15  N   UNL     1      -4.066  -2.136  -2.897  0.00  0.00    +0.000 NA
ENDBRANCH   8  13
ENDBRANCH   2   8
ENDBRANCH   1   5
BRANCH   1  16
ATOM     16  N   UNL     1      -5.792  -3.744   4.467  0.00  0.00    +0.000 N 
ATOM     17  C   UNL     1      -6.368  -4.586   5.385  0.00  0.00    +0.000 C 
ATOM     18  O   UNL     1      -6.625  -4.229   6.531  0.00  0.00    +0.000 OA
ATOM     19  H   UNL     1      -5.814  -4.019   3.492  0.00  0.00    +0.000 HD
BRANCH  17  20
ATOM     20  C   UNL     1      -6.616  -5.960   4.924  0.00  0.00    +0.000 A 
ATOM     21  C   UNL     1      -6.687  -7.002   5.837  0.00  0.00    +0.000 A 
ATOM     22  S   UNL     1      -6.930  -8.528   5.111  0.00  0.00    +0.000 S 
ATOM     23  C   UNL     1      -7.003  -7.841   3.555  0.00  0.00    +0.000 A 
ATOM     24  N   UNL     1      -7.215  -8.611   2.457  0.00  0.00    +0.000 NA
ATOM     25  C   UNL     1      -7.265  -7.956   1.341  0.00  0.00    +0.000 A 
ATOM     26  N   UNL     1      -7.126  -6.589   1.211  0.00  0.00    +0.000 N 
ATOM     27  C   UNL     1      -7.187  -5.954  -0.090  0.00  0.00    +0.000 C 
ATOM     28  C   UNL     1      -6.905  -5.775   2.315  0.00  0.00    +0.000 A 
ATOM     29  O   UNL     1      -6.764  -4.558   2.224  0.00  0.00    +0.000 OA
ATOM     30  C   UNL     1      -6.831  -6.472   3.587  0.00  0.00    +0.000 A 
ENDBRANCH  17  20
ENDBRANCH   1  16
TORSDOF 5
