REMARK  Name = 
REMARK  9 active torsions:
REMARK  status: ('A' for Active; 'I' for Inactive)
REMARK    1  A    between atoms: C_1  and  C_2
REMARK    2  A    between atoms: C_2  and  C_3
REMARK    3  A    between atoms: C_3  and  N_4
REMARK    4  A    between atoms: C_3  and  C_17
REMARK    5  A    between atoms: C_5  and  C_7
REMARK    6  A    between atoms: C_20  and  C_21
REMARK    7  A    between atoms: C_21  and  N_22
REMARK    8  A    between atoms: N_22  and  C_23
REMARK    9  A    between atoms: C_23  and  C_24
REMARK                            x       y       z     vdW  Elec       q    Type
REMARK                         _______ _______ _______ _____ _____    ______ ____
ROOT
ATOM      1  C   UNL     1      13.798  -5.469  -2.626  0.00  0.00    +0.000 C 
ENDROOT
BRANCH   1   2
ATOM      2  C   UNL     1      13.773  -3.971  -2.366  0.00  0.00    +0.000 A 
ATOM      3  C   UNL     1      13.012  -3.515  -1.276  0.00  0.00    +0.000 A 
ATOM      4  C   UNL     1      12.914  -2.157  -0.973  0.00  0.00    +0.000 A 
ATOM      5  C   UNL     1      13.574  -1.200  -1.752  0.00  0.00    +0.000 A 
ATOM      6  C   UNL     1      14.309  -1.641  -2.862  0.00  0.00    +0.000 A 
ATOM      7  C   UNL     1      14.403  -3.013  -3.171  0.00  0.00    +0.000 A 
BRANCH   5   8
ATOM      8  C   UNL     1      13.460   0.266  -1.390  0.00  0.00    +0.000 C 
BRANCH   8   9
ATOM      9  N   UNL     1      13.934   0.503  -0.024  0.00  0.00    +0.000 NA
ATOM     10  H   UNL     1      14.899   0.181   0.049  0.00  0.00    +0.000 HD
BRANCH   9  11
ATOM     11  C   UNL     1      13.860   1.922   0.348  0.00  0.00    +0.000 C 
BRANCH  11  12
ATOM     12  C   UNL     1      14.384   2.135   1.796  0.00  0.00    +0.000 C 
ATOM     13  C   UNL     1      14.274   3.576   2.268  0.00  0.00    +0.000 C 
ATOM     14  C   UNL     1      12.831   3.697   2.724  0.00  0.00    +0.000 C 
ATOM     15  C   UNL     1      12.420   2.275   3.091  0.00  0.00    +0.000 C 
ATOM     16  N   UNL     1      13.577   1.423   2.802  0.00  0.00    +0.000 NA
ATOM     17  H   UNL     1      13.273   0.532   2.401  0.00  0.00    +0.000 HD
ENDBRANCH  11  12
ENDBRANCH   9  11
ENDBRANCH   8   9
ENDBRANCH   5   8
ENDBRANCH   1   2
BRANCH   1  18
ATOM     18  N   UNL     1      12.676  -5.826  -3.479  0.00  0.00    +0.000 N 
ATOM     19  C   UNL     1      12.066  -7.053  -3.384  0.00  0.00    +0.000 C 
ATOM     20  O   UNL     1      12.305  -7.841  -2.473  0.00  0.00    +0.000 OA
ATOM     21  H   UNL     1      12.560  -5.276  -4.323  0.00  0.00    +0.000 HD
BRANCH  19  22
ATOM     22  C   UNL     1      11.093  -7.381  -4.426  0.00  0.00    +0.000 A 
ATOM     23  C   UNL     1      10.042  -8.247  -4.150  0.00  0.00    +0.000 A 
ATOM     24  S   UNL     1       9.038  -8.546  -5.496  0.00  0.00    +0.000 S 
ATOM     25  C   UNL     1      10.009  -7.578  -6.505  0.00  0.00    +0.000 A 
ATOM     26  N   UNL     1       9.745  -7.462  -7.833  0.00  0.00    +0.000 NA
ATOM     27  C   UNL     1      10.599  -6.746  -8.487  0.00  0.00    +0.000 A 
ATOM     28  N   UNL     1      11.675  -6.110  -7.925  0.00  0.00    +0.000 N 
ATOM     29  C   UNL     1      11.935  -6.132  -6.578  0.00  0.00    +0.000 A 
ATOM     30  O   UNL     1      12.832  -5.449  -6.089  0.00  0.00    +0.000 OA
ATOM     31  C   UNL     1      11.047  -6.983  -5.809  0.00  0.00    +0.000 A 
ATOM     32  H   UNL     1      12.283  -5.533  -8.487  0.00  0.00    +0.000 HD
ENDBRANCH  19  22
ENDBRANCH   1  18
BRANCH   1  34
ATOM     33  C   UNL     1      16.267  -6.029  -2.228  0.00  0.00    +0.000 C 
ATOM     34  C   UNL     1      15.095  -6.075  -3.199  0.00  0.00    +0.000 C 
ENDBRANCH   1  34
TORSDOF 8
