REMARK  Name = 
REMARK  9 active torsions:
REMARK  status: ('A' for Active; 'I' for Inactive)
REMARK    1  A    between atoms: N_1  and  C_2
REMARK    2  A    between atoms: C_2  and  C_3
REMARK    3  A    between atoms: C_3  and  N_4
REMARK    4  A    between atoms: C_3  and  C_26
REMARK    5  A    between atoms: N_4  and  C_5
REMARK    6  A    between atoms: C_5  and  C_6
REMARK    7  A    between atoms: C_9  and  C_10
REMARK    8  A    between atoms: C_10  and  N_11
REMARK    9  A    between atoms: C_12  and  C_14
REMARK                            x       y       z     vdW  Elec       q    Type
REMARK                         _______ _______ _______ _____ _____    ______ ____
ROOT
ATOM      1  C   UNL     1       0.571   0.766   3.755  0.00  0.00    +0.000 C 
ATOM      2  C   UNL     1       1.187   1.892   4.608  0.00  0.00    +0.000 C 
ATOM      3  C   UNL     1       0.985   1.691   6.110  0.00  0.00    +0.000 C 
ATOM      4  C   UNL     1       1.459   0.311   6.599  0.00  0.00    +0.000 C 
ATOM      5  C   UNL     1       0.817  -0.801   5.760  0.00  0.00    +0.000 C 
ATOM      6  C   UNL     1       1.045  -0.608   4.261  0.00  0.00    +0.000 C 
ENDROOT
BRANCH   1   7
ATOM      7  C   UNL     1      -0.975   0.804   3.671  0.00  0.00    +0.000 C 
BRANCH   7   8
ATOM      8  N   UNL     1      -1.432   2.015   2.989  0.00  0.00    +0.000 NA
ATOM      9  H   UNL     1      -1.127   2.827   3.530  0.00  0.00    +0.000 HD
BRANCH   8  10
ATOM     10  C   UNL     1      -2.912   2.126   2.900  0.00  0.00    +0.000 C 
BRANCH  10  11
ATOM     11  C   UNL     1      -3.280   3.533   2.419  0.00  0.00    +0.000 A 
ATOM     12  C   UNL     1      -2.908   3.978   1.144  0.00  0.00    +0.000 A 
ATOM     13  C   UNL     1      -3.172   5.294   0.768  0.00  0.00    +0.000 A 
ATOM     14  C   UNL     1      -3.785   6.142   1.673  0.00  0.00    +0.000 A 
ATOM     15 CL   UNL     1      -4.106   7.776   1.263  0.00  0.00    +0.000 Cl
ATOM     16  C   UNL     1      -4.117   5.639   2.923  0.00  0.00    +0.000 A 
ATOM     17  N   UNL     1      -3.877   4.362   3.317  0.00  0.00    +0.000 NA
ENDBRANCH  10  11
BRANCH  10  18
ATOM     18  C   UNL     1      -3.603   1.015   2.045  0.00  0.00    +0.000 C 
BRANCH  18  19
ATOM     19  N   UNL     1      -3.075   0.844   0.683  0.00  0.00    +0.000 NA
ATOM     20  H   UNL     1      -3.446  -0.012   0.275  0.00  0.00    +0.000 HD
ATOM     21  H   UNL     1      -2.061   0.740   0.745  0.00  0.00    +0.000 HD
ENDBRANCH  18  19
ENDBRANCH  10  18
ENDBRANCH   8  10
ENDBRANCH   7   8
ENDBRANCH   1   7
BRANCH   4  22
ATOM     22  C   UNL     1       2.992   0.175   6.599  0.00  0.00    +0.000 C 
BRANCH  22  23
ATOM     23  N   UNL     1       3.603   1.122   7.500  0.00  0.00    +0.000 N 
ATOM     24  C   UNL     1       4.957   1.331   7.524  0.00  0.00    +0.000 C 
ATOM     25  O   UNL     1       5.723   0.750   6.761  0.00  0.00    +0.000 OA
ATOM     26  H   UNL     1       3.037   1.463   8.270  0.00  0.00    +0.000 HD
BRANCH  24  27
ATOM     27  C   UNL     1       5.437   2.333   8.481  0.00  0.00    +0.000 A 
ATOM     28  C   UNL     1       6.669   2.936   8.273  0.00  0.00    +0.000 A 
ATOM     29  S   UNL     1       7.079   4.081   9.467  0.00  0.00    +0.000 S 
ATOM     30  C   UNL     1       5.641   3.781  10.326  0.00  0.00    +0.000 A 
ATOM     31  N   UNL     1       5.384   4.422  11.498  0.00  0.00    +0.000 NA
ATOM     32  C   UNL     1       4.271   4.083  12.058  0.00  0.00    +0.000 A 
ATOM     33  N   UNL     1       3.384   3.172  11.547  0.00  0.00    +0.000 N 
ATOM     34  C   UNL     1       3.577   2.537  10.341  0.00  0.00    +0.000 A 
ATOM     35  O   UNL     1       2.721   1.796   9.871  0.00  0.00    +0.000 OA
ATOM     36  C   UNL     1       4.838   2.850   9.691  0.00  0.00    +0.000 A 
ATOM     37  H   UNL     1       2.518   2.971  12.024  0.00  0.00    +0.000 HD
ENDBRANCH  24  27
ENDBRANCH  22  23
ENDBRANCH   4  22
TORSDOF 9
