REMARK  Name = 
REMARK  10 active torsions:
REMARK  status: ('A' for Active; 'I' for Inactive)
REMARK    1  A    between atoms: C_1  and  O_2
REMARK    2  A    between atoms: O_2  and  C_3
REMARK    3  A    between atoms: C_10  and  C_11
REMARK    4  A    between atoms: N_13  and  C_14
REMARK    5  A    between atoms: C_14  and  C_15
REMARK    6  A    between atoms: C_18  and  O_19
REMARK    7  A    between atoms: O_19  and  C_20
REMARK    8  A    between atoms: C_20  and  C_21
REMARK    9  A    between atoms: C_21  and  O_22
REMARK   10  A    between atoms: C_21  and  C_23
REMARK                            x       y       z     vdW  Elec       q    Type
REMARK                         _______ _______ _______ _____ _____    ______ ____
ROOT
ATOM      1  C   UNL     1       2.015  -2.030   2.767  0.00  0.00    +0.000 A 
ATOM      2  C   UNL     1       1.014  -2.757   3.426  0.00  0.00    +0.000 A 
ATOM      3  C   UNL     1       0.076  -2.116   4.245  0.00  0.00    +0.000 A 
ATOM      4  C   UNL     1       0.099  -0.730   4.400  0.00  0.00    +0.000 A 
ATOM      5  C   UNL     1       1.081   0.005   3.734  0.00  0.00    +0.000 A 
ATOM      6  C   UNL     1       2.037  -0.637   2.933  0.00  0.00    +0.000 A 
ENDROOT
BRANCH   1   7
ATOM      7  C   UNL     1       3.036  -2.749   1.913  0.00  0.00    +0.000 C 
BRANCH   7  10
ATOM      8  C   UNL     1       3.360  -3.533  -0.416  0.00  0.00    +0.000 C 
ATOM      9  O   UNL     1       4.461  -4.018  -0.167  0.00  0.00    +0.000 OA
ATOM     10  N   UNL     1       2.609  -2.909   0.548  0.00  0.00    +0.000 N 
ATOM     11  H   UNL     1       1.712  -2.509   0.300  0.00  0.00    +0.000 HD
BRANCH   8  19
ATOM     12  C   UNL     1       0.366  -2.466  -1.737  0.00  0.00    +0.000 A 
ATOM     13  N   UNL     1      -0.689  -2.119  -2.499  0.00  0.00    +0.000 NA
ATOM     14  C   UNL     1      -0.645  -2.416  -3.801  0.00  0.00    +0.000 A 
ATOM     15  N   UNL     1       0.329  -3.041  -4.443  0.00  0.00    +0.000 NA
ATOM     16  C   UNL     1       1.365  -3.373  -3.650  0.00  0.00    +0.000 A 
ATOM     17  S   UNL     1       2.706  -4.180  -4.300  0.00  0.00    +0.000 S 
ATOM     18  C   UNL     1       3.491  -4.205  -2.792  0.00  0.00    +0.000 A 
ATOM     19  C   UNL     1       2.770  -3.599  -1.771  0.00  0.00    +0.000 A 
ATOM     20  C   UNL     1       1.485  -3.114  -2.284  0.00  0.00    +0.000 A 
BRANCH  12  22
ATOM     21  C   UNL     1      -0.985  -1.985   0.100  0.00  0.00    +0.000 C 
ATOM     22  O   UNL     1       0.339  -2.101  -0.409  0.00  0.00    +0.000 OA
ENDBRANCH  12  22
ENDBRANCH   8  19
ENDBRANCH   7  10
ENDBRANCH   1   7
BRANCH   4  23
ATOM     23  O   UNL     1      -0.764   0.007   5.166  0.00  0.00    +0.000 OA
BRANCH  23  24
ATOM     24  C   UNL     1      -1.781  -0.727   5.864  0.00  0.00    +0.000 C 
BRANCH  24  25
ATOM     25  C   UNL     1      -2.672   0.225   6.674  0.00  0.00    +0.000 C 
BRANCH  25  26
ATOM     26  C   UNL     1      -3.698  -0.579   7.469  0.00  0.00    +0.000 A 
ATOM     27  N   UNL     1      -3.361  -0.980   8.712  0.00  0.00    +0.000 NA
ATOM     28  C   UNL     1      -4.291  -1.672   9.402  0.00  0.00    +0.000 A 
ATOM     29  C   UNL     1      -5.529  -1.994   8.895  0.00  0.00    +0.000 A 
ATOM     30  C   UNL     1      -5.768  -1.560   7.612  0.00  0.00    +0.000 A 
ATOM     31  N   UNL     1      -4.877  -0.865   6.872  0.00  0.00    +0.000 NA
ENDBRANCH  25  26
BRANCH  25  32
ATOM     32  O   UNL     1      -3.311   1.158   5.773  0.00  0.00    +0.000 OA
ATOM     33  H   UNL     1      -4.060   0.676   5.382  0.00  0.00    +0.000 HD
ENDBRANCH  25  32
ENDBRANCH  24  25
ENDBRANCH  23  24
ENDBRANCH   4  23
TORSDOF 9
