REMARK  Name = 
REMARK  9 active torsions:
REMARK  status: ('A' for Active; 'I' for Inactive)
REMARK    1  A    between atoms: C_1  and  C_2
REMARK    2  A    between atoms: C_2  and  C_3
REMARK    3  A    between atoms: C_2  and  C_4
REMARK    4  A    between atoms: C_2  and  C_5
REMARK    5  A    between atoms: C_7  and  O_8
REMARK    6  A    between atoms: O_8  and  C_9
REMARK    7  A    between atoms: C_9  and  C_10
REMARK    8  A    between atoms: C_14  and  C_15
REMARK    9  A    between atoms: C_15  and  N_16
REMARK                            x       y       z     vdW  Elec       q    Type
REMARK                         _______ _______ _______ _____ _____    ______ ____
ROOT
ATOM      1  O   UNL     1       5.302  -2.974  -2.954  0.00  0.00    +0.000 OA
ENDROOT
BRANCH   1   4
ATOM      2  C   UNL     1       3.026  -1.422  -0.471  0.00  0.00    +0.000 A 
ATOM      3  C   UNL     1       3.996  -1.498  -1.477  0.00  0.00    +0.000 A 
ATOM      4  C   UNL     1       4.386  -2.745  -1.962  0.00  0.00    +0.000 A 
ATOM      5  C   UNL     1       3.812  -3.888  -1.424  0.00  0.00    +0.000 A 
ATOM      6  C   UNL     1       2.872  -3.738  -0.424  0.00  0.00    +0.000 A 
ATOM      7  N   UNL     1       2.472  -2.541   0.055  0.00  0.00    +0.000 NA
BRANCH   2   9
ATOM      8  C   UNL     1       1.906   0.736  -1.120  0.00  0.00    +0.000 C 
ATOM      9  C   UNL     1       2.527  -0.065   0.042  0.00  0.00    +0.000 C 
ATOM     10  C   UNL     1       3.684   0.743   0.661  0.00  0.00    +0.000 C 
ATOM     11  C   UNL     1       1.441  -0.240   1.127  0.00  0.00    +0.000 C 
ENDBRANCH   2   9
ENDBRANCH   1   4
BRANCH   1  12
ATOM     12  C   UNL     1       5.900  -1.823  -3.552  0.00  0.00    +0.000 C 
BRANCH  12  13
ATOM     13  C   UNL     1       6.877  -2.218  -4.636  0.00  0.00    +0.000 A 
ATOM     14  C   UNL     1       7.097  -1.353  -5.717  0.00  0.00    +0.000 A 
ATOM     15  C   UNL     1       8.055  -1.656  -6.683  0.00  0.00    +0.000 A 
ATOM     16  C   UNL     1       8.813  -2.821  -6.575  0.00  0.00    +0.000 A 
ATOM     17  C   UNL     1       8.612  -3.711  -5.510  0.00  0.00    +0.000 A 
ATOM     18  C   UNL     1       7.647  -3.389  -4.541  0.00  0.00    +0.000 A 
BRANCH  17  19
ATOM     19  C   UNL     1       9.471  -4.938  -5.317  0.00  0.00    +0.000 C 
BRANCH  19  20
ATOM     20  N   UNL     1       9.947  -5.523  -6.567  0.00  0.00    +0.000 NA
ATOM     21  H   UNL     1       9.140  -5.846  -7.100  0.00  0.00    +0.000 HD
ATOM     22  H   UNL     1      10.499  -6.351  -6.353  0.00  0.00    +0.000 HD
ENDBRANCH  19  20
ENDBRANCH  17  19
ENDBRANCH  12  13
ENDBRANCH   1  12
TORSDOF 6
