REMARK  Name = 
REMARK  5 active torsions:
REMARK  status: ('A' for Active; 'I' for Inactive)
REMARK    1  A    between atoms: C_2  and  C_4
REMARK    2  A    between atoms: C_7  and  O_8
REMARK    3  A    between atoms: O_8  and  C_9
REMARK    4  A    between atoms: C_9  and  C_10
REMARK    5  A    between atoms: C_14  and  C_15
REMARK                            x       y       z     vdW  Elec       q    Type
REMARK                         _______ _______ _______ _____ _____    ______ ____
ROOT
ATOM      1  C   UNL     1       4.971   3.370   4.770  0.00  0.00    +0.000 C 
ENDROOT
BRANCH   1   2
ATOM      2  C   UNL     1       5.890   4.318   5.485  0.00  0.00    +0.000 A 
ATOM      3  C   UNL     1       6.958   3.849   6.235  0.00  0.00    +0.000 A 
ATOM      4  N   UNL     1       7.784   4.644   6.945  0.00  0.00    +0.000 NA
ATOM      5  C   UNL     1       7.532   5.976   6.903  0.00  0.00    +0.000 A 
ATOM      6  C   UNL     1       6.490   6.579   6.195  0.00  0.00    +0.000 A 
ATOM      7  C   UNL     1       5.666   5.702   5.471  0.00  0.00    +0.000 A 
BRANCH   6   8
ATOM      8  C   UNL     1       6.249   8.038   6.225  0.00  0.00    +0.000 A 
ATOM      9  C   UNL     1       5.746   8.724   5.101  0.00  0.00    +0.000 A 
ATOM     10  C   UNL     1       5.482  10.099   5.137  0.00  0.00    +0.000 A 
ATOM     11  C   UNL     1       5.729  10.823   6.297  0.00  0.00    +0.000 A 
ATOM     12  C   UNL     1       6.237  10.166   7.408  0.00  0.00    +0.000 A 
ATOM     13  F   UNL     1       6.479  10.859   8.529  0.00  0.00    +0.000 F 
ATOM     14  C   UNL     1       6.492   8.797   7.384  0.00  0.00    +0.000 A 
ENDBRANCH   6   8
ENDBRANCH   1   2
BRANCH   1  15
ATOM     15  O   UNL     1       4.975   3.652   3.370  0.00  0.00    +0.000 OA
BRANCH  15  19
ATOM     16  C   UNL     1       2.696   1.304   0.773  0.00  0.00    +0.000 A 
ATOM     17  C   UNL     1       2.621   1.047   2.144  0.00  0.00    +0.000 A 
ATOM     18  C   UNL     1       3.366   1.816   3.047  0.00  0.00    +0.000 A 
ATOM     19  C   UNL     1       4.196   2.842   2.587  0.00  0.00    +0.000 A 
ATOM     20  C   UNL     1       4.273   3.093   1.215  0.00  0.00    +0.000 A 
ATOM     21  C   UNL     1       3.533   2.326   0.308  0.00  0.00    +0.000 A 
BRANCH  16  23
ATOM     22  N   UNL     1       0.780  -0.096   0.219  0.00  0.00    +0.000 N 
ATOM     23  C   UNL     1       1.933   0.498  -0.214  0.00  0.00    +0.000 C 
ATOM     24  O   UNL     1       2.299   0.390  -1.378  0.00  0.00    +0.000 OA
ATOM     25  H   UNL     1       0.225  -0.561  -0.488  0.00  0.00    +0.000 HD
ATOM     26  H   UNL     1       0.319   0.169   1.077  0.00  0.00    +0.000 HD
ENDBRANCH  16  23
ENDBRANCH  15  19
ENDBRANCH   1  15
TORSDOF 5
