REMARK  Name = 
REMARK  11 active torsions:
REMARK  status: ('A' for Active; 'I' for Inactive)
REMARK    1  A    between atoms: C_1  and  C_2
REMARK    2  A    between atoms: C_2  and  C_3
REMARK    3  A    between atoms: C_2  and  N_4
REMARK    4  A    between atoms: C_5  and  C_7
REMARK    5  A    between atoms: C_10  and  N_11
REMARK    6  A    between atoms: N_11  and  C_12
REMARK    7  A    between atoms: C_12  and  C_13
REMARK    8  A    between atoms: C_13  and  C_14
REMARK    9  A    between atoms: C_13  and  C_15
REMARK   10  A    between atoms: C_13  and  C_16
REMARK   11  A    between atoms: C_20  and  C_21
REMARK                            x       y       z     vdW  Elec       q    Type
REMARK                         _______ _______ _______ _____ _____    ______ ____
ROOT
ATOM      1  N   UNL     1       6.161   5.822   3.818  0.00  0.00    +0.000 N 
ATOM      2  H   UNL     1       5.430   6.103   4.464  0.00  0.00    +0.000 HD
ENDROOT
BRANCH   1   6
ATOM      3  C   UNL     1       5.367   2.271   1.894  0.00  0.00    +0.000 A 
ATOM      4  N   UNL     1       6.051   3.198   1.186  0.00  0.00    +0.000 NA
ATOM      5  C   UNL     1       6.270   4.365   1.829  0.00  0.00    +0.000 A 
ATOM      6  C   UNL     1       5.838   4.669   3.113  0.00  0.00    +0.000 A 
ATOM      7  C   UNL     1       5.154   3.622   3.718  0.00  0.00    +0.000 A 
ATOM      8  N   UNL     1       4.894   2.428   3.143  0.00  0.00    +0.000 NA
BRANCH   3  10
ATOM      9  N   UNL     1       5.630   0.860  -0.085  0.00  0.00    +0.000 N 
ATOM     10  C   UNL     1       5.145   0.942   1.211  0.00  0.00    +0.000 C 
ATOM     11  O   UNL     1       4.575   0.006   1.770  0.00  0.00    +0.000 OA
ATOM     12  H   UNL     1       6.159   1.658  -0.427  0.00  0.00    +0.000 HD
BRANCH   9  14
ATOM     13  C   UNL     1       5.456  -0.033  -2.356  0.00  0.00    +0.000 C 
ATOM     14  C   UNL     1       5.539  -0.360  -0.871  0.00  0.00    +0.000 C 
ATOM     15  C   UNL     1       6.718  -1.289  -0.593  0.00  0.00    +0.000 C 
ENDBRANCH   9  14
ENDBRANCH   3  10
ENDBRANCH   1   6
BRANCH   1  16
ATOM     16  C   UNL     1       6.953   6.891   3.197  0.00  0.00    +0.000 C 
BRANCH  16  17
ATOM     17  C   UNL     1       7.174   8.116   4.141  0.00  0.00    +0.000 C 
ATOM     18  C   UNL     1       5.793   8.731   4.484  0.00  0.00    +0.000 C 
ATOM     19  C   UNL     1       7.829   7.659   5.465  0.00  0.00    +0.000 C 
BRANCH  17  20
ATOM     20  C   UNL     1       8.125   9.147   3.474  0.00  0.00    +0.000 A 
ATOM     21  C   UNL     1       7.715  10.462   3.183  0.00  0.00    +0.000 A 
ATOM     22  C   UNL     1       8.598  11.405   2.650  0.00  0.00    +0.000 A 
ATOM     23  C   UNL     1       9.922  11.061   2.405  0.00  0.00    +0.000 A 
ATOM     24  C   UNL     1      10.372   9.770   2.692  0.00  0.00    +0.000 A 
ATOM     25  C   UNL     1       9.473   8.815   3.196  0.00  0.00    +0.000 A 
BRANCH  24  26
ATOM     26  C   UNL     1      11.815   9.483   2.464  0.00  0.00    +0.000 C 
ATOM     27  N   UNL     1      12.402   8.509   3.221  0.00  0.00    +0.000 N 
ATOM     28  O   UNL     1      12.476  10.131   1.662  0.00  0.00    +0.000 OA
ATOM     29  H   UNL     1      11.960   8.067   4.013  0.00  0.00    +0.000 HD
ATOM     30  H   UNL     1      13.409   8.432   3.140  0.00  0.00    +0.000 HD
ENDBRANCH  24  26
ENDBRANCH  17  20
ENDBRANCH  16  17
ENDBRANCH   1  16
TORSDOF 7
