REMARK  Name = 
REMARK  4 active torsions:
REMARK  status: ('A' for Active; 'I' for Inactive)
REMARK    1  A    between atoms: N_1  and  C_2
REMARK    2  A    between atoms: C_2  and  C_3
REMARK    3  A    between atoms: C_6  and  C_7
REMARK    4  A    between atoms: C_7  and  N_8
REMARK                            x       y       z     vdW  Elec       q    Type
REMARK                         _______ _______ _______ _____ _____    ______ ____
ROOT
ATOM      1  C   UNL     1       4.858  -4.061  -3.513  0.00  0.00    +0.000 C 
ENDROOT
BRANCH   1   2
ATOM      2  N   UNL     1       6.240  -4.092  -3.955  0.00  0.00    +0.000 N 
ATOM      3  N   UNL     1       6.626  -3.243  -4.931  0.00  0.00    +0.000 NA
ATOM      4  C   UNL     1       7.947  -3.414  -4.993  0.00  0.00    +0.000 A 
ATOM      5  C   UNL     1       8.412  -4.400  -4.099  0.00  0.00    +0.000 A 
ATOM      6  C   UNL     1       9.662  -4.936  -3.757  0.00  0.00    +0.000 A 
ATOM      7  C   UNL     1       9.709  -5.948  -2.800  0.00  0.00    +0.000 A 
ATOM      8  F   UNL     1      10.898  -6.444  -2.432  0.00  0.00    +0.000 F 
ATOM      9  C   UNL     1       8.552  -6.455  -2.215  0.00  0.00    +0.000 A 
ATOM     10  C   UNL     1       7.296  -5.933  -2.545  0.00  0.00    +0.000 A 
ATOM     11  C   UNL     1       7.260  -4.881  -3.473  0.00  0.00    +0.000 A 
ENDBRANCH   1   2
BRANCH   1  15
ATOM     12  C   UNL     1       3.071  -0.789  -1.200  0.00  0.00    +0.000 C 
ATOM     13  C   UNL     1       2.693  -2.233  -0.839  0.00  0.00    +0.000 C 
ATOM     14  C   UNL     1       3.096  -3.214  -1.938  0.00  0.00    +0.000 C 
ATOM     15  C   UNL     1       4.589  -3.134  -2.305  0.00  0.00    +0.000 C 
ATOM     16  C   UNL     1       5.006  -1.677  -2.576  0.00  0.00    +0.000 C 
ATOM     17  C   UNL     1       4.581  -0.714  -1.466  0.00  0.00    +0.000 C 
BRANCH  12  18
ATOM     18  C   UNL     1       2.611   0.170  -0.087  0.00  0.00    +0.000 C 
BRANCH  18  19
ATOM     19  N   UNL     1       2.910   1.564  -0.399  0.00  0.00    +0.000 NA
ATOM     20  H   UNL     1       2.519   2.166   0.324  0.00  0.00    +0.000 HD
ATOM     21  H   UNL     1       2.455   1.830  -1.271  0.00  0.00    +0.000 HD
ENDBRANCH  18  19
ENDBRANCH  12  18
ENDBRANCH   1  15
TORSDOF 4
