REMARK  Name = 
REMARK  5 active torsions:
REMARK  status: ('A' for Active; 'I' for Inactive)
REMARK    1  A    between atoms: C_1  and  C_2
REMARK    2  A    between atoms: C_2  and  C_3
REMARK    3  A    between atoms: C_3  and  N_4
REMARK    4  A    between atoms: C_3  and  C_14
REMARK    5  A    between atoms: C_8  and  C_9
REMARK                            x       y       z     vdW  Elec       q    Type
REMARK                         _______ _______ _______ _____ _____    ______ ____
ROOT
ATOM      1  N   UNL     1       2.460   1.646   1.712  0.00  0.00    +0.000 N 
ATOM      2  C   UNL     1       2.784   2.915   2.256  0.00  0.00    +0.000 A 
ATOM      3  C   UNL     1       2.851   3.010   3.654  0.00  0.00    +0.000 A 
ATOM      4  C   UNL     1       2.988   4.271   4.254  0.00  0.00    +0.000 A 
ATOM      5  C   UNL     1       3.177   5.395   3.473  0.00  0.00    +0.000 A 
ATOM      6  C   UNL     1       3.179   5.196   2.094  0.00  0.00    +0.000 A 
ATOM      7  N   UNL     1       2.948   3.991   1.478  0.00  0.00    +0.000 NA
ATOM      8  H   UNL     1       2.822   0.952   2.350  0.00  0.00    +0.000 HD
ENDROOT
BRANCH   5   9
ATOM      9  C   UNL     1       3.364   6.699   4.156  0.00  0.00    +0.000 C 
ATOM     10  N   UNL     1       3.548   7.823   3.406  0.00  0.00    +0.000 N 
ATOM     11  O   UNL     1       3.367   6.787   5.377  0.00  0.00    +0.000 OA
ATOM     12  H   UNL     1       3.690   7.832   2.397  0.00  0.00    +0.000 HD
ATOM     13  H   UNL     1       3.784   8.658   3.916  0.00  0.00    +0.000 HD
ENDBRANCH   5   9
BRANCH   1  14
ATOM     14  C   UNL     1       2.886   1.354   0.323  0.00  0.00    +0.000 C 
BRANCH  14  15
ATOM     15  C   UNL     1       4.453   1.374   0.272  0.00  0.00    +0.000 C 
ATOM     16  C   UNL     1       4.975   1.127  -1.154  0.00  0.00    +0.000 C 
ATOM     17  C   UNL     1       6.493   1.037  -1.222  0.00  0.00    +0.000 C 
ATOM     18  C   UNL     1       7.026  -0.009  -0.256  0.00  0.00    +0.000 C 
ATOM     19  C   UNL     1       6.610   0.315   1.170  0.00  0.00    +0.000 C 
ATOM     20  C   UNL     1       5.093   0.395   1.288  0.00  0.00    +0.000 C 
ENDBRANCH  14  15
BRANCH  14  22
ATOM     21  C   UNL     1       0.858  -0.232  -0.191  0.00  0.00    +0.000 C 
ATOM     22  C   UNL     1       2.362  -0.043  -0.138  0.00  0.00    +0.000 C 
ENDBRANCH  14  22
ENDBRANCH   1  14
TORSDOF 4
