REMARK  Name = 
REMARK  9 active torsions:
REMARK  status: ('A' for Active; 'I' for Inactive)
REMARK    1  A    between atoms: C_1  and  O_2
REMARK    2  A    between atoms: O_2  and  C_3
REMARK    3  A    between atoms: C_10  and  C_11
REMARK    4  A    between atoms: N_13  and  C_14
REMARK    5  A    between atoms: C_14  and  C_15
REMARK    6  A    between atoms: C_18  and  N_19
REMARK    7  A    between atoms: N_19  and  C_20
REMARK    8  A    between atoms: C_20  and  C_21
REMARK    9  A    between atoms: C_21  and  C_22
REMARK                            x       y       z     vdW  Elec       q    Type
REMARK                         _______ _______ _______ _____ _____    ______ ____
ROOT
ATOM      1  C   UNL     1       2.964  -1.156  -3.231  0.00  0.00    +0.000 C 
ENDROOT
BRANCH   1   2
ATOM      2  C   UNL     1       1.783  -1.962  -2.765  0.00  0.00    +0.000 A 
ATOM      3  C   UNL     1       1.861  -3.357  -2.685  0.00  0.00    +0.000 A 
ATOM      4  C   UNL     1       0.805  -4.095  -2.147  0.00  0.00    +0.000 A 
ATOM      5  C   UNL     1      -0.334  -3.455  -1.654  0.00  0.00    +0.000 A 
ATOM      6  C   UNL     1      -0.467  -2.079  -1.862  0.00  0.00    +0.000 A 
ATOM      7  C   UNL     1       0.588  -1.335  -2.396  0.00  0.00    +0.000 A 
BRANCH   5   8
ATOM      8  N   UNL     1      -1.350  -4.115  -0.955  0.00  0.00    +0.000 N 
ATOM      9  H   UNL     1      -2.150  -4.308  -1.556  0.00  0.00    +0.000 HD
BRANCH   8  10
ATOM     10  C   UNL     1      -0.988  -5.251  -0.097  0.00  0.00    +0.000 C 
BRANCH  10  11
ATOM     11  C   UNL     1       0.012  -4.869   1.005  0.00  0.00    +0.000 C 
BRANCH  11  12
ATOM     12  C   UNL     1      -0.545  -3.867   1.977  0.00  0.00    +0.000 A 
ATOM     13  C   UNL     1      -0.387  -2.497   1.776  0.00  0.00    +0.000 A 
ATOM     14  N   UNL     1      -0.875  -1.561   2.626  0.00  0.00    +0.000 NA
ATOM     15  C   UNL     1      -1.536  -2.053   3.695  0.00  0.00    +0.000 A 
ATOM     16  C   UNL     1      -1.695  -3.411   3.909  0.00  0.00    +0.000 A 
ATOM     17  N   UNL     1      -1.209  -4.346   3.062  0.00  0.00    +0.000 NA
ENDBRANCH  11  12
ENDBRANCH  10  11
ENDBRANCH   8  10
ENDBRANCH   5   8
ENDBRANCH   1   2
BRANCH   1  20
ATOM     18  C   UNL     1       3.985  -0.348  -5.305  0.00  0.00    +0.000 C 
ATOM     19  O   UNL     1       4.924   0.144  -4.675  0.00  0.00    +0.000 OA
ATOM     20  N   UNL     1       2.973  -1.002  -4.662  0.00  0.00    +0.000 N 
ATOM     21  H   UNL     1       2.171  -1.341  -5.179  0.00  0.00    +0.000 HD
BRANCH  18  29
ATOM     22  C   UNL     1       1.756  -1.519  -7.662  0.00  0.00    +0.000 A 
ATOM     23  N   UNL     1       1.114  -1.915  -8.780  0.00  0.00    +0.000 NA
ATOM     24  C   UNL     1       1.634  -1.577  -9.961  0.00  0.00    +0.000 A 
ATOM     25  N   UNL     1       2.740  -0.873 -10.174  0.00  0.00    +0.000 NA
ATOM     26  C   UNL     1       3.359  -0.512  -9.038  0.00  0.00    +0.000 A 
ATOM     27  S   UNL     1       4.785   0.405  -9.125  0.00  0.00    +0.000 S 
ATOM     28  C   UNL     1       4.934   0.423  -7.434  0.00  0.00    +0.000 A 
ATOM     29  C   UNL     1       3.921  -0.259  -6.770  0.00  0.00    +0.000 A 
ATOM     30  C   UNL     1       2.961  -0.796  -7.734  0.00  0.00    +0.000 A 
BRANCH  22  32
ATOM     31  C   UNL     1      -0.068  -2.498  -6.555  0.00  0.00    +0.000 C 
ATOM     32  O   UNL     1       1.181  -1.817  -6.441  0.00  0.00    +0.000 OA
ENDBRANCH  22  32
ENDBRANCH  18  29
ENDBRANCH   1  20
TORSDOF 8
