REMARK  Name = 
REMARK  5 active torsions:
REMARK  status: ('A' for Active; 'I' for Inactive)
REMARK    1  A    between atoms: C_2  and  C_4
REMARK    2  A    between atoms: C_7  and  N_8
REMARK    3  A    between atoms: N_8  and  C_9
REMARK    4  A    between atoms: C_9  and  C_10
REMARK    5  A    between atoms: C_14  and  N_15
REMARK                            x       y       z     vdW  Elec       q    Type
REMARK                         _______ _______ _______ _____ _____    ______ ____
ROOT
ATOM      1  N   UNL     1       3.632   2.852   5.734  0.00  0.00    +0.000 N 
ATOM      2  H   UNL     1       3.458   2.956   6.733  0.00  0.00    +0.000 HD
ENDROOT
BRANCH   1   6
ATOM      3  C   UNL     1       0.465   1.051   3.610  0.00  0.00    +0.000 A 
ATOM      4  C   UNL     1       1.783   0.750   3.264  0.00  0.00    +0.000 A 
ATOM      5  C   UNL     1       2.841   1.323   3.977  0.00  0.00    +0.000 A 
ATOM      6  C   UNL     1       2.615   2.176   5.064  0.00  0.00    +0.000 A 
ATOM      7  C   UNL     1       1.283   2.471   5.394  0.00  0.00    +0.000 A 
ATOM      8  C   UNL     1       0.216   1.918   4.674  0.00  0.00    +0.000 A 
BRANCH   3  10
ATOM      9  N   UNL     1      -0.505  -0.684   2.199  0.00  0.00    +0.000 N 
ATOM     10  C   UNL     1      -0.683   0.515   2.833  0.00  0.00    +0.000 C 
ATOM     11  O   UNL     1      -1.754   1.104   2.778  0.00  0.00    +0.000 OA
ATOM     12  H   UNL     1      -1.319  -1.076   1.744  0.00  0.00    +0.000 HD
ATOM     13  H   UNL     1       0.259  -1.307   2.419  0.00  0.00    +0.000 HD
ENDBRANCH   3  10
ENDBRANCH   1   6
BRANCH   1  14
ATOM     14  C   UNL     1       5.029   2.639   5.381  0.00  0.00    +0.000 C 
BRANCH  14  15
ATOM     15  C   UNL     1       5.925   3.481   6.242  0.00  0.00    +0.000 A 
ATOM     16  C   UNL     1       6.930   2.904   7.005  0.00  0.00    +0.000 A 
ATOM     17  N   UNL     1       7.754   3.601   7.810  0.00  0.00    +0.000 NA
ATOM     18  C   UNL     1       7.553   4.942   7.861  0.00  0.00    +0.000 A 
ATOM     19  C   UNL     1       6.590   5.653   7.140  0.00  0.00    +0.000 A 
ATOM     20  C   UNL     1       5.787   4.875   6.301  0.00  0.00    +0.000 A 
BRANCH  19  21
ATOM     21  N   UNL     1       6.372   7.003   7.280  0.00  0.00    +0.000 N 
ATOM     22  C   UNL     1       6.632   7.708   8.540  0.00  0.00    +0.000 C 
ATOM     23  C   UNL     1       5.476   8.693   8.785  0.00  0.00    +0.000 C 
ATOM     24  O   UNL     1       5.331   9.614   7.689  0.00  0.00    +0.000 OA
ATOM     25  C   UNL     1       5.052   8.904   6.468  0.00  0.00    +0.000 C 
ATOM     26  C   UNL     1       6.159   7.891   6.129  0.00  0.00    +0.000 C 
ENDBRANCH  19  21
ENDBRANCH  14  15
ENDBRANCH   1  14
TORSDOF 5
