REMARK  Name = 
REMARK  6 active torsions:
REMARK  status: ('A' for Active; 'I' for Inactive)
REMARK    1  A    between atoms: N_1  and  C_2
REMARK    2  A    between atoms: C_2  and  C_3
REMARK    3  A    between atoms: C_3  and  C_4
REMARK    4  A    between atoms: C_7  and  C_8
REMARK    5  A    between atoms: C_8  and  N_9
REMARK    6  A    between atoms: C_15  and  C_16
REMARK                            x       y       z     vdW  Elec       q    Type
REMARK                         _______ _______ _______ _____ _____    ______ ____
ROOT
ATOM      1  N   UNL     1       9.246   2.216   1.883  0.00  0.00    +0.000 N 
ATOM      2  C   UNL     1       9.718   3.323   1.228  0.00  0.00    +0.000 A 
ATOM      3  N   UNL     1      10.326   4.154   2.044  0.00  0.00    +0.000 NA
ATOM      4  C   UNL     1      10.241   3.569   3.275  0.00  0.00    +0.000 A 
ATOM      5  N   UNL     1      10.766   4.070   4.415  0.00  0.00    +0.000 NA
ATOM      6  C   UNL     1      10.555   3.306   5.513  0.00  0.00    +0.000 A 
ATOM      7  C   UNL     1       9.846   2.107   5.546  0.00  0.00    +0.000 A 
ATOM      8  C   UNL     1       9.332   1.584   4.356  0.00  0.00    +0.000 A 
ATOM      9  C   UNL     1       9.552   2.359   3.214  0.00  0.00    +0.000 A 
ENDROOT
BRANCH   7  10
ATOM     10  C   UNL     1       9.681   1.413   6.842  0.00  0.00    +0.000 C 
ATOM     11  N   UNL     1       8.597   0.593   6.985  0.00  0.00    +0.000 N 
ATOM     12  O   UNL     1      10.465   1.590   7.765  0.00  0.00    +0.000 OA
ATOM     13  H   UNL     1       7.803   0.624   6.360  0.00  0.00    +0.000 HD
ATOM     14  H   UNL     1       8.440   0.222   7.915  0.00  0.00    +0.000 HD
ENDBRANCH   7  10
BRANCH   1  15
ATOM     15  C   UNL     1       8.663   1.050   1.238  0.00  0.00    +0.000 C 
BRANCH  15  19
ATOM     16  C   UNL     1       4.346   1.338   1.036  0.00  0.00    +0.000 A 
ATOM     17  C   UNL     1       5.140   1.776  -0.030  0.00  0.00    +0.000 A 
ATOM     18  C   UNL     1       6.533   1.680   0.033  0.00  0.00    +0.000 A 
ATOM     19  C   UNL     1       7.161   1.131   1.160  0.00  0.00    +0.000 A 
ATOM     20  C   UNL     1       6.359   0.665   2.212  0.00  0.00    +0.000 A 
ATOM     21  C   UNL     1       4.967   0.766   2.151  0.00  0.00    +0.000 A 
BRANCH  16  22
ATOM     22  C   UNL     1       2.844   1.499   0.992  0.00  0.00    +0.000 C 
BRANCH  22  23
ATOM     23  C   UNL     1       2.134   0.307   0.345  0.00  0.00    +0.000 C 
BRANCH  23  24
ATOM     24  N   UNL     1       0.689   0.531   0.292  0.00  0.00    +0.000 NA
ATOM     25  H   UNL     1       0.239  -0.259  -0.170  0.00  0.00    +0.000 HD
ATOM     26  H   UNL     1       0.489   1.347  -0.285  0.00  0.00    +0.000 HD
ENDBRANCH  23  24
ENDBRANCH  22  23
ENDBRANCH  16  22
ENDBRANCH  15  19
ENDBRANCH   1  15
TORSDOF 6
