REMARK  Name = 
REMARK  5 active torsions:
REMARK  status: ('A' for Active; 'I' for Inactive)
REMARK    1  A    between atoms: C_2  and  C_4
REMARK    2  A    between atoms: C_7  and  N_8
REMARK    3  A    between atoms: N_8  and  C_9
REMARK    4  A    between atoms: C_9  and  C_10
REMARK    5  A    between atoms: C_14  and  C_15
REMARK                            x       y       z     vdW  Elec       q    Type
REMARK                         _______ _______ _______ _____ _____    ______ ____
ROOT
ATOM      1  C   UNL     1       5.335  -5.114   3.015  0.00  0.00    +0.000 C 
ATOM      2  C   UNL     1       4.792  -6.432   2.467  0.00  0.00    +0.000 C 
ATOM      3  C   UNL     1       3.882  -5.524   3.222  0.00  0.00    +0.000 C 
ENDROOT
BRANCH   1   4
ATOM      4  C   UNL     1       6.249  -5.189   4.240  0.00  0.00    +0.000 A 
ATOM      5  C   UNL     1       6.041  -4.407   5.386  0.00  0.00    +0.000 A 
ATOM      6  C   UNL     1       6.795  -4.610   6.544  0.00  0.00    +0.000 A 
ATOM      7  C   UNL     1       7.768  -5.612   6.583  0.00  0.00    +0.000 A 
ATOM      8  C   UNL     1       8.027  -6.410   5.460  0.00  0.00    +0.000 A 
ATOM      9  C   UNL     1       7.288  -6.138   4.296  0.00  0.00    +0.000 A 
BRANCH   8  10
ATOM     10  C   UNL     1       8.931  -7.576   5.504  0.00  0.00    +0.000 A 
ATOM     11  C   UNL     1       8.976  -8.426   6.617  0.00  0.00    +0.000 A 
ATOM     12  C   UNL     1       9.737  -9.594   6.592  0.00  0.00    +0.000 A 
ATOM     13  C   UNL     1      10.443  -9.891   5.441  0.00  0.00    +0.000 A 
ATOM     14  N   UNL     1      10.454  -9.104   4.348  0.00  0.00    +0.000 NA
ATOM     15  C   UNL     1       9.708  -7.971   4.409  0.00  0.00    +0.000 A 
ENDBRANCH   8  10
ENDBRANCH   1   4
BRANCH   1  16
ATOM     16  N   UNL     1       5.617  -3.996   2.101  0.00  0.00    +0.000 N 
ATOM     17  H   UNL     1       4.933  -3.250   2.017  0.00  0.00    +0.000 HD
BRANCH  16  21
ATOM     18  C   UNL     1       8.531  -4.100  -0.966  0.00  0.00    +0.000 A 
ATOM     19  C   UNL     1       8.184  -5.272  -0.298  0.00  0.00    +0.000 A 
ATOM     20  C   UNL     1       7.221  -5.235   0.709  0.00  0.00    +0.000 A 
ATOM     21  C   UNL     1       6.551  -4.055   1.053  0.00  0.00    +0.000 A 
ATOM     22  C   UNL     1       6.921  -2.881   0.382  0.00  0.00    +0.000 A 
ATOM     23  C   UNL     1       7.907  -2.899  -0.618  0.00  0.00    +0.000 A 
BRANCH  18  25
ATOM     24  N   UNL     1       9.833  -5.287  -2.652  0.00  0.00    +0.000 N 
ATOM     25  C   UNL     1       9.593  -4.104  -2.013  0.00  0.00    +0.000 C 
ATOM     26  O   UNL     1      10.216  -3.090  -2.294  0.00  0.00    +0.000 OA
ATOM     27  H   UNL     1      10.528  -5.275  -3.387  0.00  0.00    +0.000 HD
ATOM     28  H   UNL     1       9.207  -6.076  -2.609  0.00  0.00    +0.000 HD
ENDBRANCH  18  25
ENDBRANCH  16  21
ENDBRANCH   1  16
TORSDOF 5
