REMARK  Name = 
REMARK  8 active torsions:
REMARK  status: ('A' for Active; 'I' for Inactive)
REMARK    1  A    between atoms: C_1  and  C_2
REMARK    2  A    between atoms: C_3  and  C_4
REMARK    3  A    between atoms: C_7  and  O_8
REMARK    4  A    between atoms: O_8  and  C_9
REMARK    5  A    between atoms: C_16  and  C_17
REMARK    6  A    between atoms: C_16  and  N_18
REMARK    7  A    between atoms: N_18  and  C_19
REMARK    8  A    between atoms: C_22  and  C_23
REMARK                            x       y       z     vdW  Elec       q    Type
REMARK                         _______ _______ _______ _____ _____    ______ ____
ROOT
ATOM      1  C   UNL     1       2.545  -0.025  -1.502  0.00  0.00    +0.000 C 
ATOM      2  C   UNL     1       2.388   0.088   0.010  0.00  0.00    +0.000 C 
ATOM      3  C   UNL     1       3.226  -0.982   0.798  0.00  0.00    +0.000 C 
ATOM      4  C   UNL     1       4.199   0.158   1.189  0.00  0.00    +0.000 C 
ATOM      5  C   UNL     1       3.100   1.197   0.859  0.00  0.00    +0.000 C 
ATOM      6  C   UNL     1       2.253   1.715   2.018  0.00  0.00    +0.000 C 
ENDROOT
BRANCH   3   7
ATOM      7  C   UNL     1       2.460  -1.825   1.913  0.00  0.00    +0.000 A 
ATOM      8  C   UNL     1       1.339  -2.606   1.572  0.00  0.00    +0.000 A 
ATOM      9  C   UNL     1       0.642  -3.374   2.513  0.00  0.00    +0.000 A 
ATOM     10  C   UNL     1       1.074  -3.415   3.829  0.00  0.00    +0.000 A 
ATOM     11  C   UNL     1       2.158  -2.627   4.208  0.00  0.00    +0.000 A 
ATOM     12  C   UNL     1       2.841  -1.854   3.265  0.00  0.00    +0.000 A 
BRANCH  10  13
ATOM     13  O   UNL     1       0.511  -4.132   4.839  0.00  0.00    +0.000 OA
BRANCH  13  14
ATOM     14  C   UNL     1      -0.111  -5.374   4.548  0.00  0.00    +0.000 C 
ATOM     15  F   UNL     1       0.094  -5.822   3.293  0.00  0.00    +0.000 F 
ATOM     16  F   UNL     1       0.377  -6.305   5.400  0.00  0.00    +0.000 F 
ATOM     17  F   UNL     1      -1.441  -5.268   4.762  0.00  0.00    +0.000 F 
ENDBRANCH  13  14
ENDBRANCH  10  13
ENDBRANCH   3   7
BRANCH   5  18
ATOM     18  N   UNL     1       3.602   2.283   0.049  0.00  0.00    +0.000 N 
ATOM     19  H   UNL     1       2.866   2.798  -0.429  0.00  0.00    +0.000 HD
BRANCH  18  20
ATOM     20  C   UNL     1       4.596   3.191   0.492  0.00  0.00    +0.000 A 
ATOM     21  N   UNL     1       5.186   3.002   1.694  0.00  0.00    +0.000 NA
ATOM     22  C   UNL     1       6.216   3.820   2.034  0.00  0.00    +0.000 A 
ATOM     23  C   UNL     1       6.721   4.827   1.221  0.00  0.00    +0.000 A 
ATOM     24  C   UNL     1       6.090   5.036  -0.006  0.00  0.00    +0.000 A 
ATOM     25  C   UNL     1       5.027   4.209  -0.363  0.00  0.00    +0.000 A 
ATOM     26  F   UNL     1       4.427   4.399  -1.550  0.00  0.00    +0.000 F 
BRANCH  23  27
ATOM     27  C   UNL     1       7.900   5.580   1.696  0.00  0.00    +0.000 C 
ATOM     28  N   UNL     1       8.449   6.531   0.878  0.00  0.00    +0.000 N 
ATOM     29  O   UNL     1       8.401   5.355   2.795  0.00  0.00    +0.000 OA
ATOM     30  H   UNL     1       8.136   6.758  -0.053  0.00  0.00    +0.000 HD
ATOM     31  H   UNL     1       9.281   6.996   1.218  0.00  0.00    +0.000 HD
ENDBRANCH  23  27
ENDBRANCH  18  20
ENDBRANCH   5  18
TORSDOF 6
