REMARK  Name = 
REMARK  6 active torsions:
REMARK  status: ('A' for Active; 'I' for Inactive)
REMARK    1  A    between atoms: C_1  and  C_2
REMARK    2  A    between atoms: C_2  and  N_3
REMARK    3  A    between atoms: C_2  and  C_18
REMARK    4  A    between atoms: C_7  and  C_8
REMARK    5  A    between atoms: C_8  and  O_9
REMARK    6  A    between atoms: O_9  and  C_10
REMARK                            x       y       z     vdW  Elec       q    Type
REMARK                         _______ _______ _______ _____ _____    ______ ____
ROOT
ATOM      1  N   UNL     1       2.722   1.090   1.176  0.00  0.00    +0.000 N 
ATOM      2  C   UNL     1       2.470   2.456   0.977  0.00  0.00    +0.000 A 
ATOM      3  C   UNL     1       1.148   2.898   0.864  0.00  0.00    +0.000 A 
ATOM      4  N   UNL     1       0.786   4.200   0.731  0.00  0.00    +0.000 NA
ATOM      5  C   UNL     1       1.809   5.089   0.726  0.00  0.00    +0.000 A 
ATOM      6  C   UNL     1       3.123   4.658   0.869  0.00  0.00    +0.000 A 
ATOM      7  N   UNL     1       3.475   3.352   1.004  0.00  0.00    +0.000 NA
ATOM      8  H   UNL     1       2.618   0.930   2.177  0.00  0.00    +0.000 HD
ENDROOT
BRANCH   1  10
ATOM      9  C   UNL     1       4.141   0.703  -0.800  0.00  0.00    +0.000 C 
ATOM     10  C   UNL     1       4.034   0.573   0.728  0.00  0.00    +0.000 C 
BRANCH  10  11
ATOM     11  C   UNL     1       4.245  -0.892   1.131  0.00  0.00    +0.000 A 
ATOM     12  C   UNL     1       3.224  -1.825   1.243  0.00  0.00    +0.000 A 
ATOM     13  S   UNL     1       3.754  -3.347   1.810  0.00  0.00    +0.000 S 
ATOM     14  C   UNL     1       5.374  -2.825   1.874  0.00  0.00    +0.000 A 
ATOM     15  N   UNL     1       6.366  -3.652   2.301  0.00  0.00    +0.000 NA
ATOM     16  C   UNL     1       7.546  -3.125   2.268  0.00  0.00    +0.000 A 
ATOM     17  N   UNL     1       7.825  -1.854   1.834  0.00  0.00    +0.000 N 
ATOM     18  C   UNL     1       6.860  -0.997   1.359  0.00  0.00    +0.000 A 
ATOM     19  O   UNL     1       7.141   0.105   0.891  0.00  0.00    +0.000 OA
ATOM     20  C   UNL     1       5.509  -1.521   1.434  0.00  0.00    +0.000 A 
ATOM     21  H   UNL     1       8.777  -1.521   1.791  0.00  0.00    +0.000 HD
ENDBRANCH  10  11
ENDBRANCH   1  10
BRANCH   5  22
ATOM     22  C   UNL     1       1.487   6.552   0.550  0.00  0.00    +0.000 C 
BRANCH  22  23
ATOM     23  O   UNL     1       1.594   6.894  -0.834  0.00  0.00    +0.000 OA
BRANCH  23  24
ATOM     24  C   UNL     1       1.337   8.193  -1.167  0.00  0.00    +0.000 A 
ATOM     25  C   UNL     1       0.966   9.215  -0.297  0.00  0.00    +0.000 A 
ATOM     26  C   UNL     1       0.766  10.505  -0.793  0.00  0.00    +0.000 A 
ATOM     27  C   UNL     1       0.936  10.729  -2.149  0.00  0.00    +0.000 A 
ATOM     28  N   UNL     1       1.282   9.764  -3.025  0.00  0.00    +0.000 NA
ATOM     29  C   UNL     1       1.470   8.522  -2.513  0.00  0.00    +0.000 A 
ENDBRANCH  23  24
ENDBRANCH  22  23
ENDBRANCH   5  22
TORSDOF 5
