REMARK  Name = 
REMARK  9 active torsions:
REMARK  status: ('A' for Active; 'I' for Inactive)
REMARK    1  A    between atoms: C_1  and  O_2
REMARK    2  A    between atoms: O_2  and  C_3
REMARK    3  A    between atoms: C_10  and  C_11
REMARK    4  A    between atoms: N_13  and  C_14
REMARK    5  A    between atoms: C_14  and  C_15
REMARK    6  A    between atoms: C_18  and  C_19
REMARK    7  A    between atoms: C_19  and  N_20
REMARK    8  A    between atoms: N_20  and  C_21
REMARK    9  A    between atoms: C_21  and  C_22
REMARK                            x       y       z     vdW  Elec       q    Type
REMARK                         _______ _______ _______ _____ _____    ______ ____
ROOT
ATOM      1  C   UNL     1       1.392   2.376  -2.108  0.00  0.00    +0.000 A 
ATOM      2  C   UNL     1       1.341   1.013  -2.429  0.00  0.00    +0.000 A 
ATOM      3  C   UNL     1       0.184   0.452  -2.984  0.00  0.00    +0.000 A 
ATOM      4  C   UNL     1      -0.946   1.241  -3.243  0.00  0.00    +0.000 A 
ATOM      5  C   UNL     1      -0.875   2.614  -2.968  0.00  0.00    +0.000 A 
ATOM      6  C   UNL     1       0.282   3.176  -2.413  0.00  0.00    +0.000 A 
ENDROOT
BRANCH   1   7
ATOM      7  C   UNL     1       2.619   2.973  -1.460  0.00  0.00    +0.000 C 
BRANCH   7  10
ATOM      8  C   UNL     1       4.759   4.015  -2.100  0.00  0.00    +0.000 C 
ATOM      9  O   UNL     1       5.108   4.111  -0.925  0.00  0.00    +0.000 OA
ATOM     10  N   UNL     1       3.553   3.469  -2.441  0.00  0.00    +0.000 N 
ATOM     11  H   UNL     1       3.260   3.451  -3.406  0.00  0.00    +0.000 HD
BRANCH   8  19
ATOM     12  C   UNL     1       4.458   3.974  -5.525  0.00  0.00    +0.000 A 
ATOM     13  N   UNL     1       4.594   4.076  -6.862  0.00  0.00    +0.000 NA
ATOM     14  C   UNL     1       5.719   4.621  -7.336  0.00  0.00    +0.000 A 
ATOM     15  N   UNL     1       6.745   5.089  -6.629  0.00  0.00    +0.000 NA
ATOM     16  C   UNL     1       6.563   4.971  -5.302  0.00  0.00    +0.000 A 
ATOM     17  S   UNL     1       7.768   5.522  -4.239  0.00  0.00    +0.000 S 
ATOM     18  C   UNL     1       6.855   5.055  -2.883  0.00  0.00    +0.000 A 
ATOM     19  C   UNL     1       5.629   4.478  -3.199  0.00  0.00    +0.000 A 
ATOM     20  C   UNL     1       5.458   4.436  -4.651  0.00  0.00    +0.000 A 
BRANCH  12  22
ATOM     21  C   UNL     1       2.616   2.586  -5.943  0.00  0.00    +0.000 C 
ATOM     22  O   UNL     1       3.284   3.451  -5.030  0.00  0.00    +0.000 OA
ENDBRANCH  12  22
ENDBRANCH   8  19
ENDBRANCH   7  10
ENDBRANCH   1   7
BRANCH   4  23
ATOM     23  C   UNL     1      -2.204   0.628  -3.825  0.00  0.00    +0.000 C 
BRANCH  23  24
ATOM     24  N   UNL     1      -2.729  -0.437  -2.968  0.00  0.00    +0.000 NA
ATOM     25  H   UNL     1      -2.923  -0.048  -2.045  0.00  0.00    +0.000 HD
BRANCH  24  26
ATOM     26  C   UNL     1      -3.956  -1.015  -3.517  0.00  0.00    +0.000 C 
BRANCH  26  27
ATOM     27  C   UNL     1      -4.479  -2.114  -2.630  0.00  0.00    +0.000 A 
ATOM     28  C   UNL     1      -5.749  -2.044  -2.059  0.00  0.00    +0.000 A 
ATOM     29  N   UNL     1      -6.272  -2.991  -1.244  0.00  0.00    +0.000 NA
ATOM     30  C   UNL     1      -5.490  -4.067  -0.986  0.00  0.00    +0.000 A 
ATOM     31  C   UNL     1      -4.220  -4.240  -1.514  0.00  0.00    +0.000 A 
ATOM     32 CL   UNL     1      -3.292  -5.636  -1.143  0.00  0.00    +0.000 Cl
ATOM     33  C   UNL     1      -3.711  -3.252  -2.350  0.00  0.00    +0.000 A 
ENDBRANCH  26  27
ENDBRANCH  24  26
ENDBRANCH  23  24
ENDBRANCH   4  23
TORSDOF 8
