REMARK  Name = 
REMARK  7 active torsions:
REMARK  status: ('A' for Active; 'I' for Inactive)
REMARK    1  A    between atoms: C_2  and  C_20
REMARK    2  A    between atoms: N_3  and  C_4
REMARK    3  A    between atoms: C_4  and  C_5
REMARK    4  A    between atoms: C_8  and  C_9
REMARK    5  A    between atoms: C_9  and  C_10
REMARK    6  A    between atoms: C_10  and  O_11
REMARK    7  A    between atoms: C_10  and  C_12
REMARK                            x       y       z     vdW  Elec       q    Type
REMARK                         _______ _______ _______ _____ _____    ______ ____
ROOT
ATOM      1  C   UNL     1       2.174  -0.234  -2.380  0.00  0.00    +0.000 C 
ENDROOT
BRANCH   1   2
ATOM      2  C   UNL     1       3.091  -0.301  -3.577  0.00  0.00    +0.000 A 
ATOM      3  C   UNL     1       3.541   0.875  -4.166  0.00  0.00    +0.000 A 
ATOM      4  C   UNL     1       4.398   0.798  -5.262  0.00  0.00    +0.000 A 
ATOM      5  C   UNL     1       4.778  -0.452  -5.758  0.00  0.00    +0.000 A 
ATOM      6  C   UNL     1       4.265  -1.572  -5.113  0.00  0.00    +0.000 A 
ATOM      7  N   UNL     1       3.435  -1.526  -4.045  0.00  0.00    +0.000 NA
BRANCH   5   8
ATOM      8  C   UNL     1       5.750  -0.580  -6.908  0.00  0.00    +0.000 C 
BRANCH   8   9
ATOM      9  C   UNL     1       5.199  -1.332  -8.141  0.00  0.00    +0.000 C 
BRANCH   9  10
ATOM     10  C   UNL     1       6.258  -1.548  -9.251  0.00  0.00    +0.000 C 
ATOM     11  C   UNL     1       6.838  -0.233  -9.803  0.00  0.00    +0.000 C 
ATOM     12  C   UNL     1       7.723  -0.476 -11.022  0.00  0.00    +0.000 C 
ATOM     13  C   UNL     1       6.982  -1.316 -12.048  0.00  0.00    +0.000 C 
ATOM     14  O   UNL     1       6.614  -2.562 -11.460  0.00  0.00    +0.000 OA
ATOM     15  C   UNL     1       5.669  -2.387 -10.401  0.00  0.00    +0.000 C 
ENDBRANCH   9  10
BRANCH   9  16
ATOM     16  O   UNL     1       4.081  -0.629  -8.689  0.00  0.00    +0.000 OA
ATOM     17  H   UNL     1       4.314   0.312  -8.764  0.00  0.00    +0.000 HD
ENDBRANCH   9  16
ENDBRANCH   8   9
ENDBRANCH   5   8
ENDBRANCH   1   2
BRANCH   1  20
ATOM     18  O   UNL     1       0.714   2.118  -2.798  0.00  0.00    +0.000 OA
ATOM     19  C   UNL     1       0.161   1.037  -2.982  0.00  0.00    +0.000 C 
ATOM     20  N   UNL     1       0.783  -0.163  -2.760  0.00  0.00    +0.000 N 
ATOM     21  H   UNL     1       0.424  -1.002  -3.194  0.00  0.00    +0.000 HD
BRANCH  19  22
ATOM     22  C   UNL     1      -1.234   0.956  -3.409  0.00  0.00    +0.000 A 
ATOM     23  C   UNL     1      -2.133   1.966  -3.097  0.00  0.00    +0.000 A 
ATOM     24  S   UNL     1      -3.702   1.681  -3.708  0.00  0.00    +0.000 S 
ATOM     25  C   UNL     1      -3.219   0.211  -4.418  0.00  0.00    +0.000 A 
ATOM     26  N   UNL     1      -4.090  -0.549  -5.134  0.00  0.00    +0.000 NA
ATOM     27  C   UNL     1      -3.572  -1.622  -5.635  0.00  0.00    +0.000 A 
ATOM     28  N   UNL     1      -2.271  -2.015  -5.479  0.00  0.00    +0.000 N 
ATOM     29  C   UNL     1      -1.375  -1.315  -4.713  0.00  0.00    +0.000 A 
ATOM     30  O   UNL     1      -0.256  -1.759  -4.492  0.00  0.00    +0.000 OA
ATOM     31  C   UNL     1      -1.891  -0.073  -4.167  0.00  0.00    +0.000 A 
ATOM     32  H   UNL     1      -1.934  -2.882  -5.868  0.00  0.00    +0.000 HD
ENDBRANCH  19  22
ENDBRANCH   1  20
TORSDOF 7
