REMARK  Name = 
REMARK  7 active torsions:
REMARK  status: ('A' for Active; 'I' for Inactive)
REMARK    1  A    between atoms: C_2  and  C_20
REMARK    2  A    between atoms: N_3  and  C_4
REMARK    3  A    between atoms: C_4  and  C_5
REMARK    4  A    between atoms: C_8  and  C_9
REMARK    5  A    between atoms: C_9  and  N_10
REMARK    6  A    between atoms: N_10  and  C_11
REMARK    7  A    between atoms: C_11  and  C_12
REMARK                            x       y       z     vdW  Elec       q    Type
REMARK                         _______ _______ _______ _____ _____    ______ ____
ROOT
ATOM      1  C   UNL     1       3.103   2.066   3.039  0.00  0.00    +0.000 A 
ATOM      2  C   UNL     1       3.021   3.452   3.125  0.00  0.00    +0.000 A 
ATOM      3  C   UNL     1       3.859   4.126   4.004  0.00  0.00    +0.000 A 
ATOM      4  C   UNL     1       4.772   3.409   4.779  0.00  0.00    +0.000 A 
ATOM      5  C   UNL     1       4.816   2.030   4.591  0.00  0.00    +0.000 A 
ATOM      6  N   UNL     1       4.009   1.345   3.749  0.00  0.00    +0.000 NA
ENDROOT
BRANCH   1   7
ATOM      7  C   UNL     1       2.167   1.312   2.126  0.00  0.00    +0.000 C 
BRANCH   7  10
ATOM      8  O   UNL     1       1.792   3.169   0.023  0.00  0.00    +0.000 OA
ATOM      9  C   UNL     1       2.409   2.134  -0.194  0.00  0.00    +0.000 C 
ATOM     10  N   UNL     1       2.675   1.208   0.782  0.00  0.00    +0.000 N 
ATOM     11  H   UNL     1       3.153   0.348   0.555  0.00  0.00    +0.000 HD
BRANCH   9  12
ATOM     12  C   UNL     1       2.965   1.828  -1.515  0.00  0.00    +0.000 A 
ATOM     13  C   UNL     1       3.270   2.847  -2.405  0.00  0.00    +0.000 A 
ATOM     14  S   UNL     1       3.967   2.287  -3.860  0.00  0.00    +0.000 S 
ATOM     15  C   UNL     1       3.846   0.663  -3.362  0.00  0.00    +0.000 A 
ATOM     16  N   UNL     1       4.289  -0.351  -4.151  0.00  0.00    +0.000 NA
ATOM     17  C   UNL     1       4.110  -1.530  -3.652  0.00  0.00    +0.000 A 
ATOM     18  N   UNL     1       3.521  -1.787  -2.446  0.00  0.00    +0.000 N 
ATOM     19  C   UNL     1       3.068  -0.797  -1.609  0.00  0.00    +0.000 A 
ATOM     20  O   UNL     1       2.567  -1.070  -0.524  0.00  0.00    +0.000 OA
ATOM     21  C   UNL     1       3.268   0.548  -2.110  0.00  0.00    +0.000 A 
ATOM     22  H   UNL     1       3.412  -2.734  -2.113  0.00  0.00    +0.000 HD
ENDBRANCH   9  12
ENDBRANCH   7  10
ENDBRANCH   1   7
BRANCH   4  23
ATOM     23  C   UNL     1       5.714   4.097   5.723  0.00  0.00    +0.000 C 
BRANCH  23  24
ATOM     24  N   UNL     1       5.024   4.854   6.786  0.00  0.00    +0.000 NA
ATOM     25  H   UNL     1       4.441   4.209   7.316  0.00  0.00    +0.000 HD
BRANCH  24  26
ATOM     26  C   UNL     1       6.038   5.461   7.654  0.00  0.00    +0.000 C 
BRANCH  26  27
ATOM     27  C   UNL     1       5.569   6.226   8.902  0.00  0.00    +0.000 C 
ATOM     28  C   UNL     1       4.698   7.460   8.636  0.00  0.00    +0.000 C 
ATOM     29  C   UNL     1       4.511   8.217   9.956  0.00  0.00    +0.000 C 
ATOM     30  C   UNL     1       3.994   7.308  11.075  0.00  0.00    +0.000 C 
ATOM     31  N   UNL     1       4.771   6.074  11.213  0.00  0.00    +0.000 NA
ATOM     32  C   UNL     1       4.870   5.345   9.943  0.00  0.00    +0.000 C 
ATOM     33  H   UNL     1       4.340   5.478  11.918  0.00  0.00    +0.000 HD
ENDBRANCH  26  27
ENDBRANCH  24  26
ENDBRANCH  23  24
ENDBRANCH   4  23
TORSDOF 7
