REMARK  Name = 
REMARK  6 active torsions:
REMARK  status: ('A' for Active; 'I' for Inactive)
REMARK    1  A    between atoms: C_1  and  C_2
REMARK    2  A    between atoms: C_2  and  C_3
REMARK    3  A    between atoms: C_2  and  C_14
REMARK    4  A    between atoms: C_3  and  N_4
REMARK    5  A    between atoms: N_4  and  C_5
REMARK    6  A    between atoms: C_8  and  C_9
REMARK                            x       y       z     vdW  Elec       q    Type
REMARK                         _______ _______ _______ _____ _____    ______ ____
ROOT
ATOM      1  N   UNL     1       2.902  -2.249   0.341  0.00  0.00    +0.000 N 
ATOM      2  H   UNL     1       2.939  -1.879   1.287  0.00  0.00    +0.000 HD
ENDROOT
BRANCH   1   3
ATOM      3  C   UNL     1       3.491  -3.506   0.209  0.00  0.00    +0.000 A 
ATOM      4  C   UNL     1       4.171  -3.972  -0.908  0.00  0.00    +0.000 A 
ATOM      5  N   UNL     1       4.660  -5.224  -1.066  0.00  0.00    +0.000 NA
ATOM      6  C   UNL     1       4.421  -6.070  -0.039  0.00  0.00    +0.000 A 
ATOM      7  N   UNL     1       3.763  -5.760   1.092  0.00  0.00    +0.000 NA
ATOM      8  C   UNL     1       3.310  -4.490   1.174  0.00  0.00    +0.000 A 
BRANCH   6   9
ATOM      9  C   UNL     1       4.919  -7.490  -0.210  0.00  0.00    +0.000 C 
ATOM     10  N   UNL     1       5.575  -7.752  -1.392  0.00  0.00    +0.000 N 
ATOM     11  O   UNL     1       4.764  -8.378   0.620  0.00  0.00    +0.000 OA
ATOM     12  H   UNL     1       5.678  -7.024  -2.090  0.00  0.00    +0.000 HD
ATOM     13  H   UNL     1       5.904  -8.689  -1.573  0.00  0.00    +0.000 HD
ENDBRANCH   6   9
ENDBRANCH   1   3
BRANCH   1  14
ATOM     14  C   UNL     1       3.090  -1.252  -0.699  0.00  0.00    +0.000 C 
BRANCH  14  16
ATOM     15  C   UNL     1       0.919  -0.028  -0.024  0.00  0.00    +0.000 C 
ATOM     16  C   UNL     1       2.392   0.025  -0.319  0.00  0.00    +0.000 C 
BRANCH  16  17
ATOM     17  C   UNL     1       2.975   1.299  -0.918  0.00  0.00    +0.000 C 
ATOM     18  C   UNL     1       2.722   2.561  -0.074  0.00  0.00    +0.000 C 
ATOM     19  C   UNL     1       3.373   3.792  -0.710  0.00  0.00    +0.000 C 
ATOM     20  C   UNL     1       2.908   3.997  -2.149  0.00  0.00    +0.000 C 
ATOM     21  C   UNL     1       3.128   2.748  -2.996  0.00  0.00    +0.000 C 
ATOM     22  C   UNL     1       2.485   1.516  -2.362  0.00  0.00    +0.000 C 
ENDBRANCH  16  17
ENDBRANCH  14  16
ENDBRANCH   1  14
TORSDOF 5
