REMARK  Name = 
REMARK  8 active torsions:
REMARK  status: ('A' for Active; 'I' for Inactive)
REMARK    1  A    between atoms: C_1  and  C_2
REMARK    2  A    between atoms: C_2  and  C_3
REMARK    3  A    between atoms: C_2  and  O_4
REMARK    4  A    between atoms: C_2  and  C_5
REMARK    5  A    between atoms: N_7  and  C_8
REMARK    6  A    between atoms: C_8  and  C_9
REMARK    7  A    between atoms: C_12  and  C_13
REMARK    8  A    between atoms: C_13  and  N_14
REMARK                            x       y       z     vdW  Elec       q    Type
REMARK                         _______ _______ _______ _____ _____    ______ ____
ROOT
ATOM      1  C   UNL     1       2.869  -0.089  -1.441  0.00  0.00    +0.000 A 
ATOM      2  C   UNL     1       3.122   1.022  -2.228  0.00  0.00    +0.000 A 
ATOM      3  N   UNL     1       3.602   0.614  -3.443  0.00  0.00    +0.000 N 
ATOM      4  C   UNL     1       3.598  -0.764  -3.512  0.00  0.00    +0.000 A 
ATOM      5  C   UNL     1       3.964  -1.640  -4.551  0.00  0.00    +0.000 A 
ATOM      6  C   UNL     1       3.893  -3.018  -4.326  0.00  0.00    +0.000 A 
ATOM      7  C   UNL     1       3.464  -3.512  -3.102  0.00  0.00    +0.000 A 
ATOM      8  C   UNL     1       3.100  -2.634  -2.081  0.00  0.00    +0.000 A 
ATOM      9  F   UNL     1       2.701  -3.159  -0.914  0.00  0.00    +0.000 F 
ATOM     10  C   UNL     1       3.155  -1.235  -2.266  0.00  0.00    +0.000 A 
ENDROOT
BRANCH   1  12
ATOM     11  C   UNL     1       3.477  -0.649   0.937  0.00  0.00    +0.000 C 
ATOM     12  C   UNL     1       2.411  -0.056   0.006  0.00  0.00    +0.000 C 
ATOM     13  C   UNL     1       1.057  -0.745   0.205  0.00  0.00    +0.000 C 
BRANCH  12  14
ATOM     14  O   UNL     1       2.224   1.313   0.424  0.00  0.00    +0.000 OA
ATOM     15  H   UNL     1       2.027   1.300   1.375  0.00  0.00    +0.000 HD
ENDBRANCH  12  14
ENDBRANCH   1  12
BRANCH   3  16
ATOM     16  C   UNL     1       4.069   1.528  -4.482  0.00  0.00    +0.000 C 
BRANCH  16  17
ATOM     17  C   UNL     1       5.520   1.865  -4.287  0.00  0.00    +0.000 A 
ATOM     18  C   UNL     1       5.919   2.988  -3.558  0.00  0.00    +0.000 A 
ATOM     19  C   UNL     1       7.273   3.211  -3.319  0.00  0.00    +0.000 A 
ATOM     20  C   UNL     1       8.207   2.305  -3.819  0.00  0.00    +0.000 A 
ATOM     21  N   UNL     1       7.845   1.230  -4.563  0.00  0.00    +0.000 NA
ATOM     22  C   UNL     1       6.523   1.033  -4.769  0.00  0.00    +0.000 A 
BRANCH  20  23
ATOM     23  C   UNL     1       9.679   2.470  -3.511  0.00  0.00    +0.000 C 
BRANCH  23  24
ATOM     24  N   UNL     1      10.232   3.735  -4.005  0.00  0.00    +0.000 NA
ATOM     25  H   UNL     1      10.060   3.776  -5.010  0.00  0.00    +0.000 HD
ATOM     26  H   UNL     1      11.245   3.702  -3.899  0.00  0.00    +0.000 HD
ENDBRANCH  23  24
ENDBRANCH  20  23
ENDBRANCH  16  17
ENDBRANCH   3  16
TORSDOF 6
