REMARK  Name = 
REMARK  5 active torsions:
REMARK  status: ('A' for Active; 'I' for Inactive)
REMARK    1  A    between atoms: C_2  and  C_4
REMARK    2  A    between atoms: C_7  and  C_8
REMARK    3  A    between atoms: C_8  and  C_9
REMARK    4  A    between atoms: C_9  and  C_10
REMARK    5  A    between atoms: C_13  and  C_14
REMARK                            x       y       z     vdW  Elec       q    Type
REMARK                         _______ _______ _______ _____ _____    ______ ____
ROOT
ATOM      1  C   UNL     1       4.688   4.507  -4.219  0.00  0.00    +0.000 C 
ATOM      2  C   UNL     1       4.501   5.676  -3.257  0.00  0.00    +0.000 C 
ATOM      3  C   UNL     1       3.316   5.162  -4.013  0.00  0.00    +0.000 C 
ENDROOT
BRANCH   1   4
ATOM      4  C   UNL     1       5.234   4.771  -5.618  0.00  0.00    +0.000 A 
ATOM      5  C   UNL     1       4.598   4.217  -6.742  0.00  0.00    +0.000 A 
ATOM      6  C   UNL     1       4.911   4.662  -8.017  0.00  0.00    +0.000 A 
ATOM      7  C   UNL     1       5.897   5.628  -8.135  0.00  0.00    +0.000 A 
ATOM      8  N   UNL     1       6.636   6.101  -7.090  0.00  0.00    +0.000 NA
ATOM      9  C   UNL     1       6.288   5.650  -5.866  0.00  0.00    +0.000 A 
BRANCH   7  10
ATOM     10  C   UNL     1       6.123   6.285  -9.455  0.00  0.00    +0.000 C 
ATOM     11  N   UNL     1       7.069   7.272  -9.452  0.00  0.00    +0.000 N 
ATOM     12  O   UNL     1       5.493   5.989 -10.461  0.00  0.00    +0.000 OA
ATOM     13  H   UNL     1       7.549   7.495  -8.587  0.00  0.00    +0.000 HD
ATOM     14  H   UNL     1       7.259   7.784 -10.301  0.00  0.00    +0.000 HD
ENDBRANCH   7  10
ENDBRANCH   1   4
BRANCH   1  15
ATOM     15  C   UNL     1       5.041   3.119  -3.706  0.00  0.00    +0.000 C 
BRANCH  15  19
ATOM     16  C   UNL     1       4.027   1.796   0.269  0.00  0.00    +0.000 A 
ATOM     17  C   UNL     1       3.203   1.458  -0.810  0.00  0.00    +0.000 A 
ATOM     18  C   UNL     1       3.497   1.933  -2.091  0.00  0.00    +0.000 A 
ATOM     19  C   UNL     1       4.620   2.744  -2.306  0.00  0.00    +0.000 A 
ATOM     20  C   UNL     1       5.419   3.107  -1.211  0.00  0.00    +0.000 A 
ATOM     21  C   UNL     1       5.120   2.644   0.071  0.00  0.00    +0.000 A 
BRANCH  16  23
ATOM     22  N   UNL     1       3.209   0.016   1.705  0.00  0.00    +0.000 N 
ATOM     23  C   UNL     1       3.787   1.253   1.630  0.00  0.00    +0.000 C 
ATOM     24  O   UNL     1       4.136   1.853   2.637  0.00  0.00    +0.000 OA
ATOM     25  H   UNL     1       3.172  -0.402   2.625  0.00  0.00    +0.000 HD
ATOM     26  H   UNL     1       3.179  -0.605   0.909  0.00  0.00    +0.000 HD
ENDBRANCH  16  23
ENDBRANCH  15  19
ENDBRANCH   1  15
TORSDOF 5
