REMARK  Name = 
REMARK  7 active torsions:
REMARK  status: ('A' for Active; 'I' for Inactive)
REMARK    1  A    between atoms: C_1  and  N_2
REMARK    2  A    between atoms: N_2  and  C_3
REMARK    3  A    between atoms: C_3  and  C_4
REMARK    4  A    between atoms: C_7  and  C_8
REMARK    5  A    between atoms: C_8  and  N_9
REMARK    6  A    between atoms: C_10  and  C_12
REMARK    7  A    between atoms: C_20  and  C_22
REMARK                            x       y       z     vdW  Elec       q    Type
REMARK                         _______ _______ _______ _____ _____    ______ ____
ROOT
ATOM      1  C   UNL     1       2.163  -1.796  -1.689  0.00  0.00    +0.000 A 
ATOM      2  C   UNL     1       2.307  -3.187  -1.683  0.00  0.00    +0.000 A 
ATOM      3  C   UNL     1       1.488  -3.971  -2.488  0.00  0.00    +0.000 A 
ATOM      4  C   UNL     1       0.526  -3.342  -3.272  0.00  0.00    +0.000 A 
ATOM      5  N   UNL     1       0.412  -1.990  -3.345  0.00  0.00    +0.000 NA
ATOM      6  C   UNL     1       1.228  -1.253  -2.558  0.00  0.00    +0.000 A 
ENDROOT
BRANCH   1   7
ATOM      7  C   UNL     1       2.949  -0.928  -0.751  0.00  0.00    +0.000 C 
BRANCH   7   9
ATOM      8  C   UNL     1       4.780  -0.745  -2.501  0.00  0.00    +0.000 C 
ATOM      9  N   UNL     1       4.218  -0.364  -1.211  0.00  0.00    +0.000 N 
ATOM     10  C   UNL     1       4.903   0.660  -0.528  0.00  0.00    +0.000 C 
ATOM     11  O   UNL     1       5.908   1.178  -1.012  0.00  0.00    +0.000 OA
BRANCH  10  12
ATOM     12  C   UNL     1       4.439   1.090   0.800  0.00  0.00    +0.000 A 
ATOM     13  C   UNL     1       4.110   0.230   1.836  0.00  0.00    +0.000 A 
ATOM     14  S   UNL     1       3.679   1.031   3.281  0.00  0.00    +0.000 S 
ATOM     15  C   UNL     1       4.066   2.547   2.616  0.00  0.00    +0.000 A 
ATOM     16  N   UNL     1       4.024   3.674   3.375  0.00  0.00    +0.000 NA
ATOM     17  C   UNL     1       4.419   4.739   2.759  0.00  0.00    +0.000 A 
ATOM     18  N   UNL     1       4.812   4.784   1.446  0.00  0.00    +0.000 N 
ATOM     19  C   UNL     1       4.735   3.695   0.602  0.00  0.00    +0.000 A 
ATOM     20  O   UNL     1       4.859   3.825  -0.609  0.00  0.00    +0.000 OA
ATOM     21  C   UNL     1       4.420   2.452   1.283  0.00  0.00    +0.000 A 
ATOM     22  H   UNL     1       5.042   5.663   1.007  0.00  0.00    +0.000 HD
ENDBRANCH  10  12
ENDBRANCH   7   9
ENDBRANCH   1   7
BRANCH   4  23
ATOM     23  C   UNL     1      -0.464  -4.164  -4.060  0.00  0.00    +0.000 C 
BRANCH  23  24
ATOM     24  N   UNL     1      -0.025  -4.439  -5.408  0.00  0.00    +0.000 N 
ATOM     25  C   UNL     1       0.626  -5.594  -5.757  0.00  0.00    +0.000 C 
ATOM     26  O   UNL     1       0.944  -6.447  -4.931  0.00  0.00    +0.000 OA
ATOM     27  H   UNL     1      -0.157  -3.704  -6.091  0.00  0.00    +0.000 HD
BRANCH  25  28
ATOM     28  C   UNL     1       0.886  -5.763  -7.161  0.00  0.00    +0.000 A 
ATOM     29  N   UNL     1       1.537  -6.873  -7.654  0.00  0.00    +0.000 N 
ATOM     30  C   UNL     1       1.587  -6.774  -9.011  0.00  0.00    +0.000 A 
ATOM     31  N   UNL     1       1.030  -5.663  -9.427  0.00  0.00    +0.000 NA
ATOM     32  C   UNL     1       0.590  -5.023  -8.292  0.00  0.00    +0.000 A 
ATOM     33 CL   UNL     1      -0.225  -3.529  -8.392  0.00  0.00    +0.000 Cl
ATOM     34  H   UNL     1       1.892  -7.634  -7.088  0.00  0.00    +0.000 HD
ENDBRANCH  25  28
ENDBRANCH  23  24
ENDBRANCH   4  23
TORSDOF 6
