REMARK  Name = 
REMARK  7 active torsions:
REMARK  status: ('A' for Active; 'I' for Inactive)
REMARK    1  A    between atoms: C_2  and  C_20
REMARK    2  A    between atoms: N_3  and  C_4
REMARK    3  A    between atoms: C_4  and  C_5
REMARK    4  A    between atoms: C_8  and  C_9
REMARK    5  A    between atoms: C_9  and  O_10
REMARK    6  A    between atoms: O_10  and  C_11
REMARK    7  A    between atoms: C_11  and  C_12
REMARK                            x       y       z     vdW  Elec       q    Type
REMARK                         _______ _______ _______ _____ _____    ______ ____
ROOT
ATOM      1  C   UNL     1       2.191  -1.533  -1.917  0.00  0.00    +0.000 C 
ENDROOT
BRANCH   1   2
ATOM      2  C   UNL     1       3.145  -2.276  -2.822  0.00  0.00    +0.000 A 
ATOM      3  C   UNL     1       4.091  -1.587  -3.579  0.00  0.00    +0.000 A 
ATOM      4  C   UNL     1       4.924  -2.304  -4.440  0.00  0.00    +0.000 A 
ATOM      5  C   UNL     1       4.809  -3.692  -4.523  0.00  0.00    +0.000 A 
ATOM      6  C   UNL     1       3.863  -4.297  -3.703  0.00  0.00    +0.000 A 
ATOM      7  N   UNL     1       3.045  -3.628  -2.857  0.00  0.00    +0.000 NA
BRANCH   5   8
ATOM      8  C   UNL     1       5.655  -4.514  -5.452  0.00  0.00    +0.000 C 
BRANCH   8   9
ATOM      9  O   UNL     1       4.784  -5.217  -6.332  0.00  0.00    +0.000 OA
BRANCH   9  10
ATOM     10  C   UNL     1       5.493  -6.023  -7.274  0.00  0.00    +0.000 C 
BRANCH  10  11
ATOM     11  C   UNL     1       4.530  -6.728  -8.198  0.00  0.00    +0.000 A 
ATOM     12  C   UNL     1       3.308  -6.152  -8.535  0.00  0.00    +0.000 A 
ATOM     13  N   UNL     1       2.426  -6.729  -9.387  0.00  0.00    +0.000 NA
ATOM     14  C   UNL     1       2.812  -7.918  -9.895  0.00  0.00    +0.000 A 
ATOM     15  C   UNL     1       4.029  -8.498  -9.578  0.00  0.00    +0.000 A 
ATOM     16  N   UNL     1       4.915  -7.918  -8.734  0.00  0.00    +0.000 NA
ENDBRANCH  10  11
ENDBRANCH   9  10
ENDBRANCH   8   9
ENDBRANCH   5   8
ENDBRANCH   1   2
BRANCH   1  19
ATOM     17  O   UNL     1       0.951  -0.075   0.088  0.00  0.00    +0.000 OA
ATOM     18  C   UNL     1       2.021  -0.619   0.343  0.00  0.00    +0.000 C 
ATOM     19  N   UNL     1       2.750  -1.290  -0.608  0.00  0.00    +0.000 N 
ATOM     20  H   UNL     1       3.436  -1.971  -0.297  0.00  0.00    +0.000 HD
BRANCH  18  21
ATOM     21  C   UNL     1       2.626  -0.533   1.679  0.00  0.00    +0.000 A 
ATOM     22  C   UNL     1       2.316   0.526   2.520  0.00  0.00    +0.000 A 
ATOM     23  S   UNL     1       3.156   0.483   4.005  0.00  0.00    +0.000 S 
ATOM     24  C   UNL     1       3.921  -0.984   3.596  0.00  0.00    +0.000 A 
ATOM     25  N   UNL     1       4.781  -1.593   4.451  0.00  0.00    +0.000 NA
ATOM     26  C   UNL     1       5.249  -2.718   4.025  0.00  0.00    +0.000 A 
ATOM     27  N   UNL     1       4.935  -3.291   2.821  0.00  0.00    +0.000 N 
ATOM     28  C   UNL     1       4.112  -2.684   1.904  0.00  0.00    +0.000 A 
ATOM     29  O   UNL     1       3.916  -3.182   0.799  0.00  0.00    +0.000 OA
ATOM     30  C   UNL     1       3.545  -1.424   2.341  0.00  0.00    +0.000 A 
ATOM     31  H   UNL     1       5.339  -4.169   2.536  0.00  0.00    +0.000 HD
ENDBRANCH  18  21
ENDBRANCH   1  19
TORSDOF 7
