REMARK  Name = 
REMARK  10 active torsions:
REMARK  status: ('A' for Active; 'I' for Inactive)
REMARK    1  A    between atoms: C_1  and  O_2
REMARK    2  A    between atoms: O_2  and  C_3
REMARK    3  A    between atoms: C_10  and  C_11
REMARK    4  A    between atoms: N_13  and  C_14
REMARK    5  A    between atoms: C_14  and  C_15
REMARK    6  A    between atoms: C_18  and  C_19
REMARK    7  A    between atoms: C_19  and  N_20
REMARK    8  A    between atoms: N_20  and  C_21
REMARK    9  A    between atoms: C_21  and  C_22
REMARK   10  A    between atoms: C_25  and  C_26
REMARK                            x       y       z     vdW  Elec       q    Type
REMARK                         _______ _______ _______ _____ _____    ______ ____
ROOT
ATOM      1  C   UNL     1       1.670   1.019  -3.031  0.00  0.00    +0.000 A 
ATOM      2  C   UNL     1       1.877  -0.364  -3.119  0.00  0.00    +0.000 A 
ATOM      3  C   UNL     1       0.814  -1.228  -3.411  0.00  0.00    +0.000 A 
ATOM      4  C   UNL     1      -0.479  -0.729  -3.629  0.00  0.00    +0.000 A 
ATOM      5  C   UNL     1      -0.677   0.657  -3.573  0.00  0.00    +0.000 A 
ATOM      6  C   UNL     1       0.386   1.521  -3.284  0.00  0.00    +0.000 A 
ENDROOT
BRANCH   1   7
ATOM      7  C   UNL     1       2.813   1.953  -2.722  0.00  0.00    +0.000 C 
BRANCH   7  10
ATOM      8  C   UNL     1       4.598   3.153  -3.930  0.00  0.00    +0.000 C 
ATOM      9  O   UNL     1       5.076   3.586  -2.885  0.00  0.00    +0.000 OA
ATOM     10  N   UNL     1       3.487   2.354  -3.930  0.00  0.00    +0.000 N 
ATOM     11  H   UNL     1       3.071   2.068  -4.804  0.00  0.00    +0.000 HD
BRANCH   8  19
ATOM     12  C   UNL     1       3.863   2.199  -7.158  0.00  0.00    +0.000 A 
ATOM     13  N   UNL     1       3.808   1.979  -8.486  0.00  0.00    +0.000 NA
ATOM     14  C   UNL     1       4.729   2.563  -9.256  0.00  0.00    +0.000 A 
ATOM     15  N   UNL     1       5.718   3.361  -8.858  0.00  0.00    +0.000 NA
ATOM     16  C   UNL     1       5.732   3.560  -7.530  0.00  0.00    +0.000 A 
ATOM     17  S   UNL     1       6.924   4.554  -6.844  0.00  0.00    +0.000 S 
ATOM     18  C   UNL     1       6.308   4.301  -5.281  0.00  0.00    +0.000 A 
ATOM     19  C   UNL     1       5.197   3.465  -5.241  0.00  0.00    +0.000 A 
ATOM     20  C   UNL     1       4.850   3.027  -6.593  0.00  0.00    +0.000 A 
BRANCH  12  22
ATOM     21  C   UNL     1       2.323   0.451  -6.944  0.00  0.00    +0.000 C 
ATOM     22  O   UNL     1       2.886   1.629  -6.370  0.00  0.00    +0.000 OA
ENDBRANCH  12  22
ENDBRANCH   8  19
ENDBRANCH   7  10
ENDBRANCH   1   7
BRANCH   4  23
ATOM     23  C   UNL     1      -1.631  -1.665  -3.929  0.00  0.00    +0.000 C 
BRANCH  23  24
ATOM     24  N   UNL     1      -1.827  -2.622  -2.842  0.00  0.00    +0.000 NA
ATOM     25  H   UNL     1      -2.029  -2.107  -1.984  0.00  0.00    +0.000 HD
BRANCH  24  26
ATOM     26  C   UNL     1      -2.960  -3.520  -3.106  0.00  0.00    +0.000 C 
BRANCH  26  27
ATOM     27  C   UNL     1      -3.168  -4.513  -1.975  0.00  0.00    +0.000 A 
ATOM     28  C   UNL     1      -2.142  -5.386  -1.617  0.00  0.00    +0.000 A 
ATOM     29  C   UNL     1      -2.338  -6.267  -0.556  0.00  0.00    +0.000 A 
ATOM     30  C   UNL     1      -3.554  -6.268   0.122  0.00  0.00    +0.000 A 
ATOM     31  C   UNL     1      -3.814  -7.189   1.272  0.00  0.00    +0.000 C 
ATOM     32  C   UNL     1      -4.527  -5.372  -0.309  0.00  0.00    +0.000 A 
ATOM     33  N   UNL     1      -4.362  -4.499  -1.332  0.00  0.00    +0.000 NA
ENDBRANCH  26  27
ENDBRANCH  24  26
ENDBRANCH  23  24
ENDBRANCH   4  23
TORSDOF 8
