REMARK  Name = 
REMARK  9 active torsions:
REMARK  status: ('A' for Active; 'I' for Inactive)
REMARK    1  A    between atoms: C_1  and  O_2
REMARK    2  A    between atoms: O_2  and  C_3
REMARK    3  A    between atoms: C_5  and  C_6
REMARK    4  A    between atoms: C_6  and  O_7
REMARK    5  A    between atoms: O_7  and  C_8
REMARK    6  A    between atoms: C_8  and  C_9
REMARK    7  A    between atoms: C_16  and  C_17
REMARK    8  A    between atoms: C_17  and  N_18
REMARK    9  A    between atoms: C_19  and  C_21
REMARK                            x       y       z     vdW  Elec       q    Type
REMARK                         _______ _______ _______ _____ _____    ______ ____
ROOT
ATOM      1  C   UNL     1       2.990  -0.863   0.606  0.00  0.00    +0.000 A 
ATOM      2  C   UNL     1       2.701  -2.229   0.481  0.00  0.00    +0.000 A 
ATOM      3  C   UNL     1       3.547  -3.205   1.032  0.00  0.00    +0.000 A 
ATOM      4  C   UNL     1       4.702  -2.794   1.705  0.00  0.00    +0.000 A 
ATOM      5  C   UNL     1       4.994  -1.435   1.841  0.00  0.00    +0.000 A 
ATOM      6  C   UNL     1       4.147  -0.456   1.295  0.00  0.00    +0.000 A 
ENDROOT
BRANCH   1   8
ATOM      7  C   UNL     1       0.880  -0.183  -0.265  0.00  0.00    +0.000 C 
ATOM      8  O   UNL     1       2.225   0.138   0.067  0.00  0.00    +0.000 OA
ENDBRANCH   1   8
BRANCH   3   9
ATOM      9  C   UNL     1       3.191  -4.668   0.940  0.00  0.00    +0.000 C 
BRANCH   9  10
ATOM     10  O   UNL     1       3.087  -5.061  -0.428  0.00  0.00    +0.000 OA
BRANCH  10  11
ATOM     11  C   UNL     1       2.766  -6.450  -0.526  0.00  0.00    +0.000 C 
BRANCH  11  12
ATOM     12  C   UNL     1       2.689  -6.804  -1.967  0.00  0.00    +0.000 A 
ATOM     13  C   UNL     1       2.403  -8.013  -2.581  0.00  0.00    +0.000 A 
ATOM     14  C   UNL     1       2.463  -7.811  -3.980  0.00  0.00    +0.000 A 
ATOM     15  C   UNL     1       2.786  -6.488  -4.190  0.00  0.00    +0.000 A 
ATOM     16  N   UNL     1       2.926  -5.890  -2.969  0.00  0.00    +0.000 N 
ATOM     17  H   UNL     1       3.169  -4.919  -2.794  0.00  0.00    +0.000 HD
ENDBRANCH  11  12
ENDBRANCH  10  11
ENDBRANCH   9  10
ENDBRANCH   3   9
BRANCH   6  18
ATOM     18  C   UNL     1       4.463   1.002   1.540  0.00  0.00    +0.000 C 
BRANCH  18  19
ATOM     19  N   UNL     1       3.841   1.468   2.759  0.00  0.00    +0.000 N 
ATOM     20  C   UNL     1       4.000   2.750   3.214  0.00  0.00    +0.000 C 
ATOM     21  O   UNL     1       4.654   3.591   2.603  0.00  0.00    +0.000 OA
ATOM     22  H   UNL     1       3.420   0.769   3.358  0.00  0.00    +0.000 HD
BRANCH  20  23
ATOM     23  C   UNL     1       3.284   3.088   4.452  0.00  0.00    +0.000 A 
ATOM     24  C   UNL     1       2.891   4.397   4.694  0.00  0.00    +0.000 A 
ATOM     25  S   UNL     1       2.006   4.588   6.141  0.00  0.00    +0.000 S 
ATOM     26  C   UNL     1       2.168   2.938   6.523  0.00  0.00    +0.000 A 
ATOM     27  N   UNL     1       1.631   2.426   7.663  0.00  0.00    +0.000 NA
ATOM     28  C   UNL     1       1.863   1.169   7.844  0.00  0.00    +0.000 A 
ATOM     29  N   UNL     1       2.586   0.378   6.989  0.00  0.00    +0.000 N 
ATOM     30  C   UNL     1       3.126   0.844   5.814  0.00  0.00    +0.000 A 
ATOM     31  O   UNL     1       3.736   0.098   5.055  0.00  0.00    +0.000 OA
ATOM     32  C   UNL     1       2.887   2.251   5.560  0.00  0.00    +0.000 A 
ATOM     33  H   UNL     1       2.733  -0.600   7.189  0.00  0.00    +0.000 HD
ENDBRANCH  20  23
ENDBRANCH  18  19
ENDBRANCH   6  18
TORSDOF 8
