REMARK  Name = 
REMARK  5 active torsions:
REMARK  status: ('A' for Active; 'I' for Inactive)
REMARK    1  A    between atoms: C_2  and  C_4
REMARK    2  A    between atoms: C_8  and  C_9
REMARK    3  A    between atoms: C_9  and  C_10
REMARK    4  A    between atoms: C_10  and  C_11
REMARK    5  A    between atoms: C_15  and  C_16
REMARK                            x       y       z     vdW  Elec       q    Type
REMARK                         _______ _______ _______ _____ _____    ______ ____
ROOT
ATOM      1  C   UNL     1       7.558  -2.018   3.097  0.00  0.00    +0.000 C 
ENDROOT
BRANCH   1   2
ATOM      2  C   UNL     1       9.007  -1.638   3.272  0.00  0.00    +0.000 A 
ATOM      3  C   UNL     1       9.997  -2.611   3.213  0.00  0.00    +0.000 A 
ATOM      4  N   UNL     1      11.307  -2.340   3.403  0.00  0.00    +0.000 NA
ATOM      5  C   UNL     1      11.596  -1.044   3.672  0.00  0.00    +0.000 A 
ATOM      6  C   UNL     1      10.628  -0.046   3.762  0.00  0.00    +0.000 A 
ATOM      7  N   UNL     1       9.316  -0.346   3.559  0.00  0.00    +0.000 NA
BRANCH   6   8
ATOM      8  C   UNL     1      10.930   1.355   4.059  0.00  0.00    +0.000 A 
ATOM      9  C   UNL     1      10.126   2.397   3.629  0.00  0.00    +0.000 A 
ATOM     10  N   UNL     1      10.364   3.708   3.870  0.00  0.00    +0.000 NA
ATOM     11  C   UNL     1      11.462   3.975   4.588  0.00  0.00    +0.000 A 
ATOM     12  N   UNL     1      12.320   3.067   5.072  0.00  0.00    +0.000 NA
ATOM     13  C   UNL     1      12.026   1.777   4.795  0.00  0.00    +0.000 A 
ENDBRANCH   6   8
ENDBRANCH   1   2
BRANCH   1  14
ATOM     14  C   UNL     1       6.692  -0.892   2.520  0.00  0.00    +0.000 C 
BRANCH  14  19
ATOM     15  C   UNL     1       3.614  -2.506   0.936  0.00  0.00    +0.000 A 
ATOM     16  C   UNL     1       2.656  -2.334   1.943  0.00  0.00    +0.000 A 
ATOM     17  C   UNL     1       2.999  -1.662   3.118  0.00  0.00    +0.000 A 
ATOM     18  C   UNL     1       4.296  -1.176   3.300  0.00  0.00    +0.000 A 
ATOM     19  C   UNL     1       5.267  -1.350   2.305  0.00  0.00    +0.000 A 
ATOM     20  C   UNL     1       4.913  -2.012   1.120  0.00  0.00    +0.000 A 
BRANCH  15  22
ATOM     21  N   UNL     1       2.021  -3.312  -0.729  0.00  0.00    +0.000 N 
ATOM     22  C   UNL     1       3.321  -3.261  -0.310  0.00  0.00    +0.000 C 
ATOM     23  O   UNL     1       4.211  -3.803  -0.955  0.00  0.00    +0.000 OA
ATOM     24  H   UNL     1       1.858  -3.756  -1.624  0.00  0.00    +0.000 HD
ATOM     25  H   UNL     1       1.312  -2.684  -0.380  0.00  0.00    +0.000 HD
ENDBRANCH  15  22
ENDBRANCH  14  19
ENDBRANCH   1  14
TORSDOF 5
