REMARK  Name = 
REMARK  5 active torsions:
REMARK  status: ('A' for Active; 'I' for Inactive)
REMARK    1  A    between atoms: C_2  and  C_4
REMARK    2  A    between atoms: C_7  and  O_8
REMARK    3  A    between atoms: O_8  and  C_9
REMARK    4  A    between atoms: C_9  and  C_10
REMARK    5  A    between atoms: C_14  and  C_15
REMARK                            x       y       z     vdW  Elec       q    Type
REMARK                         _______ _______ _______ _____ _____    ______ ____
ROOT
ATOM      1  C   UNL     1       4.579   4.145  -4.323  0.00  0.00    +0.000 C 
ENDROOT
BRANCH   1   2
ATOM      2  C   UNL     1       5.327   4.754  -5.475  0.00  0.00    +0.000 A 
ATOM      3  C   UNL     1       6.053   3.963  -6.357  0.00  0.00    +0.000 A 
ATOM      4  N   UNL     1       6.695   4.436  -7.448  0.00  0.00    +0.000 NA
ATOM      5  C   UNL     1       6.601   5.765  -7.683  0.00  0.00    +0.000 A 
ATOM      6  C   UNL     1       5.891   6.653  -6.881  0.00  0.00    +0.000 A 
ATOM      7  C   UNL     1       5.247   6.118  -5.761  0.00  0.00    +0.000 A 
BRANCH   6   8
ATOM      8  C   UNL     1       5.797   8.123  -7.222  0.00  0.00    +0.000 C 
ATOM      9  C   UNL     1       6.382   9.010  -6.112  0.00  0.00    +0.000 C 
ATOM     10  C   UNL     1       6.148  10.482  -6.419  0.00  0.00    +0.000 C 
ATOM     11  O   UNL     1       4.760  10.740  -6.628  0.00  0.00    +0.000 OA
ATOM     12  C   UNL     1       4.243  10.030  -7.751  0.00  0.00    +0.000 C 
ATOM     13  C   UNL     1       4.346   8.529  -7.529  0.00  0.00    +0.000 C 
ENDBRANCH   6   8
ENDBRANCH   1   2
BRANCH   1  14
ATOM     14  O   UNL     1       4.522   5.061  -3.225  0.00  0.00    +0.000 OA
BRANCH  14  18
ATOM     15  C   UNL     1       2.537   3.992   0.282  0.00  0.00    +0.000 A 
ATOM     16  C   UNL     1       2.570   3.077  -0.775  0.00  0.00    +0.000 A 
ATOM     17  C   UNL     1       3.218   3.402  -1.968  0.00  0.00    +0.000 A 
ATOM     18  C   UNL     1       3.839   4.644  -2.115  0.00  0.00    +0.000 A 
ATOM     19  C   UNL     1       3.784   5.568  -1.067  0.00  0.00    +0.000 A 
ATOM     20  C   UNL     1       3.130   5.249   0.127  0.00  0.00    +0.000 A 
BRANCH  15  22
ATOM     21  N   UNL     1       1.838   2.341   1.920  0.00  0.00    +0.000 N 
ATOM     22  C   UNL     1       1.866   3.661   1.563  0.00  0.00    +0.000 C 
ATOM     23  O   UNL     1       1.391   4.527   2.287  0.00  0.00    +0.000 OA
ATOM     24  H   UNL     1       1.472   2.133   2.842  0.00  0.00    +0.000 HD
ATOM     25  H   UNL     1       2.440   1.653   1.490  0.00  0.00    +0.000 HD
ENDBRANCH  15  22
ENDBRANCH  14  18
ENDBRANCH   1  14
TORSDOF 5
