REMARK  Name = 
REMARK  10 active torsions:
REMARK  status: ('A' for Active; 'I' for Inactive)
REMARK    1  A    between atoms: C_1  and  O_2
REMARK    2  A    between atoms: O_2  and  C_3
REMARK    3  A    between atoms: C_3  and  C_5
REMARK    4  A    between atoms: C_8  and  N_9
REMARK    5  A    between atoms: N_9  and  C_10
REMARK    6  A    between atoms: C_10  and  C_11
REMARK    7  A    between atoms: C_11  and  C_12
REMARK    8  A    between atoms: C_11  and  C_13
REMARK    9  A    between atoms: C_17  and  C_18
REMARK   10  A    between atoms: C_22  and  C_23
REMARK                            x       y       z     vdW  Elec       q    Type
REMARK                         _______ _______ _______ _____ _____    ______ ____
ROOT
ATOM      1  C   UNL     1       0.364   6.575   5.845  0.00  0.00    +0.000 C 
ENDROOT
BRANCH   1   2
ATOM      2  N   UNL     1      -0.776   6.559   4.916  0.00  0.00    +0.000 N 
ATOM      3  H   UNL     1      -1.068   5.608   4.713  0.00  0.00    +0.000 HD
BRANCH   2   7
ATOM      4  C   UNL     1      -3.825   9.332   5.603  0.00  0.00    +0.000 A 
ATOM      5  C   UNL     1      -2.531   9.486   6.053  0.00  0.00    +0.000 A 
ATOM      6  N   UNL     1      -1.548   8.574   5.850  0.00  0.00    +0.000 NA
ATOM      7  C   UNL     1      -1.829   7.434   5.177  0.00  0.00    +0.000 A 
ATOM      8  C   UNL     1      -3.115   7.208   4.660  0.00  0.00    +0.000 A 
ATOM      9  C   UNL     1      -3.542   5.967   3.929  0.00  0.00    +0.000 C 
ATOM     10  C   UNL     1      -4.114   8.175   4.887  0.00  0.00    +0.000 A 
BRANCH   4  11
ATOM     11  C   UNL     1      -4.826  10.373   5.922  0.00  0.00    +0.000 C 
ATOM     12  O   UNL     1      -4.593  11.332   6.632  0.00  0.00    +0.000 OA
BRANCH  11  14
ATOM     13  C   UNL     1      -7.069  11.003   5.579  0.00  0.00    +0.000 C 
ATOM     14  O   UNL     1      -6.012  10.078   5.331  0.00  0.00    +0.000 OA
ENDBRANCH  11  14
ENDBRANCH   4  11
ENDBRANCH   2   7
ENDBRANCH   1   2
BRANCH   1  15
ATOM     15  C   UNL     1       0.520   5.210   6.558  0.00  0.00    +0.000 C 
ATOM     16  C   UNL     1       1.503   5.326   7.731  0.00  0.00    +0.000 C 
BRANCH  15  17
ATOM     17  C   UNL     1       0.873   4.115   5.560  0.00  0.00    +0.000 A 
ATOM     18  C   UNL     1       2.196   3.777   5.261  0.00  0.00    +0.000 A 
ATOM     19  C   UNL     1       2.458   2.797   4.306  0.00  0.00    +0.000 A 
ATOM     20  C   UNL     1       1.400   2.177   3.657  0.00  0.00    +0.000 A 
ATOM     21  C   UNL     1       0.113   2.565   3.996  0.00  0.00    +0.000 A 
ATOM     22  N   UNL     1      -0.178   3.519   4.931  0.00  0.00    +0.000 NA
BRANCH  21  23
ATOM     23  C   UNL     1      -1.047   1.924   3.297  0.00  0.00    +0.000 C 
ATOM     24  N   UNL     1      -2.287   2.353   3.687  0.00  0.00    +0.000 N 
ATOM     25  O   UNL     1      -0.910   1.067   2.433  0.00  0.00    +0.000 OA
ATOM     26  H   UNL     1      -2.373   3.002   4.458  0.00  0.00    +0.000 HD
ATOM     27  H   UNL     1      -3.104   1.921   3.281  0.00  0.00    +0.000 HD
ENDBRANCH  21  23
ENDBRANCH  15  17
ENDBRANCH   1  15
TORSDOF 7
