REMARK  Name = 
REMARK  5 active torsions:
REMARK  status: ('A' for Active; 'I' for Inactive)
REMARK    1  A    between atoms: N_1  and  C_2
REMARK    2  A    between atoms: C_2  and  C_3
REMARK    3  A    between atoms: C_3  and  C_4
REMARK    4  A    between atoms: N_6  and  C_7
REMARK    5  A    between atoms: C_7  and  C_8
REMARK                            x       y       z     vdW  Elec       q    Type
REMARK                         _______ _______ _______ _____ _____    ______ ____
ROOT
ATOM      1  C   UNL     1       7.793  -0.719   1.869  0.00  0.00    +0.000 C 
ENDROOT
BRANCH   1   2
ATOM      2  C   UNL     1       7.581  -0.176   3.258  0.00  0.00    +0.000 A 
ATOM      3  N   UNL     1       7.420  -1.129   4.221  0.00  0.00    +0.000 NA
ATOM      4  C   UNL     1       7.318  -0.717   5.499  0.00  0.00    +0.000 A 
ATOM      5  C   UNL     1       7.385   0.606   5.887  0.00  0.00    +0.000 A 
ATOM      6  C   UNL     1       7.553   1.587   4.907  0.00  0.00    +0.000 A 
ATOM      7  C   UNL     1       7.655   2.941   5.270  0.00  0.00    +0.000 A 
ATOM      8  C   UNL     1       7.838   3.930   4.305  0.00  0.00    +0.000 A 
ATOM      9  C   UNL     1       7.900   3.580   2.963  0.00  0.00    +0.000 A 
ATOM     10  C   UNL     1       7.792   2.240   2.585  0.00  0.00    +0.000 A 
ATOM     11  C   UNL     1       7.637   1.210   3.546  0.00  0.00    +0.000 A 
ENDBRANCH   1   2
BRANCH   1  14
ATOM     12  C   UNL     1       4.911  -1.799   0.055  0.00  0.00    +0.000 A 
ATOM     13  C   UNL     1       5.796  -2.044   1.080  0.00  0.00    +0.000 A 
ATOM     14  N   UNL     1       6.549  -0.907   1.152  0.00  0.00    +0.000 N 
ATOM     15  N   UNL     1       6.146  -0.004   0.236  0.00  0.00    +0.000 NA
ATOM     16  N   UNL     1       5.132  -0.537  -0.434  0.00  0.00    +0.000 NA
BRANCH  12  17
ATOM     17  C   UNL     1       3.889  -2.692  -0.550  0.00  0.00    +0.000 C 
BRANCH  17  18
ATOM     18  C   UNL     1       4.484  -3.532  -1.686  0.00  0.00    +0.000 C 
BRANCH  18  19
ATOM     19  N   UNL     1       3.497  -4.444  -2.268  0.00  0.00    +0.000 NA
ATOM     20  H   UNL     1       3.936  -4.965  -3.028  0.00  0.00    +0.000 HD
ATOM     21  H   UNL     1       2.748  -3.902  -2.697  0.00  0.00    +0.000 HD
ENDBRANCH  18  19
ENDBRANCH  17  18
ENDBRANCH  12  17
ENDBRANCH   1  14
TORSDOF 5
