REMARK  Name = 
REMARK  9 active torsions:
REMARK  status: ('A' for Active; 'I' for Inactive)
REMARK    1  A    between atoms: C_1  and  C_2
REMARK    2  A    between atoms: C_2  and  C_3
REMARK    3  A    between atoms: C_2  and  C_4
REMARK    4  A    between atoms: C_2  and  C_14
REMARK    5  A    between atoms: C_4  and  N_5
REMARK    6  A    between atoms: N_5  and  C_6
REMARK    7  A    between atoms: C_9  and  C_10
REMARK    8  A    between atoms: C_18  and  C_19
REMARK    9  A    between atoms: C_19  and  C_20
REMARK                            x       y       z     vdW  Elec       q    Type
REMARK                         _______ _______ _______ _____ _____    ______ ____
ROOT
ATOM      1  C   UNL     1      -2.118  -4.833   0.437  0.00  0.00    +0.000 C 
ATOM      2  C   UNL     1      -1.172  -5.766   1.230  0.00  0.00    +0.000 C 
ATOM      3  C   UNL     1      -1.671  -5.807   2.693  0.00  0.00    +0.000 C 
ENDROOT
BRANCH   2   4
ATOM      4  C   UNL     1       0.267  -5.216   1.107  0.00  0.00    +0.000 A 
ATOM      5  C   UNL     1       1.025  -4.806   2.213  0.00  0.00    +0.000 A 
ATOM      6  C   UNL     1       2.315  -4.306   2.052  0.00  0.00    +0.000 A 
ATOM      7  C   UNL     1       2.882  -4.232   0.783  0.00  0.00    +0.000 A 
ATOM      8  C   UNL     1       2.180  -4.669  -0.353  0.00  0.00    +0.000 A 
ATOM      9  C   UNL     1       0.868  -5.127  -0.167  0.00  0.00    +0.000 A 
BRANCH   8  10
ATOM     10  C   UNL     1       2.871  -4.669  -1.724  0.00  0.00    +0.000 C 
ATOM     11  C   UNL     1       3.206  -3.226  -2.126  0.00  0.00    +0.000 C 
ATOM     12  C   UNL     1       4.094  -5.593  -1.669  0.00  0.00    +0.000 C 
ATOM     13  C   UNL     1       3.547  -6.958  -2.067  0.00  0.00    +0.000 C 
ATOM     14  O   UNL     1       2.279  -6.756  -2.705  0.00  0.00    +0.000 OA
ATOM     15  C   UNL     1       2.110  -5.344  -2.878  0.00  0.00    +0.000 C 
ENDBRANCH   8  10
ENDBRANCH   2   4
BRANCH   2  16
ATOM     16  C   UNL     1      -1.204  -7.221   0.655  0.00  0.00    +0.000 C 
BRANCH  16  17
ATOM     17  N   UNL     1      -2.546  -7.811   0.719  0.00  0.00    +0.000 N 
ATOM     18  H   UNL     1      -3.270  -7.182   0.383  0.00  0.00    +0.000 HD
BRANCH  17  19
ATOM     19  C   UNL     1      -2.748  -9.110   0.238  0.00  0.00    +0.000 A 
ATOM     20  C   UNL     1      -1.768 -10.109   0.294  0.00  0.00    +0.000 A 
ATOM     21  C   UNL     1      -2.061 -11.426  -0.073  0.00  0.00    +0.000 A 
ATOM     22  C   UNL     1      -3.349 -11.771  -0.488  0.00  0.00    +0.000 A 
ATOM     23  C   UNL     1      -4.337 -10.785  -0.550  0.00  0.00    +0.000 A 
ATOM     24  C   UNL     1      -4.037  -9.476  -0.175  0.00  0.00    +0.000 A 
BRANCH  22  25
ATOM     25  C   UNL     1      -3.659 -13.127  -0.819  0.00  0.00    +0.000 C 
ATOM     26  N   UNL     1      -3.918 -14.231  -1.079  0.00  0.00    +0.000 NA
ENDBRANCH  22  25
ENDBRANCH  17  19
ENDBRANCH  16  17
ENDBRANCH   2  16
TORSDOF 6
