REMARK  Name = 
REMARK  4 active torsions:
REMARK  status: ('A' for Active; 'I' for Inactive)
REMARK    1  A    between atoms: C_2  and  C_4
REMARK    2  A    between atoms: C_7  and  C_8
REMARK    3  A    between atoms: C_8  and  O_9
REMARK    4  A    between atoms: O_9  and  C_10
REMARK                            x       y       z     vdW  Elec       q    Type
REMARK                         _______ _______ _______ _____ _____    ______ ____
ROOT
ATOM      1  C   UNL     1       3.272   1.035   0.573  0.00  0.00    +0.000 A 
ATOM      2  C   UNL     1       2.817   1.583   1.778  0.00  0.00    +0.000 A 
ATOM      3  C   UNL     1       3.552   2.594   2.409  0.00  0.00    +0.000 A 
ATOM      4  C   UNL     1       4.742   3.073   1.841  0.00  0.00    +0.000 A 
ATOM      5  C   UNL     1       5.206   2.496   0.650  0.00  0.00    +0.000 A 
ATOM      6  C   UNL     1       4.476   1.484   0.021  0.00  0.00    +0.000 A 
ENDROOT
BRANCH   1   8
ATOM      7  N   UNL     1       1.174  -0.096   0.052  0.00  0.00    +0.000 N 
ATOM      8  C   UNL     1       2.528  -0.042  -0.134  0.00  0.00    +0.000 C 
ATOM      9  O   UNL     1       3.090  -0.826  -0.888  0.00  0.00    +0.000 OA
ATOM     10  H   UNL     1       0.673  -0.760  -0.524  0.00  0.00    +0.000 HD
ATOM     11  H   UNL     1       0.652   0.674   0.444  0.00  0.00    +0.000 HD
ENDBRANCH   1   8
BRANCH   4  12
ATOM     12  C   UNL     1       5.529   4.173   2.516  0.00  0.00    +0.000 C 
BRANCH  12  13
ATOM     13  O   UNL     1       6.447   3.590   3.437  0.00  0.00    +0.000 OA
BRANCH  13  14
ATOM     14  C   UNL     1       7.239   4.450   4.150  0.00  0.00    +0.000 A 
ATOM     15  C   UNL     1       7.253   5.842   4.036  0.00  0.00    +0.000 A 
ATOM     16  C   UNL     1       8.113   6.605   4.833  0.00  0.00    +0.000 A 
ATOM     17  C   UNL     1       8.963   5.983   5.745  0.00  0.00    +0.000 A 
ATOM     18  C   UNL     1       8.957   4.596   5.860  0.00  0.00    +0.000 A 
ATOM     19  C   UNL     1       8.098   3.834   5.064  0.00  0.00    +0.000 A 
ENDBRANCH  13  14
ENDBRANCH  12  13
ENDBRANCH   4  12
TORSDOF 4
