REMARK  Name = 
REMARK  4 active torsions:
REMARK  status: ('A' for Active; 'I' for Inactive)
REMARK    1  A    between atoms: C_2  and  C_4
REMARK    2  A    between atoms: N_8  and  C_9
REMARK    3  A    between atoms: C_9  and  C_10
REMARK    4  A    between atoms: C_18  and  O_19
REMARK                            x       y       z     vdW  Elec       q    Type
REMARK                         _______ _______ _______ _____ _____    ______ ____
ROOT
ATOM      1  C   UNL     1       5.463  -4.992   2.879  0.00  0.00    +0.000 C 
ENDROOT
BRANCH   1   2
ATOM      2  C   UNL     1       6.528  -5.699   3.681  0.00  0.00    +0.000 A 
ATOM      3  C   UNL     1       6.541  -7.086   3.802  0.00  0.00    +0.000 A 
ATOM      4  C   UNL     1       7.568  -7.667   4.523  0.00  0.00    +0.000 A 
ATOM      5  N   UNL     1       8.564  -6.973   5.124  0.00  0.00    +0.000 NA
ATOM      6  C   UNL     1       8.565  -5.628   5.020  0.00  0.00    +0.000 A 
ATOM      7  N   UNL     1       9.573  -4.903   5.636  0.00  0.00    +0.000 N 
ATOM      8  C   UNL     1      10.296  -5.505   6.757  0.00  0.00    +0.000 C 
ATOM      9  C   UNL     1      11.750  -5.797   6.401  0.00  0.00    +0.000 C 
ATOM     10  C   UNL     1      12.438  -4.594   5.762  0.00  0.00    +0.000 C 
ATOM     11  C   UNL     1      11.634  -4.063   4.580  0.00  0.00    +0.000 C 
ATOM     12  C   UNL     1      10.185  -3.764   4.957  0.00  0.00    +0.000 C 
ATOM     13  C   UNL     1       7.544  -4.976   4.321  0.00  0.00    +0.000 A 
BRANCH  10  14
ATOM     14  O   UNL     1      12.666  -3.560   6.719  0.00  0.00    +0.000 OA
ATOM     15  H   UNL     1      11.813  -3.270   7.083  0.00  0.00    +0.000 HD
ENDBRANCH  10  14
ENDBRANCH   1   2
BRANCH   1  20
ATOM     16  C   UNL     1       0.910  -2.827   2.223  0.00  0.00    +0.000 A 
ATOM     17  C   UNL     1       1.658  -3.585   1.329  0.00  0.00    +0.000 A 
ATOM     18  C   UNL     1       2.802  -4.245   1.785  0.00  0.00    +0.000 A 
ATOM     19  C   UNL     1       3.191  -4.124   3.118  0.00  0.00    +0.000 A 
ATOM     20  N   UNL     1       4.257  -4.823   3.664  0.00  0.00    +0.000 N 
ATOM     21  N   UNL     1       2.489  -3.367   3.983  0.00  0.00    +0.000 NA
ATOM     22  C   UNL     1       1.374  -2.733   3.527  0.00  0.00    +0.000 A 
ATOM     23  H   UNL     1       4.404  -4.462   4.605  0.00  0.00    +0.000 HD
BRANCH  16  25
ATOM     24  N   UNL     1      -1.050  -2.630   0.795  0.00  0.00    +0.000 N 
ATOM     25  C   UNL     1      -0.334  -2.122   1.847  0.00  0.00    +0.000 C 
ATOM     26  O   UNL     1      -0.728  -1.148   2.467  0.00  0.00    +0.000 OA
ATOM     27  H   UNL     1      -1.951  -2.200   0.627  0.00  0.00    +0.000 HD
ATOM     28  H   UNL     1      -0.903  -3.561   0.435  0.00  0.00    +0.000 HD
ENDBRANCH  16  25
ENDBRANCH   1  20
TORSDOF 4
