REMARK  Name = 
REMARK  6 active torsions:
REMARK  status: ('A' for Active; 'I' for Inactive)
REMARK    1  A    between atoms: N_1  and  C_2
REMARK    2  A    between atoms: C_2  and  C_3
REMARK    3  A    between atoms: C_3  and  C_4
REMARK    4  A    between atoms: C_7  and  C_8
REMARK    5  A    between atoms: C_8  and  N_9
REMARK    6  A    between atoms: C_15  and  C_16
REMARK                            x       y       z     vdW  Elec       q    Type
REMARK                         _______ _______ _______ _____ _____    ______ ____
ROOT
ATOM      1  N   UNL     1       9.297   2.803   0.228  0.00  0.00    +0.000 N 
ATOM      2  C   UNL     1       9.507   3.658   1.276  0.00  0.00    +0.000 A 
ATOM      3  N   UNL     1      10.027   4.799   0.881  0.00  0.00    +0.000 NA
ATOM      4  C   UNL     1      10.171   4.671  -0.472  0.00  0.00    +0.000 A 
ATOM      5  N   UNL     1      10.675   5.616  -1.294  0.00  0.00    +0.000 NA
ATOM      6  C   UNL     1      10.745   5.245  -2.597  0.00  0.00    +0.000 A 
ATOM      7  C   UNL     1      10.363   4.009  -3.123  0.00  0.00    +0.000 A 
ATOM      8  C   UNL     1       9.839   3.043  -2.256  0.00  0.00    +0.000 A 
ATOM      9  C   UNL     1       9.749   3.420  -0.912  0.00  0.00    +0.000 A 
ENDROOT
BRANCH   7  10
ATOM     10  C   UNL     1      10.538   3.787  -4.579  0.00  0.00    +0.000 C 
ATOM     11  N   UNL     1      10.185   2.575  -5.108  0.00  0.00    +0.000 N 
ATOM     12  O   UNL     1      10.993   4.662  -5.307  0.00  0.00    +0.000 OA
ATOM     13  H   UNL     1       9.825   1.789  -4.595  0.00  0.00    +0.000 HD
ATOM     14  H   UNL     1      10.335   2.460  -6.103  0.00  0.00    +0.000 HD
ENDBRANCH   7  10
BRANCH   1  15
ATOM     15  C   UNL     1       8.744   1.463   0.338  0.00  0.00    +0.000 C 
BRANCH  15  19
ATOM     16  C   UNL     1       4.423   1.591   0.027  0.00  0.00    +0.000 A 
ATOM     17  C   UNL     1       5.211   1.407  -1.115  0.00  0.00    +0.000 A 
ATOM     18  C   UNL     1       6.605   1.352  -1.016  0.00  0.00    +0.000 A 
ATOM     19  C   UNL     1       7.239   1.472   0.229  0.00  0.00    +0.000 A 
ATOM     20  C   UNL     1       6.445   1.634   1.373  0.00  0.00    +0.000 A 
ATOM     21  C   UNL     1       5.052   1.687   1.273  0.00  0.00    +0.000 A 
BRANCH  16  22
ATOM     22  C   UNL     1       2.921   1.705  -0.086  0.00  0.00    +0.000 C 
BRANCH  22  23
ATOM     23  C   UNL     1       2.212   0.349  -0.014  0.00  0.00    +0.000 C 
BRANCH  23  24
ATOM     24  N   UNL     1       0.765   0.511  -0.157  0.00  0.00    +0.000 NA
ATOM     25  H   UNL     1       0.317  -0.405  -0.137  0.00  0.00    +0.000 HD
ATOM     26  H   UNL     1       0.550   0.913  -1.069  0.00  0.00    +0.000 HD
ENDBRANCH  23  24
ENDBRANCH  22  23
ENDBRANCH  16  22
ENDBRANCH  15  19
ENDBRANCH   1  15
TORSDOF 6
