REMARK  Name = 
REMARK  7 active torsions:
REMARK  status: ('A' for Active; 'I' for Inactive)
REMARK    1  A    between atoms: N_1  and  C_2
REMARK    2  A    between atoms: C_2  and  C_3
REMARK    3  A    between atoms: C_6  and  N_7
REMARK    4  A    between atoms: N_7  and  C_8
REMARK    5  A    between atoms: C_8  and  C_9
REMARK    6  A    between atoms: C_9  and  O_10
REMARK    7  A    between atoms: C_9  and  C_11
REMARK                            x       y       z     vdW  Elec       q    Type
REMARK                         _______ _______ _______ _____ _____    ______ ____
ROOT
ATOM      1  N   UNL     1       3.817   4.195   3.619  0.00  0.00    +0.000 N 
ATOM      2  H   UNL     1       4.682   4.045   4.145  0.00  0.00    +0.000 HD
ENDROOT
BRANCH   1   6
ATOM      3  C   UNL     1       2.895   1.145   0.912  0.00  0.00    +0.000 A 
ATOM      4  N   UNL     1       3.520   0.843   2.084  0.00  0.00    +0.000 NA
ATOM      5  C   UNL     1       3.831   1.879   2.908  0.00  0.00    +0.000 A 
ATOM      6  C   UNL     1       3.580   3.228   2.642  0.00  0.00    +0.000 A 
ATOM      7  C   UNL     1       2.955   3.493   1.425  0.00  0.00    +0.000 A 
ATOM      8  C   UNL     1       2.625   2.462   0.541  0.00  0.00    +0.000 A 
ATOM      9 CL   UNL     1       1.873   2.889  -0.952  0.00  0.00    +0.000 Cl
BRANCH   3  10
ATOM     10  C   UNL     1       2.505  -0.035   0.047  0.00  0.00    +0.000 C 
BRANCH  10  11
ATOM     11  N   UNL     1       3.560  -0.428  -0.888  0.00  0.00    +0.000 NA
ATOM     12  H   UNL     1       3.273  -1.283  -1.360  0.00  0.00    +0.000 HD
ATOM     13  H   UNL     1       4.384  -0.673  -0.335  0.00  0.00    +0.000 HD
ENDBRANCH  10  11
ENDBRANCH   3  10
ENDBRANCH   1   6
BRANCH   1  14
ATOM     14  C   UNL     1       3.578   5.618   3.332  0.00  0.00    +0.000 C 
BRANCH  14  15
ATOM     15  C   UNL     1       3.913   6.493   4.551  0.00  0.00    +0.000 C 
BRANCH  15  16
ATOM     16  C   UNL     1       3.550   7.935   4.239  0.00  0.00    +0.000 A 
ATOM     17  N   UNL     1       2.288   8.347   4.475  0.00  0.00    +0.000 NA
ATOM     18  C   UNL     1       2.013   9.632   4.182  0.00  0.00    +0.000 A 
ATOM     19  C   UNL     1       2.934  10.508   3.661  0.00  0.00    +0.000 A 
ATOM     20  C   UNL     1       4.189   9.990   3.445  0.00  0.00    +0.000 A 
ATOM     21  N   UNL     1       4.528   8.716   3.724  0.00  0.00    +0.000 NA
ENDBRANCH  15  16
BRANCH  15  22
ATOM     22  O   UNL     1       5.322   6.358   4.847  0.00  0.00    +0.000 OA
ATOM     23  H   UNL     1       5.723   7.203   4.557  0.00  0.00    +0.000 HD
ENDBRANCH  15  22
ENDBRANCH  14  15
ENDBRANCH   1  14
TORSDOF 7
