REMARK  Name = 
REMARK  8 active torsions:
REMARK  status: ('A' for Active; 'I' for Inactive)
REMARK    1  A    between atoms: N_1  and  C_2
REMARK    2  A    between atoms: C_2  and  N_3
REMARK    3  A    between atoms: C_2  and  C_16
REMARK    4  A    between atoms: C_4  and  C_6
REMARK    5  A    between atoms: C_19  and  C_20
REMARK    6  A    between atoms: C_20  and  N_21
REMARK    7  A    between atoms: C_22  and  C_24
REMARK    8  A    between atoms: C_28  and  O_29
REMARK                            x       y       z     vdW  Elec       q    Type
REMARK                         _______ _______ _______ _____ _____    ______ ____
ROOT
ATOM      1  C   UNL     1       2.417  -0.113  -0.078  0.00  0.00    +0.000 C 
ENDROOT
BRANCH   1   2
ATOM      2  C   UNL     1       2.939   0.643  -1.327  0.00  0.00    +0.000 C 
ATOM      3  C   UNL     1       4.413   0.356  -1.655  0.00  0.00    +0.000 C 
ATOM      4  C   UNL     1       4.878   1.100  -2.900  0.00  0.00    +0.000 C 
ATOM      5  C   UNL     1       4.659   2.613  -2.770  0.00  0.00    +0.000 C 
ATOM      6  C   UNL     1       3.191   2.917  -2.438  0.00  0.00    +0.000 C 
ATOM      7  C   UNL     1       2.712   2.159  -1.200  0.00  0.00    +0.000 C 
BRANCH   5   8
ATOM      8  C   UNL     1       5.070   3.341  -4.058  0.00  0.00    +0.000 C 
BRANCH   8   9
ATOM      9  N   UNL     1       6.479   3.208  -4.350  0.00  0.00    +0.000 N 
ATOM     10  C   UNL     1       7.422   4.055  -3.806  0.00  0.00    +0.000 C 
ATOM     11  O   UNL     1       7.129   4.970  -3.044  0.00  0.00    +0.000 OA
ATOM     12  H   UNL     1       6.831   2.440  -4.913  0.00  0.00    +0.000 HD
BRANCH  10  13
ATOM     13  C   UNL     1       8.790   3.746  -4.230  0.00  0.00    +0.000 A 
ATOM     14  N   UNL     1       9.107   2.683  -5.076  0.00  0.00    +0.000 NA
ATOM     15  C   UNL     1      10.409   2.747  -5.241  0.00  0.00    +0.000 A 
ATOM     16  N   UNL     1      10.955   3.787  -4.546  0.00  0.00    +0.000 N 
ATOM     17  C   UNL     1       9.943   4.435  -3.887  0.00  0.00    +0.000 A 
ATOM     18  H   UNL     1      11.936   4.032  -4.532  0.00  0.00    +0.000 HD
BRANCH  17  19
ATOM     19  O   UNL     1      10.147   5.494  -3.115  0.00  0.00    +0.000 OA
ATOM     20  H   UNL     1      11.083   5.749  -3.107  0.00  0.00    +0.000 HD
ENDBRANCH  17  19
ENDBRANCH  10  13
ENDBRANCH   8   9
ENDBRANCH   5   8
ENDBRANCH   1   2
BRANCH   1  21
ATOM     21  N   UNL     1       3.133   0.176   1.124  0.00  0.00    +0.000 N 
ATOM     22  C   UNL     1       2.698   1.114   2.028  0.00  0.00    +0.000 C 
ATOM     23  O   UNL     1       1.642   1.724   1.885  0.00  0.00    +0.000 OA
ATOM     24  H   UNL     1       4.096  -0.133   1.171  0.00  0.00    +0.000 HD
BRANCH  22  25
ATOM     25  C   UNL     1       3.530   1.309   3.223  0.00  0.00    +0.000 A 
ATOM     26  C   UNL     1       2.955   1.842   4.369  0.00  0.00    +0.000 A 
ATOM     27  S   UNL     1       4.034   1.973   5.681  0.00  0.00    +0.000 S 
ATOM     28  C   UNL     1       5.324   1.369   4.751  0.00  0.00    +0.000 A 
ATOM     29  N   UNL     1       6.571   1.249   5.280  0.00  0.00    +0.000 NA
ATOM     30  C   UNL     1       7.464   0.823   4.452  0.00  0.00    +0.000 A 
ATOM     31  N   UNL     1       7.220   0.490   3.145  0.00  0.00    +0.000 N 
ATOM     32  C   UNL     1       5.962   0.519   2.593  0.00  0.00    +0.000 A 
ATOM     33  O   UNL     1       5.752   0.084   1.466  0.00  0.00    +0.000 OA
ATOM     34  C   UNL     1       4.929   1.044   3.465  0.00  0.00    +0.000 A 
ATOM     35  H   UNL     1       7.958   0.134   2.556  0.00  0.00    +0.000 HD
ENDBRANCH  22  25
ENDBRANCH   1  21
BRANCH   1  36
ATOM     36  N   UNL     1       2.560  -1.549  -0.211  0.00  0.00    +0.000 NA
ATOM     37  H   UNL     1       2.186  -1.972   0.635  0.00  0.00    +0.000 HD
ATOM     38  H   UNL     1       3.547  -1.787  -0.229  0.00  0.00    +0.000 HD
ENDBRANCH   1  36
TORSDOF 8
