REMARK  Name = 
REMARK  6 active torsions:
REMARK  status: ('A' for Active; 'I' for Inactive)
REMARK    1  A    between atoms: C_2  and  C_19
REMARK    2  A    between atoms: N_3  and  C_4
REMARK    3  A    between atoms: C_4  and  C_5
REMARK    4  A    between atoms: C_8  and  C_9
REMARK    5  A    between atoms: C_9  and  O_10
REMARK    6  A    between atoms: C_9  and  C_11
REMARK                            x       y       z     vdW  Elec       q    Type
REMARK                         _______ _______ _______ _____ _____    ______ ____
ROOT
ATOM      1  C   UNL     1       2.149  -2.419  -0.131  0.00  0.00    +0.000 C 
ENDROOT
BRANCH   1   2
ATOM      2  C   UNL     1       3.157  -3.549  -0.173  0.00  0.00    +0.000 A 
ATOM      3  C   UNL     1       4.512  -3.282  -0.353  0.00  0.00    +0.000 A 
ATOM      4  C   UNL     1       5.408  -4.348  -0.418  0.00  0.00    +0.000 A 
ATOM      5  C   UNL     1       4.948  -5.664  -0.299  0.00  0.00    +0.000 A 
ATOM      6  C   UNL     1       3.584  -5.828  -0.085  0.00  0.00    +0.000 A 
ATOM      7  N   UNL     1       2.689  -4.813  -0.010  0.00  0.00    +0.000 NA
BRANCH   5   8
ATOM      8  C   UNL     1       5.875  -6.858  -0.339  0.00  0.00    +0.000 C 
BRANCH   8   9
ATOM      9  C   UNL     1       6.363  -7.263   1.047  0.00  0.00    +0.000 A 
ATOM     10  C   UNL     1       5.659  -8.199   1.803  0.00  0.00    +0.000 A 
ATOM     11  C   UNL     1       6.089  -8.477   3.097  0.00  0.00    +0.000 A 
ATOM     12  C   UNL     1       7.208  -7.825   3.599  0.00  0.00    +0.000 A 
ATOM     13  C   UNL     1       7.872  -6.933   2.774  0.00  0.00    +0.000 A 
ATOM     14  N   UNL     1       7.484  -6.642   1.512  0.00  0.00    +0.000 NA
ENDBRANCH   8   9
BRANCH   8  15
ATOM     15  O   UNL     1       7.001  -6.556  -1.177  0.00  0.00    +0.000 OA
ATOM     16  H   UNL     1       7.746  -6.438  -0.555  0.00  0.00    +0.000 HD
ENDBRANCH   8  15
ENDBRANCH   5   8
ENDBRANCH   1   2
BRANCH   1  19
ATOM     17  O   UNL     1       0.516  -0.241   0.605  0.00  0.00    +0.000 OA
ATOM     18  C   UNL     1       1.154  -0.836   1.471  0.00  0.00    +0.000 C 
ATOM     19  N   UNL     1       1.901  -1.953   1.212  0.00  0.00    +0.000 N 
ATOM     20  H   UNL     1       2.411  -2.409   1.955  0.00  0.00    +0.000 HD
BRANCH  18  21
ATOM     21  C   UNL     1       1.124  -0.424   2.875  0.00  0.00    +0.000 A 
ATOM     22  C   UNL     1      -0.005   0.151   3.439  0.00  0.00    +0.000 A 
ATOM     23  S   UNL     1       0.171   0.485   5.106  0.00  0.00    +0.000 S 
ATOM     24  C   UNL     1       1.777  -0.084   5.111  0.00  0.00    +0.000 A 
ATOM     25  N   UNL     1       2.522  -0.091   6.249  0.00  0.00    +0.000 NA
ATOM     26  C   UNL     1       3.726  -0.535   6.094  0.00  0.00    +0.000 A 
ATOM     27  N   UNL     1       4.256  -0.960   4.903  0.00  0.00    +0.000 N 
ATOM     28  C   UNL     1       3.553  -0.939   3.723  0.00  0.00    +0.000 A 
ATOM     29  O   UNL     1       4.077  -1.278   2.668  0.00  0.00    +0.000 OA
ATOM     30  C   UNL     1       2.177  -0.502   3.857  0.00  0.00    +0.000 A 
ATOM     31  H   UNL     1       5.211  -1.279   4.842  0.00  0.00    +0.000 HD
ENDBRANCH  18  21
ENDBRANCH   1  19
TORSDOF 6
