REMARK  Name = 
REMARK  9 active torsions:
REMARK  status: ('A' for Active; 'I' for Inactive)
REMARK    1  A    between atoms: N_1  and  C_2
REMARK    2  A    between atoms: C_2  and  C_3
REMARK    3  A    between atoms: C_3  and  C_4
REMARK    4  A    between atoms: C_3  and  C_19
REMARK    5  A    between atoms: C_4  and  C_5
REMARK    6  A    between atoms: C_8  and  C_9
REMARK    7  A    between atoms: C_9  and  N_10
REMARK    8  A    between atoms: N_10  and  C_11
REMARK    9  A    between atoms: C_11  and  C_12
REMARK                            x       y       z     vdW  Elec       q    Type
REMARK                         _______ _______ _______ _____ _____    ______ ____
ROOT
ATOM      1  C   UNL     1       2.659  -9.761  -9.279  0.00  0.00    +0.000 C 
ENDROOT
BRANCH   1   2
ATOM      2  C   UNL     1       1.721  -8.584  -9.106  0.00  0.00    +0.000 A 
ATOM      3  C   UNL     1       1.447  -7.965  -7.888  0.00  0.00    +0.000 A 
ATOM      4  C   UNL     1       0.475  -6.968  -7.792  0.00  0.00    +0.000 A 
ATOM      5  C   UNL     1      -0.233  -6.529  -8.922  0.00  0.00    +0.000 A 
ATOM      6  C   UNL     1       0.074  -7.102 -10.160  0.00  0.00    +0.000 A 
ATOM      7  C   UNL     1       1.038  -8.114 -10.246  0.00  0.00    +0.000 A 
BRANCH   5   8
ATOM      8  C   UNL     1      -1.309  -5.478  -8.773  0.00  0.00    +0.000 C 
BRANCH   8   9
ATOM      9  N   UNL     1      -0.763  -4.285  -8.131  0.00  0.00    +0.000 NA
ATOM     10  H   UNL     1      -0.001  -3.926  -8.706  0.00  0.00    +0.000 HD
BRANCH   9  11
ATOM     11  C   UNL     1      -1.769  -3.237  -7.934  0.00  0.00    +0.000 C 
BRANCH  11  12
ATOM     12  C   UNL     1      -1.100  -1.990  -7.297  0.00  0.00    +0.000 C 
ATOM     13  C   UNL     1      -2.077  -0.872  -6.982  0.00  0.00    +0.000 C 
ATOM     14  C   UNL     1      -2.631  -1.251  -5.622  0.00  0.00    +0.000 C 
ATOM     15  C   UNL     1      -1.527  -2.071  -4.968  0.00  0.00    +0.000 C 
ATOM     16  N   UNL     1      -0.494  -2.281  -5.986  0.00  0.00    +0.000 NA
ATOM     17  H   UNL     1      -0.185  -3.257  -5.987  0.00  0.00    +0.000 HD
ENDBRANCH  11  12
ENDBRANCH   9  11
ENDBRANCH   8   9
ENDBRANCH   5   8
ENDBRANCH   1   2
BRANCH   1  18
ATOM     18  C   UNL     1       3.406 -10.441  -8.092  0.00  0.00    +0.000 C 
BRANCH  18  19
ATOM     19  C   UNL     1       2.497 -10.940  -6.951  0.00  0.00    +0.000 A 
ATOM     20  C   UNL     1       2.570 -10.501  -5.634  0.00  0.00    +0.000 A 
ATOM     21  S   UNL     1       1.408 -11.199  -4.601  0.00  0.00    +0.000 S 
ATOM     22  C   UNL     1       0.785 -12.153  -5.860  0.00  0.00    +0.000 A 
ATOM     23  N   UNL     1      -0.260 -12.994  -5.639  0.00  0.00    +0.000 NA
ATOM     24  C   UNL     1      -0.629 -13.663  -6.680  0.00  0.00    +0.000 A 
ATOM     25  N   UNL     1      -0.039 -13.576  -7.915  0.00  0.00    +0.000 N 
ATOM     26  C   UNL     1       1.058 -12.784  -8.171  0.00  0.00    +0.000 A 
ATOM     27  O   UNL     1       1.630 -12.829  -9.253  0.00  0.00    +0.000 OA
ATOM     28  C   UNL     1       1.470 -11.959  -7.048  0.00  0.00    +0.000 A 
ATOM     29  H   UNL     1      -0.347 -14.161  -8.677  0.00  0.00    +0.000 HD
ENDBRANCH  18  19
BRANCH  18  30
ATOM     30  C   UNL     1       4.609  -9.604  -7.563  0.00  0.00    +0.000 C 
BRANCH  30  31
ATOM     31  N   UNL     1       5.570  -9.165  -8.575  0.00  0.00    +0.000 NA
ATOM     32  H   UNL     1       6.378  -8.756  -8.103  0.00  0.00    +0.000 HD
ATOM     33  H   UNL     1       5.162  -8.400  -9.114  0.00  0.00    +0.000 HD
ENDBRANCH  30  31
ENDBRANCH  18  30
ENDBRANCH   1  18
TORSDOF 9
