REMARK  Name = 
REMARK  9 active torsions:
REMARK  status: ('A' for Active; 'I' for Inactive)
REMARK    1  A    between atoms: C_1  and  O_2
REMARK    2  A    between atoms: O_2  and  C_3
REMARK    3  A    between atoms: C_10  and  C_11
REMARK    4  A    between atoms: N_13  and  C_14
REMARK    5  A    between atoms: C_14  and  C_15
REMARK    6  A    between atoms: C_18  and  O_19
REMARK    7  A    between atoms: O_19  and  C_20
REMARK    8  A    between atoms: C_20  and  C_21
REMARK    9  A    between atoms: C_21  and  N_22
REMARK                            x       y       z     vdW  Elec       q    Type
REMARK                         _______ _______ _______ _____ _____    ______ ____
ROOT
ATOM      1  C   UNL     1       2.967  -1.855  -2.857  0.00  0.00    +0.000 C 
ENDROOT
BRANCH   1   2
ATOM      2  C   UNL     1       1.828  -2.613  -2.226  0.00  0.00    +0.000 A 
ATOM      3  C   UNL     1       1.906  -3.999  -2.047  0.00  0.00    +0.000 A 
ATOM      4  C   UNL     1       0.890  -4.694  -1.379  0.00  0.00    +0.000 A 
ATOM      5  C   UNL     1      -0.221  -4.013  -0.880  0.00  0.00    +0.000 A 
ATOM      6  C   UNL     1      -0.342  -2.644  -1.125  0.00  0.00    +0.000 A 
ATOM      7  C   UNL     1       0.673  -1.948  -1.794  0.00  0.00    +0.000 A 
BRANCH   5   8
ATOM      8  O   UNL     1      -1.247  -4.599  -0.178  0.00  0.00    +0.000 OA
BRANCH   8   9
ATOM      9  C   UNL     1      -0.848  -5.705   0.651  0.00  0.00    +0.000 C 
BRANCH   9  10
ATOM     10  C   UNL     1      -2.052  -6.212   1.470  0.00  0.00    +0.000 C 
BRANCH  10  11
ATOM     11  N   UNL     1      -1.761  -7.411   2.288  0.00  0.00    +0.000 NA
ATOM     12  C   UNL     1      -0.779  -7.154   3.354  0.00  0.00    +0.000 C 
ATOM     13  C   UNL     1      -0.431  -8.445   4.101  0.00  0.00    +0.000 C 
ATOM     14  C   UNL     1      -1.673  -9.119   4.670  0.00  0.00    +0.000 C 
ATOM     15  C   UNL     1      -2.736  -9.278   3.589  0.00  0.00    +0.000 C 
ATOM     16  C   UNL     1      -3.003  -7.955   2.866  0.00  0.00    +0.000 C 
ENDBRANCH  10  11
ENDBRANCH   9  10
ENDBRANCH   8   9
ENDBRANCH   5   8
ENDBRANCH   1   2
BRANCH   1  19
ATOM     17  C   UNL     1       3.813  -1.169  -5.048  0.00  0.00    +0.000 C 
ATOM     18  O   UNL     1       4.806  -0.659  -4.526  0.00  0.00    +0.000 OA
ATOM     19  N   UNL     1       2.852  -1.782  -4.292  0.00  0.00    +0.000 N 
ATOM     20  H   UNL     1       2.010  -2.145  -4.722  0.00  0.00    +0.000 HD
BRANCH  17  28
ATOM     21  C   UNL     1       1.397  -2.443  -7.161  0.00  0.00    +0.000 A 
ATOM     22  N   UNL     1       0.659  -2.873  -8.206  0.00  0.00    +0.000 NA
ATOM     23  C   UNL     1       1.068  -2.571  -9.439  0.00  0.00    +0.000 A 
ATOM     24  N   UNL     1       2.150  -1.876  -9.772  0.00  0.00    +0.000 NA
ATOM     25  C   UNL     1       2.868  -1.480  -8.708  0.00  0.00    +0.000 A 
ATOM     26  S   UNL     1       4.284  -0.576  -8.953  0.00  0.00    +0.000 S 
ATOM     27  C   UNL     1       4.581  -0.498  -7.284  0.00  0.00    +0.000 A 
ATOM     28  C   UNL     1       3.625  -1.148  -6.508  0.00  0.00    +0.000 A 
ATOM     29  C   UNL     1       2.586  -1.721  -7.364  0.00  0.00    +0.000 A 
BRANCH  21  31
ATOM     30  C   UNL     1      -0.303  -3.420  -5.870  0.00  0.00    +0.000 C 
ATOM     31  O   UNL     1       0.933  -2.704  -5.888  0.00  0.00    +0.000 OA
ENDBRANCH  21  31
ENDBRANCH  17  28
ENDBRANCH   1  19
TORSDOF 8
