REMARK  Name = 
REMARK  5 active torsions:
REMARK  status: ('A' for Active; 'I' for Inactive)
REMARK    1  A    between atoms: C_2  and  C_4
REMARK    2  A    between atoms: C_7  and  N_8
REMARK    3  A    between atoms: N_8  and  C_9
REMARK    4  A    between atoms: C_9  and  C_10
REMARK    5  A    between atoms: C_12  and  C_13
REMARK                            x       y       z     vdW  Elec       q    Type
REMARK                         _______ _______ _______ _____ _____    ______ ____
ROOT
ATOM      1  N   UNL     1       5.568  -4.549  -1.557  0.00  0.00    +0.000 N 
ATOM      2  H   UNL     1       5.532  -4.873  -0.592  0.00  0.00    +0.000 HD
ENDROOT
BRANCH   1   6
ATOM      3  C   UNL     1       4.888  -0.412  -1.997  0.00  0.00    +0.000 A 
ATOM      4  C   UNL     1       4.311  -1.302  -2.901  0.00  0.00    +0.000 A 
ATOM      5  C   UNL     1       4.496  -2.680  -2.745  0.00  0.00    +0.000 A 
ATOM      6  C   UNL     1       5.253  -3.199  -1.687  0.00  0.00    +0.000 A 
ATOM      7  C   UNL     1       5.835  -2.289  -0.793  0.00  0.00    +0.000 A 
ATOM      8  C   UNL     1       5.663  -0.907  -0.946  0.00  0.00    +0.000 A 
BRANCH   3  10
ATOM      9  N   UNL     1       3.608   1.500  -2.784  0.00  0.00    +0.000 N 
ATOM     10  C   UNL     1       4.739   1.055  -2.154  0.00  0.00    +0.000 C 
ATOM     11  O   UNL     1       5.576   1.839  -1.728  0.00  0.00    +0.000 OA
ATOM     12  H   UNL     1       3.468   2.506  -2.800  0.00  0.00    +0.000 HD
ATOM     13  H   UNL     1       2.799   0.912  -2.929  0.00  0.00    +0.000 HD
ENDBRANCH   3  10
ENDBRANCH   1   6
BRANCH   1  14
ATOM     14  C   UNL     1       5.079  -5.546  -2.505  0.00  0.00    +0.000 C 
BRANCH  14  15
ATOM     15  C   UNL     1       6.016  -6.735  -2.579  0.00  0.00    +0.000 A 
ATOM     16  C   UNL     1       7.346  -6.543  -2.969  0.00  0.00    +0.000 A 
ATOM     17  C   UNL     1       8.214  -7.634  -3.096  0.00  0.00    +0.000 A 
ATOM     18  C   UNL     1       7.672  -8.897  -2.826  0.00  0.00    +0.000 A 
ATOM     19  C   UNL     1       6.340  -9.010  -2.458  0.00  0.00    +0.000 A 
ATOM     20  N   UNL     1       5.503  -7.962  -2.325  0.00  0.00    +0.000 NA
BRANCH  17  21
ATOM     21  C   UNL     1       9.630  -7.458  -3.493  0.00  0.00    +0.000 A 
ATOM     22  C   UNL     1      10.350  -6.303  -3.152  0.00  0.00    +0.000 A 
ATOM     23  C   UNL     1      11.676  -6.179  -3.543  0.00  0.00    +0.000 A 
ATOM     24  N   UNL     1      12.342  -7.121  -4.241  0.00  0.00    +0.000 NA
ATOM     25  C   UNL     1      11.648  -8.228  -4.564  0.00  0.00    +0.000 A 
ATOM     26  C   UNL     1      10.319  -8.437  -4.225  0.00  0.00    +0.000 A 
ENDBRANCH  17  21
ENDBRANCH  14  15
ENDBRANCH   1  14
TORSDOF 5
