REMARK  Name = 
REMARK  5 active torsions:
REMARK  status: ('A' for Active; 'I' for Inactive)
REMARK    1  A    between atoms: N_1  and  C_2
REMARK    2  A    between atoms: C_2  and  C_3
REMARK    3  A    between atoms: C_3  and  C_4
REMARK    4  A    between atoms: C_8  and  C_9
REMARK    5  A    between atoms: C_9  and  N_10
REMARK                            x       y       z     vdW  Elec       q    Type
REMARK                         _______ _______ _______ _____ _____    ______ ____
ROOT
ATOM      1  C   UNL     1       4.509   1.190  -0.604  0.00  0.00    +0.000 A 
ATOM      2  C   UNL     1       5.117   1.742   0.516  0.00  0.00    +0.000 A 
ATOM      3  C   UNL     1       6.492   1.872   0.532  0.00  0.00    +0.000 A 
ATOM      4  C   UNL     1       7.237   1.433  -0.568  0.00  0.00    +0.000 A 
ATOM      5  C   UNL     1       6.578   0.805  -1.628  0.00  0.00    +0.000 A 
ATOM      6  N   UNL     1       5.225   0.700  -1.655  0.00  0.00    +0.000 NA
ENDROOT
BRANCH   1   7
ATOM      7  C   UNL     1       3.008   1.126  -0.686  0.00  0.00    +0.000 C 
BRANCH   7   8
ATOM      8  C   UNL     1       2.472  -0.180  -0.102  0.00  0.00    +0.000 C 
BRANCH   8   9
ATOM      9  N   UNL     1       1.011  -0.230  -0.182  0.00  0.00    +0.000 NA
ATOM     10  H   UNL     1       0.688  -1.133   0.166  0.00  0.00    +0.000 HD
ATOM     11  H   UNL     1       0.723  -0.187  -1.159  0.00  0.00    +0.000 HD
ENDBRANCH   8   9
ENDBRANCH   7   8
ENDBRANCH   1   7
BRANCH   5  12
ATOM     12  C   UNL     1       7.319   0.218  -2.809  0.00  0.00    +0.000 C 
BRANCH  12  13
ATOM     13  N   UNL     1       8.250  -0.847  -2.434  0.00  0.00    +0.000 N 
ATOM     14  N   UNL     1       9.563  -0.711  -2.754  0.00  0.00    +0.000 NA
ATOM     15  C   UNL     1      10.141  -1.758  -2.160  0.00  0.00    +0.000 A 
ATOM     16  C   UNL     1       9.219  -2.587  -1.487  0.00  0.00    +0.000 A 
ATOM     17  C   UNL     1       9.295  -3.739  -0.689  0.00  0.00    +0.000 A 
ATOM     18  C   UNL     1       8.114  -4.246  -0.147  0.00  0.00    +0.000 A 
ATOM     19  F   UNL     1       8.174  -5.316   0.657  0.00  0.00    +0.000 F 
ATOM     20  C   UNL     1       6.879  -3.662  -0.405  0.00  0.00    +0.000 A 
ATOM     21  C   UNL     1       6.781  -2.531  -1.219  0.00  0.00    +0.000 A 
ATOM     22  C   UNL     1       7.976  -1.995  -1.726  0.00  0.00    +0.000 A 
ENDBRANCH  12  13
ENDBRANCH   5  12
TORSDOF 5
