REMARK  Name = 
REMARK  7 active torsions:
REMARK  status: ('A' for Active; 'I' for Inactive)
REMARK    1  A    between atoms: C_1  and  C_2
REMARK    2  A    between atoms: C_2  and  C_3
REMARK    3  A    between atoms: C_7  and  C_8
REMARK    4  A    between atoms: C_8  and  C_9
REMARK    5  A    between atoms: C_9  and  N_10
REMARK    6  A    between atoms: C_14  and  C_15
REMARK    7  A    between atoms: C_23  and  O_24
REMARK                            x       y       z     vdW  Elec       q    Type
REMARK                         _______ _______ _______ _____ _____    ______ ____
ROOT
ATOM      1  C   UNL     1       2.854   0.432   1.392  0.00  0.00    +0.000 A 
ATOM      2  C   UNL     1       2.617   1.708   1.926  0.00  0.00    +0.000 A 
ATOM      3  C   UNL     1       2.937   2.004   3.256  0.00  0.00    +0.000 A 
ATOM      4  C   UNL     1       3.491   1.029   4.088  0.00  0.00    +0.000 A 
ATOM      5  C   UNL     1       3.753  -0.251   3.593  0.00  0.00    +0.000 A 
ATOM      6  C   UNL     1       3.451  -0.510   2.242  0.00  0.00    +0.000 A 
ENDROOT
BRANCH   1   8
ATOM      7  C   UNL     1       0.837   0.155  -0.025  0.00  0.00    +0.000 C 
ATOM      8  C   UNL     1       2.383   0.050  -0.032  0.00  0.00    +0.000 C 
ATOM      9  C   UNL     1       2.997   1.016  -1.081  0.00  0.00    +0.000 C 
ATOM     10  C   UNL     1       2.652   0.652  -2.527  0.00  0.00    +0.000 C 
ATOM     11  C   UNL     1       3.020  -0.790  -2.867  0.00  0.00    +0.000 C 
ATOM     12  C   UNL     1       2.425  -1.779  -1.874  0.00  0.00    +0.000 C 
ATOM     13  C   UNL     1       2.779  -1.405  -0.438  0.00  0.00    +0.000 C 
BRANCH  11  14
ATOM     14  O   UNL     1       2.561  -1.102  -4.178  0.00  0.00    +0.000 OA
ATOM     15  H   UNL     1       1.589  -1.074  -4.172  0.00  0.00    +0.000 HD
ENDBRANCH  11  14
ENDBRANCH   1   8
BRANCH   5  16
ATOM     16  C   UNL     1       4.296  -1.332   4.519  0.00  0.00    +0.000 C 
BRANCH  16  17
ATOM     17  C   UNL     1       4.524  -2.681   3.822  0.00  0.00    +0.000 C 
BRANCH  17  18
ATOM     18  N   UNL     1       4.996  -3.744   4.715  0.00  0.00    +0.000 N 
ATOM     19  C   UNL     1       5.182  -4.951   3.995  0.00  0.00    +0.000 A 
ATOM     20  C   UNL     1       5.619  -6.108   4.653  0.00  0.00    +0.000 A 
ATOM     21  N   UNL     1       5.831  -7.306   4.039  0.00  0.00    +0.000 NA
ATOM     22  C   UNL     1       5.594  -7.300   2.697  0.00  0.00    +0.000 A 
ATOM     23  C   UNL     1       5.172  -6.169   2.026  0.00  0.00    +0.000 A 
ATOM     24  N   UNL     1       4.964  -4.987   2.659  0.00  0.00    +0.000 NA
ATOM     25  H   UNL     1       4.342  -3.917   5.475  0.00  0.00    +0.000 HD
BRANCH  22  26
ATOM     26  C   UNL     1       5.800  -8.565   1.935  0.00  0.00    +0.000 C 
ATOM     27  N   UNL     1       6.236  -9.634   2.666  0.00  0.00    +0.000 N 
ATOM     28  O   UNL     1       5.592  -8.646   0.732  0.00  0.00    +0.000 OA
ATOM     29  H   UNL     1       6.414  -9.537   3.660  0.00  0.00    +0.000 HD
ATOM     30  H   UNL     1       6.407 -10.514   2.200  0.00  0.00    +0.000 HD
ENDBRANCH  22  26
ENDBRANCH  17  18
ENDBRANCH  16  17
ENDBRANCH   5  16
TORSDOF 6
