REMARK  Name = 
REMARK  5 active torsions:
REMARK  status: ('A' for Active; 'I' for Inactive)
REMARK    1  A    between atoms: C_1  and  C_2
REMARK    2  A    between atoms: C_4  and  O_5
REMARK    3  A    between atoms: O_5  and  C_6
REMARK    4  A    between atoms: C_6  and  C_7
REMARK    5  A    between atoms: C_16  and  C_17
REMARK                            x       y       z     vdW  Elec       q    Type
REMARK                         _______ _______ _______ _____ _____    ______ ____
ROOT
ATOM      1  C   UNL     1      -2.562  -0.032  -0.022  0.00  0.00    +0.000 C 
ATOM      2  C   UNL     1      -1.060   0.023   0.000  0.00  0.00    +0.000 A 
ATOM      3  C   UNL     1      -0.333  -1.179   0.019  0.00  0.00    +0.000 A 
ATOM      4  C   UNL     1       1.052  -1.134   0.073  0.00  0.00    +0.000 A 
ATOM      5  N   UNL     1       1.758   0.014   0.082  0.00  0.00    +0.000 NA
ATOM      6  C   UNL     1       1.044   1.165   0.056  0.00  0.00    +0.000 A 
ATOM      7  C   UNL     1      -0.346   1.235   0.011  0.00  0.00    +0.000 A 
ENDROOT
BRANCH   7   8
ATOM      8  C   UNL     1      -1.014   2.563   0.029  0.00  0.00    +0.000 C 
ATOM      9  N   UNL     1      -0.346   3.620  -0.529  0.00  0.00    +0.000 N 
ATOM     10  O   UNL     1      -2.128   2.733   0.509  0.00  0.00    +0.000 OA
ATOM     11  H   UNL     1       0.470   3.530  -1.117  0.00  0.00    +0.000 HD
ATOM     12  H   UNL     1      -0.851   4.498  -0.565  0.00  0.00    +0.000 HD
ENDBRANCH   7   8
BRANCH   4  13
ATOM     13  O   UNL     1       1.718  -2.342   0.093  0.00  0.00    +0.000 OA
BRANCH  13  14
ATOM     14  C   UNL     1       3.042  -2.212   0.621  0.00  0.00    +0.000 C 
BRANCH  14  15
ATOM     15  C   UNL     1       3.767  -3.543   0.592  0.00  0.00    +0.000 A 
ATOM     16  C   UNL     1       3.619  -4.430  -0.487  0.00  0.00    +0.000 A 
ATOM     17  C   UNL     1       4.348  -5.620  -0.529  0.00  0.00    +0.000 A 
ATOM     18  C   UNL     1       5.235  -5.920   0.498  0.00  0.00    +0.000 A 
ATOM     19  F   UNL     1       5.938  -7.059   0.452  0.00  0.00    +0.000 F 
ATOM     20  C   UNL     1       5.410  -5.050   1.567  0.00  0.00    +0.000 A 
ATOM     21  C   UNL     1       4.681  -3.860   1.611  0.00  0.00    +0.000 A 
ENDBRANCH  14  15
ENDBRANCH  13  14
ENDBRANCH   4  13
TORSDOF 4
