REMARK  Name = 
REMARK  5 active torsions:
REMARK  status: ('A' for Active; 'I' for Inactive)
REMARK    1  A    between atoms: C_2  and  C_3
REMARK    2  A    between atoms: C_6  and  C_7
REMARK    3  A    between atoms: C_11  and  C_12
REMARK    4  A    between atoms: C_12  and  N_13
REMARK    5  A    between atoms: C_17  and  C_18
REMARK                            x       y       z     vdW  Elec       q    Type
REMARK                         _______ _______ _______ _____ _____    ______ ____
ROOT
ATOM      1  C   UNL     1       6.597   0.753   2.186  0.00  0.00    +0.000 C 
ATOM      2  C   UNL     1       7.708   1.785   2.116  0.00  0.00    +0.000 C 
ATOM      3  C   UNL     1       8.065   0.378   2.456  0.00  0.00    +0.000 C 
ENDROOT
BRANCH   1   4
ATOM      4  N   UNL     1       5.730   0.551   3.344  0.00  0.00    +0.000 N 
ATOM      5  C   UNL     1       4.735   1.388   3.826  0.00  0.00    +0.000 A 
ATOM      6  C   UNL     1       4.530   2.688   3.394  0.00  0.00    +0.000 A 
ATOM      7  C   UNL     1       3.545   3.468   4.015  0.00  0.00    +0.000 A 
ATOM      8  C   UNL     1       2.796   2.937   5.065  0.00  0.00    +0.000 A 
ATOM      9  C   UNL     1       3.053   1.624   5.413  0.00  0.00    +0.000 A 
ATOM     10  N   UNL     1       3.992   0.849   4.816  0.00  0.00    +0.000 NA
ATOM     11  H   UNL     1       5.525  -0.402   3.632  0.00  0.00    +0.000 HD
BRANCH   8  12
ATOM     12  C   UNL     1       1.788   3.786   5.747  0.00  0.00    +0.000 C 
ATOM     13  N   UNL     1       1.064   3.251   6.782  0.00  0.00    +0.000 N 
ATOM     14  O   UNL     1       1.607   4.942   5.404  0.00  0.00    +0.000 OA
ATOM     15  H   UNL     1       1.160   2.321   7.159  0.00  0.00    +0.000 HD
ATOM     16  H   UNL     1       0.404   3.869   7.235  0.00  0.00    +0.000 HD
ENDBRANCH   8  12
ENDBRANCH   1   4
BRANCH   1  21
ATOM     17  C   UNL     1       5.824  -1.378  -0.724  0.00  0.00    +0.000 A 
ATOM     18  N   UNL     1       5.120  -0.615  -1.577  0.00  0.00    +0.000 NA
ATOM     19  C   UNL     1       4.815   0.617  -1.149  0.00  0.00    +0.000 A 
ATOM     20  C   UNL     1       5.213   1.117   0.069  0.00  0.00    +0.000 A 
ATOM     21  C   UNL     1       5.981   0.285   0.868  0.00  0.00    +0.000 A 
ATOM     22  N   UNL     1       6.246  -0.980   0.485  0.00  0.00    +0.000 NA
BRANCH  17  26
ATOM     23  C   UNL     1       6.999  -5.326  -1.952  0.00  0.00    +0.000 A 
ATOM     24  C   UNL     1       7.323  -4.863  -0.675  0.00  0.00    +0.000 A 
ATOM     25  C   UNL     1       6.944  -3.576  -0.286  0.00  0.00    +0.000 A 
ATOM     26  C   UNL     1       6.223  -2.725  -1.149  0.00  0.00    +0.000 A 
ATOM     27  C   UNL     1       5.916  -3.211  -2.431  0.00  0.00    +0.000 A 
ATOM     28  C   UNL     1       6.304  -4.490  -2.821  0.00  0.00    +0.000 A 
ATOM     29  F   UNL     1       5.991  -4.903  -4.057  0.00  0.00    +0.000 F 
BRANCH  23  31
ATOM     30  N   UNL     1       7.709  -7.715  -2.659  0.00  0.00    +0.000 NA
ATOM     31  C   UNL     1       7.383  -6.640  -2.362  0.00  0.00    +0.000 C 
ENDBRANCH  23  31
ENDBRANCH  17  26
ENDBRANCH   1  21
TORSDOF 5
