REMARK  Name = 
REMARK  7 active torsions:
REMARK  status: ('A' for Active; 'I' for Inactive)
REMARK    1  A    between atoms: C_1  and  O_2
REMARK    2  A    between atoms: O_2  and  C_3
REMARK    3  A    between atoms: C_5  and  C_6
REMARK    4  A    between atoms: C_11  and  N_12
REMARK    5  A    between atoms: N_12  and  C_13
REMARK    6  A    between atoms: C_13  and  C_14
REMARK    7  A    between atoms: C_17  and  O_18
REMARK                            x       y       z     vdW  Elec       q    Type
REMARK                         _______ _______ _______ _____ _____    ______ ____
ROOT
ATOM      1  N   UNL     1       4.590   0.983  -1.145  0.00  0.00    +0.000 N 
ATOM      2  H   UNL     1       5.182   1.694  -1.568  0.00  0.00    +0.000 HD
ENDROOT
BRANCH   1   8
ATOM      3  C   UNL     1       4.557   2.404   0.813  0.00  0.00    +0.000 A 
ATOM      4  C   UNL     1       3.918   2.850   1.973  0.00  0.00    +0.000 A 
ATOM      5  C   UNL     1       2.604   2.467   2.241  0.00  0.00    +0.000 A 
ATOM      6  C   UNL     1       1.978   1.669   1.298  0.00  0.00    +0.000 A 
ATOM      7  N   UNL     1       2.572   1.208   0.162  0.00  0.00    +0.000 NA
ATOM      8  C   UNL     1       3.858   1.567  -0.077  0.00  0.00    +0.000 A 
BRANCH   5   9
ATOM      9  C   UNL     1       1.992   2.925   3.516  0.00  0.00    +0.000 C 
ATOM     10  N   UNL     1       0.699   2.584   3.798  0.00  0.00    +0.000 N 
ATOM     11  O   UNL     1       2.627   3.594   4.318  0.00  0.00    +0.000 OA
ATOM     12  H   UNL     1       0.088   2.035   3.215  0.00  0.00    +0.000 HD
ATOM     13  H   UNL     1       0.332   2.910   4.682  0.00  0.00    +0.000 HD
ENDBRANCH   5   9
BRANCH   3  15
ATOM     14  C   UNL     1       6.662   3.204   1.561  0.00  0.00    +0.000 C 
ATOM     15  O   UNL     1       5.849   2.752   0.480  0.00  0.00    +0.000 OA
ENDBRANCH   3  15
ENDBRANCH   1   8
BRANCH   1  16
ATOM     16  C   UNL     1       4.011  -0.037  -2.044  0.00  0.00    +0.000 C 
ATOM     17  C   UNL     1       3.436  -1.305  -1.445  0.00  0.00    +0.000 C 
ATOM     18  C   UNL     1       4.750  -1.367  -2.147  0.00  0.00    +0.000 C 
BRANCH  16  19
ATOM     19  C   UNL     1       3.491   0.535  -3.357  0.00  0.00    +0.000 A 
ATOM     20  C   UNL     1       2.118   0.711  -3.604  0.00  0.00    +0.000 A 
ATOM     21  C   UNL     1       1.655   1.365  -4.754  0.00  0.00    +0.000 A 
ATOM     22  C   UNL     1       2.569   1.850  -5.682  0.00  0.00    +0.000 A 
ATOM     23  C   UNL     1       3.929   1.638  -5.491  0.00  0.00    +0.000 A 
ATOM     24  F   UNL     1       4.822   2.092  -6.381  0.00  0.00    +0.000 F 
ATOM     25  C   UNL     1       4.386   0.980  -4.351  0.00  0.00    +0.000 A 
BRANCH  22  26
ATOM     26  O   UNL     1       2.150   2.554  -6.775  0.00  0.00    +0.000 OA
ATOM     27  H   UNL     1       1.191   2.695  -6.711  0.00  0.00    +0.000 HD
ENDBRANCH  22  26
ENDBRANCH  16  19
ENDBRANCH   1  16
TORSDOF 6
