REMARK  Name = 
REMARK  6 active torsions:
REMARK  status: ('A' for Active; 'I' for Inactive)
REMARK    1  A    between atoms: C_2  and  C_25
REMARK    2  A    between atoms: N_3  and  C_4
REMARK    3  A    between atoms: C_4  and  C_5
REMARK    4  A    between atoms: C_8  and  C_9
REMARK    5  A    between atoms: C_9  and  N_10
REMARK    6  A    between atoms: C_11  and  C_13
REMARK                            x       y       z     vdW  Elec       q    Type
REMARK                         _______ _______ _______ _____ _____    ______ ____
ROOT
ATOM      1  C   UNL     1       3.323  -2.936  -2.152  0.00  0.00    +0.000 A 
ATOM      2  C   UNL     1       4.493  -2.478  -2.772  0.00  0.00    +0.000 A 
ATOM      3  C   UNL     1       5.377  -3.376  -3.379  0.00  0.00    +0.000 A 
ATOM      4  C   UNL     1       5.098  -4.749  -3.397  0.00  0.00    +0.000 A 
ATOM      5  C   UNL     1       3.934  -5.207  -2.767  0.00  0.00    +0.000 A 
ATOM      6  C   UNL     1       3.050  -4.310  -2.161  0.00  0.00    +0.000 A 
ENDROOT
BRANCH   1   7
ATOM      7  C   UNL     1       2.376  -1.970  -1.494  0.00  0.00    +0.000 C 
BRANCH   7  10
ATOM      8  O   UNL     1       0.264  -0.259  -0.816  0.00  0.00    +0.000 OA
ATOM      9  C   UNL     1       0.367  -0.650  -1.974  0.00  0.00    +0.000 C 
ATOM     10  N   UNL     1       1.364  -1.493  -2.404  0.00  0.00    +0.000 N 
ATOM     11  H   UNL     1       1.396  -1.727  -3.391  0.00  0.00    +0.000 HD
BRANCH   9  12
ATOM     12  C   UNL     1      -0.561  -0.255  -3.022  0.00  0.00    +0.000 A 
ATOM     13  C   UNL     1      -1.629   0.603  -2.880  0.00  0.00    +0.000 A 
ATOM     14  O   UNL     1      -2.261   0.703  -4.082  0.00  0.00    +0.000 OA
ATOM     15  C   UNL     1      -1.537  -0.109  -4.901  0.00  0.00    +0.000 A 
ATOM     16  N   UNL     1      -0.509  -0.702  -4.336  0.00  0.00    +0.000 NA
ENDBRANCH   9  12
ENDBRANCH   7  10
ENDBRANCH   1   7
BRANCH   4  17
ATOM     17  C   UNL     1       6.050  -5.724  -4.041  0.00  0.00    +0.000 C 
BRANCH  17  18
ATOM     18  N   UNL     1       7.026  -6.200  -3.094  0.00  0.00    +0.000 N 
ATOM     19  C   UNL     1       8.047  -7.032  -3.475  0.00  0.00    +0.000 C 
ATOM     20  O   UNL     1       8.212  -7.369  -4.644  0.00  0.00    +0.000 OA
ATOM     21  H   UNL     1       6.780  -6.130  -2.112  0.00  0.00    +0.000 HD
BRANCH  19  22
ATOM     22  C   UNL     1       8.978  -7.450  -2.418  0.00  0.00    +0.000 A 
ATOM     23  C   UNL     1      10.260  -7.867  -2.753  0.00  0.00    +0.000 A 
ATOM     24  S   UNL     1      11.231  -8.249  -1.404  0.00  0.00    +0.000 S 
ATOM     25  C   UNL     1       9.956  -7.924  -0.326  0.00  0.00    +0.000 A 
ATOM     26  N   UNL     1      10.119  -8.074   1.016  0.00  0.00    +0.000 NA
ATOM     27  C   UNL     1       9.060  -7.826   1.713  0.00  0.00    +0.000 A 
ATOM     28  N   UNL     1       7.854  -7.440   1.190  0.00  0.00    +0.000 N 
ATOM     29  C   UNL     1       7.649  -7.252  -0.156  0.00  0.00    +0.000 A 
ATOM     30  O   UNL     1       6.566  -6.875  -0.588  0.00  0.00    +0.000 OA
ATOM     31  C   UNL     1       8.809  -7.520  -0.986  0.00  0.00    +0.000 A 
ATOM     32  H   UNL     1       7.063  -7.258   1.790  0.00  0.00    +0.000 HD
ENDBRANCH  19  22
ENDBRANCH  17  18
ENDBRANCH   4  17
TORSDOF 6
