REMARK  Name = 
REMARK  5 active torsions:
REMARK  status: ('A' for Active; 'I' for Inactive)
REMARK    1  A    between atoms: N_1  and  C_2
REMARK    2  A    between atoms: C_2  and  C_3
REMARK    3  A    between atoms: C_3  and  C_4
REMARK    4  A    between atoms: N_10  and  C_11
REMARK    5  A    between atoms: C_11  and  C_12
REMARK                            x       y       z     vdW  Elec       q    Type
REMARK                         _______ _______ _______ _____ _____    ______ ____
ROOT
ATOM      1  C   UNL     1       4.500   1.394   0.301  0.00  0.00    +0.000 A 
ATOM      2  C   UNL     1       5.253   2.572   0.275  0.00  0.00    +0.000 A 
ATOM      3  N   UNL     1       6.603   2.656   0.246  0.00  0.00    +0.000 NA
ATOM      4  C   UNL     1       7.233   1.459   0.247  0.00  0.00    +0.000 A 
ATOM      5  N   UNL     1       8.583   1.243   0.216  0.00  0.00    +0.000 NA
ATOM      6  N   UNL     1       8.789  -0.070   0.216  0.00  0.00    +0.000 NA
ATOM      7  N   UNL     1       7.580  -0.667   0.268  0.00  0.00    +0.000 N 
ATOM      8  C   UNL     1       6.562   0.245   0.270  0.00  0.00    +0.000 A 
ATOM      9  C   UNL     1       5.171   0.167   0.296  0.00  0.00    +0.000 A 
ENDROOT
BRANCH   1  10
ATOM     10  C   UNL     1       2.994   1.435   0.313  0.00  0.00    +0.000 C 
BRANCH  10  11
ATOM     11  C   UNL     1       2.409   1.441  -1.103  0.00  0.00    +0.000 C 
BRANCH  11  12
ATOM     12  N   UNL     1       0.949   1.463  -1.064  0.00  0.00    +0.000 NA
ATOM     13  H   UNL     1       0.585   1.482  -2.016  0.00  0.00    +0.000 HD
ATOM     14  H   UNL     1       0.627   2.324  -0.623  0.00  0.00    +0.000 HD
ENDBRANCH  11  12
ENDBRANCH  10  11
ENDBRANCH   1  10
BRANCH   7  15
ATOM     15  C   UNL     1       7.477  -2.115   0.306  0.00  0.00    +0.000 C 
BRANCH  15  16
ATOM     16  C   UNL     1       7.381  -2.614   1.720  0.00  0.00    +0.000 A 
ATOM     17  C   UNL     1       8.445  -2.474   2.619  0.00  0.00    +0.000 A 
ATOM     18  C   UNL     1       8.298  -2.900   3.935  0.00  0.00    +0.000 A 
ATOM     19  C   UNL     1       7.094  -3.465   4.311  0.00  0.00    +0.000 A 
ATOM     20  N   UNL     1       6.053  -3.640   3.466  0.00  0.00    +0.000 NA
ATOM     21  C   UNL     1       6.220  -3.211   2.196  0.00  0.00    +0.000 A 
ENDBRANCH  15  16
ENDBRANCH   7  15
TORSDOF 5
