REMARK  Name = 
REMARK  9 active torsions:
REMARK  status: ('A' for Active; 'I' for Inactive)
REMARK    1  A    between atoms: C_1  and  O_2
REMARK    2  A    between atoms: O_2  and  C_3
REMARK    3  A    between atoms: C_3  and  C_4
REMARK    4  A    between atoms: C_4  and  N_5
REMARK    5  A    between atoms: N_5  and  C_6
REMARK    6  A    between atoms: C_6  and  C_7
REMARK    7  A    between atoms: C_10  and  C_11
REMARK    8  A    between atoms: C_11  and  N_12
REMARK    9  A    between atoms: C_20  and  C_22
REMARK                            x       y       z     vdW  Elec       q    Type
REMARK                         _______ _______ _______ _____ _____    ______ ____
ROOT
ATOM      1  N   UNL     1       4.811   1.445  -2.329  0.00  0.00    +0.000 N 
ATOM      2  C   UNL     1       6.204   1.418  -2.571  0.00  0.00    +0.000 C 
ATOM      3  O   UNL     1       6.991   1.093  -1.685  0.00  0.00    +0.000 OA
ENDROOT
BRANCH   2   4
ATOM      4  C   UNL     1       6.743   1.813  -3.893  0.00  0.00    +0.000 A 
ATOM      5  C   UNL     1       6.376   2.939  -4.616  0.00  0.00    +0.000 A 
ATOM      6  S   UNL     1       7.226   3.129  -6.085  0.00  0.00    +0.000 S 
ATOM      7  C   UNL     1       8.241   1.819  -5.717  0.00  0.00    +0.000 A 
ATOM      8  N   UNL     1       9.307   1.522  -6.504  0.00  0.00    +0.000 NA
ATOM      9  C   UNL     1      10.022   0.539  -6.078  0.00  0.00    +0.000 A 
ATOM     10  N   UNL     1       9.758  -0.189  -4.947  0.00  0.00    +0.000 N 
ATOM     11  C   UNL     1       8.615  -0.009  -4.192  0.00  0.00    +0.000 A 
ATOM     12  O   UNL     1       8.281  -0.832  -3.351  0.00  0.00    +0.000 OA
ATOM     13  C   UNL     1       7.854   1.171  -4.561  0.00  0.00    +0.000 A 
ATOM     14  H   UNL     1      10.316  -0.994  -4.708  0.00  0.00    +0.000 HD
ENDBRANCH   2   4
BRANCH   1  15
ATOM     15  C   UNL     1       4.354   1.106  -0.969  0.00  0.00    +0.000 C 
BRANCH  15  16
ATOM     16  C   UNL     1       4.757   2.113   0.123  0.00  0.00    +0.000 C 
BRANCH  16  18
ATOM     17  C   UNL     1       4.756   2.489   2.458  0.00  0.00    +0.000 C 
ATOM     18  O   UNL     1       4.318   1.638   1.403  0.00  0.00    +0.000 OA
ENDBRANCH  16  18
ENDBRANCH  15  16
ENDBRANCH   1  15
BRANCH   1  19
ATOM     19  C   UNL     1       3.879   1.902  -3.347  0.00  0.00    +0.000 C 
BRANCH  19  20
ATOM     20  C   UNL     1       2.392   1.689  -3.270  0.00  0.00    +0.000 A 
ATOM     21  C   UNL     1       1.554   2.776  -2.977  0.00  0.00    +0.000 A 
ATOM     22  C   UNL     1       0.193   2.725  -3.290  0.00  0.00    +0.000 A 
ATOM     23  C   UNL     1      -0.361   1.574  -3.865  0.00  0.00    +0.000 A 
ATOM     24  C   UNL     1       0.461   0.453  -4.054  0.00  0.00    +0.000 A 
ATOM     25  C   UNL     1       1.824   0.506  -3.754  0.00  0.00    +0.000 A 
BRANCH  23  26
ATOM     26  C   UNL     1      -1.822   1.515  -4.255  0.00  0.00    +0.000 C 
BRANCH  26  27
ATOM     27  N   UNL     1      -2.162   2.013  -5.598  0.00  0.00    +0.000 NA
ATOM     28  C   UNL     1      -1.540   1.284  -6.728  0.00  0.00    +0.000 C 
ATOM     29  C   UNL     1      -2.015   1.866  -8.083  0.00  0.00    +0.000 C 
ATOM     30  O   UNL     1      -3.445   1.859  -8.207  0.00  0.00    +0.000 OA
ATOM     31  C   UNL     1      -4.042   2.558  -7.108  0.00  0.00    +0.000 C 
ATOM     32  C   UNL     1      -3.631   1.913  -5.782  0.00  0.00    +0.000 C 
ENDBRANCH  26  27
ENDBRANCH  23  26
ENDBRANCH  19  20
ENDBRANCH   1  19
TORSDOF 8
