REMARK  Name = 
REMARK  10 active torsions:
REMARK  status: ('A' for Active; 'I' for Inactive)
REMARK    1  A    between atoms: C_2  and  C_3
REMARK    2  A    between atoms: C_3  and  N_4
REMARK    3  A    between atoms: C_3  and  C_17
REMARK    4  A    between atoms: N_4  and  C_5
REMARK    5  A    between atoms: C_5  and  C_6
REMARK    6  A    between atoms: C_9  and  C_10
REMARK    7  A    between atoms: C_10  and  C_11
REMARK    8  A    between atoms: C_10  and  C_13
REMARK    9  A    between atoms: C_11  and  O_12
REMARK   10  A    between atoms: C_13  and  O_14
REMARK                            x       y       z     vdW  Elec       q    Type
REMARK                         _______ _______ _______ _____ _____    ______ ____
ROOT
ATOM      1  N   UNL     1       4.304   1.210   0.659  0.00  0.00    +0.000 NA
ATOM      2  H   UNL     1       5.315   1.245   0.775  0.00  0.00    +0.000 HD
ENDROOT
BRANCH   1   3
ATOM      3  C   UNL     1       3.947   0.017  -0.162  0.00  0.00    +0.000 C 
BRANCH   3   4
ATOM      4  C   UNL     1       4.461  -1.208   0.583  0.00  0.00    +0.000 A 
ATOM      5  C   UNL     1       4.054  -1.540   1.871  0.00  0.00    +0.000 A 
ATOM      6  S   UNL     1       4.842  -2.910   2.507  0.00  0.00    +0.000 S 
ATOM      7  C   UNL     1       5.745  -3.128   1.083  0.00  0.00    +0.000 A 
ATOM      8  N   UNL     1       6.669  -4.121   0.986  0.00  0.00    +0.000 NA
ATOM      9  C   UNL     1       7.288  -4.168  -0.146  0.00  0.00    +0.000 A 
ATOM     10  N   UNL     1       7.044  -3.327  -1.203  0.00  0.00    +0.000 N 
ATOM     11  C   UNL     1       6.035  -2.386  -1.188  0.00  0.00    +0.000 A 
ATOM     12  O   UNL     1       5.688  -1.786  -2.202  0.00  0.00    +0.000 OA
ATOM     13  C   UNL     1       5.401  -2.208   0.106  0.00  0.00    +0.000 A 
ATOM     14  H   UNL     1       7.515  -3.475  -2.084  0.00  0.00    +0.000 HD
ENDBRANCH   3   4
BRANCH   3  16
ATOM     15  N   UNL     1       1.315  -0.136  -0.479  0.00  0.00    +0.000 NA
ATOM     16  C   UNL     1       2.478  -0.108  -0.353  0.00  0.00    +0.000 C 
ENDBRANCH   3  16
ENDBRANCH   1   3
BRANCH   1  17
ATOM     17  C   UNL     1       3.857   2.457   0.027  0.00  0.00    +0.000 C 
BRANCH  17  18
ATOM     18  C   UNL     1       4.222   3.675   0.840  0.00  0.00    +0.000 A 
ATOM     19  C   UNL     1       5.058   4.668   0.313  0.00  0.00    +0.000 A 
ATOM     20  C   UNL     1       5.360   5.819   1.051  0.00  0.00    +0.000 A 
ATOM     21  C   UNL     1       4.832   5.997   2.338  0.00  0.00    +0.000 A 
ATOM     22  C   UNL     1       3.961   5.017   2.840  0.00  0.00    +0.000 A 
ATOM     23  C   UNL     1       3.672   3.865   2.111  0.00  0.00    +0.000 A 
BRANCH  21  24
ATOM     24  C   UNL     1       5.200   7.227   3.168  0.00  0.00    +0.000 C 
BRANCH  24  25
ATOM     25  C   UNL     1       4.236   8.394   2.897  0.00  0.00    +0.000 C 
BRANCH  25  26
ATOM     26  O   UNL     1       2.901   8.084   3.288  0.00  0.00    +0.000 OA
ATOM     27  H   UNL     1       2.612   7.329   2.744  0.00  0.00    +0.000 HD
ENDBRANCH  25  26
ENDBRANCH  24  25
BRANCH  24  28
ATOM     28  C   UNL     1       5.266   6.941   4.684  0.00  0.00    +0.000 C 
BRANCH  28  29
ATOM     29  O   UNL     1       6.242   5.944   4.985  0.00  0.00    +0.000 OA
ATOM     30  H   UNL     1       5.929   5.104   4.603  0.00  0.00    +0.000 HD
ENDBRANCH  28  29
ENDBRANCH  24  28
ENDBRANCH  21  24
ENDBRANCH  17  18
ENDBRANCH   1  17
TORSDOF 10
