REMARK  Name = 
REMARK  6 active torsions:
REMARK  status: ('A' for Active; 'I' for Inactive)
REMARK    1  A    between atoms: N_1  and  C_2
REMARK    2  A    between atoms: C_2  and  C_3
REMARK    3  A    between atoms: C_6  and  C_7
REMARK    4  A    between atoms: C_7  and  C_8
REMARK    5  A    between atoms: C_8  and  C_9
REMARK    6  A    between atoms: C_13  and  N_14
REMARK                            x       y       z     vdW  Elec       q    Type
REMARK                         _______ _______ _______ _____ _____    ______ ____
ROOT
ATOM      1  C   UNL     1       3.699   4.636   3.118  0.00  0.00    +0.000 C 
ENDROOT
BRANCH   1   5
ATOM      2  C   UNL     1       2.782   1.178   0.645  0.00  0.00    +0.000 A 
ATOM      3  C   UNL     1       3.338   2.328   0.074  0.00  0.00    +0.000 A 
ATOM      4  C   UNL     1       3.644   3.441   0.860  0.00  0.00    +0.000 A 
ATOM      5  C   UNL     1       3.374   3.447   2.234  0.00  0.00    +0.000 A 
ATOM      6  C   UNL     1       2.846   2.283   2.811  0.00  0.00    +0.000 A 
ATOM      7  C   UNL     1       2.549   1.163   2.025  0.00  0.00    +0.000 A 
BRANCH   2   8
ATOM      8  C   UNL     1       2.417  -0.002  -0.218  0.00  0.00    +0.000 C 
BRANCH   8   9
ATOM      9  N   UNL     1       3.562  -0.498  -0.977  0.00  0.00    +0.000 NA
ATOM     10  H   UNL     1       3.300  -1.363  -1.443  0.00  0.00    +0.000 HD
ATOM     11  H   UNL     1       4.306  -0.734  -0.322  0.00  0.00    +0.000 HD
ENDBRANCH   8   9
ENDBRANCH   2   8
ENDBRANCH   1   5
BRANCH   1  12
ATOM     12  C   UNL     1       3.508   6.002   2.443  0.00  0.00    +0.000 C 
BRANCH  12  13
ATOM     13  C   UNL     1       3.811   7.180   3.337  0.00  0.00    +0.000 A 
ATOM     14  C   UNL     1       3.170   8.395   3.111  0.00  0.00    +0.000 A 
ATOM     15  C   UNL     1       3.557   9.503   3.856  0.00  0.00    +0.000 A 
ATOM     16  C   UNL     1       4.576   9.367   4.791  0.00  0.00    +0.000 A 
ATOM     17  C   UNL     1       5.162   8.123   4.963  0.00  0.00    +0.000 A 
ATOM     18  N   UNL     1       4.803   7.043   4.251  0.00  0.00    +0.000 NA
BRANCH  17  19
ATOM     19  N   UNL     1       6.211   7.953   5.863  0.00  0.00    +0.000 N 
ATOM     20  H   UNL     1       5.967   8.282   6.789  0.00  0.00    +0.000 HD
ATOM     21  H   UNL     1       6.441   6.962   5.857  0.00  0.00    +0.000 HD
ENDBRANCH  17  19
ENDBRANCH  12  13
ENDBRANCH   1  12
TORSDOF 6
