REMARK  Name = 
REMARK  5 active torsions:
REMARK  status: ('A' for Active; 'I' for Inactive)
REMARK    1  A    between atoms: C_2  and  C_4
REMARK    2  A    between atoms: C_7  and  N_8
REMARK    3  A    between atoms: N_8  and  C_9
REMARK    4  A    between atoms: C_9  and  C_10
REMARK    5  A    between atoms: C_12  and  C_13
REMARK                            x       y       z     vdW  Elec       q    Type
REMARK                         _______ _______ _______ _____ _____    ______ ____
ROOT
ATOM      1  C   UNL     1       5.914   4.878   5.342  0.00  0.00    +0.000 A 
ATOM      2  C   UNL     1       5.937   6.173   4.817  0.00  0.00    +0.000 A 
ATOM      3  C   UNL     1       6.735   7.163   5.406  0.00  0.00    +0.000 A 
ATOM      4  C   UNL     1       7.472   6.786   6.536  0.00  0.00    +0.000 A 
ATOM      5  C   UNL     1       7.400   5.481   6.996  0.00  0.00    +0.000 A 
ATOM      6  N   UNL     1       6.643   4.521   6.425  0.00  0.00    +0.000 NA
ENDROOT
BRANCH   3   7
ATOM      7  C   UNL     1       6.793   8.543   4.878  0.00  0.00    +0.000 A 
ATOM      8  C   UNL     1       6.568   8.848   3.549  0.00  0.00    +0.000 A 
ATOM      9  C   UNL     1       6.643  10.177   3.208  0.00  0.00    +0.000 A 
ATOM     10  N   UNL     1       6.926  11.151   4.087  0.00  0.00    +0.000 NA
ATOM     11  C   UNL     1       7.159  10.766   5.342  0.00  0.00    +0.000 A 
ATOM     12  N   UNL     1       7.453  11.751   6.260  0.00  0.00    +0.000 N 
ATOM     13  N   UNL     1       7.087   9.506   5.782  0.00  0.00    +0.000 NA
ATOM     14  H   UNL     1       7.096  12.636   5.930  0.00  0.00    +0.000 HD
ATOM     15  H   UNL     1       7.176  11.453   7.184  0.00  0.00    +0.000 HD
ENDBRANCH   3   7
BRANCH   1  16
ATOM     16  C   UNL     1       4.998   3.839   4.721  0.00  0.00    +0.000 C 
BRANCH  16  17
ATOM     17  N   UNL     1       5.334   3.646   3.307  0.00  0.00    +0.000 N 
ATOM     18  H   UNL     1       6.196   3.112   3.219  0.00  0.00    +0.000 HD
BRANCH  17  22
ATOM     19  C   UNL     1       2.511   2.638   0.332  0.00  0.00    +0.000 A 
ATOM     20  C   UNL     1       2.094   3.314   1.478  0.00  0.00    +0.000 A 
ATOM     21  C   UNL     1       3.016   3.628   2.484  0.00  0.00    +0.000 A 
ATOM     22  C   UNL     1       4.361   3.252   2.388  0.00  0.00    +0.000 A 
ATOM     23  C   UNL     1       4.765   2.588   1.218  0.00  0.00    +0.000 A 
ATOM     24  C   UNL     1       3.850   2.263   0.208  0.00  0.00    +0.000 A 
BRANCH  19  26
ATOM     25  N   UNL     1       0.487   3.134  -0.923  0.00  0.00    +0.000 N 
ATOM     26  C   UNL     1       1.568   2.311  -0.767  0.00  0.00    +0.000 C 
ATOM     27  O   UNL     1       1.764   1.374  -1.529  0.00  0.00    +0.000 OA
ATOM     28  H   UNL     1      -0.087   2.968  -1.740  0.00  0.00    +0.000 HD
ATOM     29  H   UNL     1       0.436   4.048  -0.496  0.00  0.00    +0.000 HD
ENDBRANCH  19  26
ENDBRANCH  17  22
ENDBRANCH  16  17
ENDBRANCH   1  16
TORSDOF 5
