REMARK  Name = 
REMARK  7 active torsions:
REMARK  status: ('A' for Active; 'I' for Inactive)
REMARK    1  A    between atoms: C_1  and  C_2
REMARK    2  A    between atoms: C_2  and  C_3
REMARK    3  A    between atoms: C_7  and  C_8
REMARK    4  A    between atoms: C_8  and  C_9
REMARK    5  A    between atoms: C_9  and  C_10
REMARK    6  A    between atoms: C_10  and  C_11
REMARK    7  A    between atoms: C_15  and  C_16
REMARK                            x       y       z     vdW  Elec       q    Type
REMARK                         _______ _______ _______ _____ _____    ______ ____
ROOT
ATOM      1  C   UNL     1       4.419  -1.385   4.430  0.00  0.00    +0.000 C 
ENDROOT
BRANCH   1   6
ATOM      2  C   UNL     1       2.929   0.438   1.401  0.00  0.00    +0.000 A 
ATOM      3  C   UNL     1       2.694   1.704   1.957  0.00  0.00    +0.000 A 
ATOM      4  C   UNL     1       3.022   1.975   3.285  0.00  0.00    +0.000 A 
ATOM      5  C   UNL     1       3.591   0.988   4.091  0.00  0.00    +0.000 A 
ATOM      6  C   UNL     1       3.851  -0.282   3.567  0.00  0.00    +0.000 A 
ATOM      7  C   UNL     1       3.528  -0.536   2.225  0.00  0.00    +0.000 A 
BRANCH   2   9
ATOM      8  C   UNL     1       3.790  -0.211  -0.860  0.00  0.00    +0.000 C 
ATOM      9  C   UNL     1       2.519   0.090  -0.042  0.00  0.00    +0.000 C 
ATOM     10  C   UNL     1       1.548  -1.115   0.005  0.00  0.00    +0.000 C 
ATOM     11  C   UNL     1       0.893  -1.401  -1.339  0.00  0.00    +0.000 C 
ATOM     12  C   UNL     1       0.255  -0.136  -1.889  0.00  0.00    +0.000 C 
ATOM     13  C   UNL     1       1.247   1.016  -1.896  0.00  0.00    +0.000 C 
ATOM     14  O   UNL     1       1.834   1.223  -0.614  0.00  0.00    +0.000 OA
ENDBRANCH   2   9
ENDBRANCH   1   6
BRANCH   1  15
ATOM     15  C   UNL     1       5.786  -1.871   3.941  0.00  0.00    +0.000 C 
BRANCH  15  16
ATOM     16  C   UNL     1       6.323  -3.023   4.793  0.00  0.00    +0.000 C 
BRANCH  16  17
ATOM     17  C   UNL     1       7.669  -3.483   4.288  0.00  0.00    +0.000 A 
ATOM     18  C   UNL     1       8.833  -2.905   4.762  0.00  0.00    +0.000 A 
ATOM     19  C   UNL     1      10.014  -3.359   4.216  0.00  0.00    +0.000 A 
ATOM     20  N   UNL     1      10.080  -4.309   3.268  0.00  0.00    +0.000 NA
ATOM     21  C   UNL     1       8.886  -4.807   2.867  0.00  0.00    +0.000 A 
ATOM     22  N   UNL     1       7.676  -4.435   3.333  0.00  0.00    +0.000 NA
BRANCH  21  23
ATOM     23  C   UNL     1       8.934  -5.871   1.791  0.00  0.00    +0.000 C 
ATOM     24  N   UNL     1      10.193  -6.219   1.358  0.00  0.00    +0.000 N 
ATOM     25  O   UNL     1       7.942  -6.410   1.312  0.00  0.00    +0.000 OA
ATOM     26  H   UNL     1      11.009  -5.765   1.751  0.00  0.00    +0.000 HD
ATOM     27  H   UNL     1      10.289  -6.920   0.637  0.00  0.00    +0.000 HD
ENDBRANCH  21  23
ENDBRANCH  16  17
ENDBRANCH  15  16
ENDBRANCH   1  15
TORSDOF 6
