REMARK  Name = 
REMARK  7 active torsions:
REMARK  status: ('A' for Active; 'I' for Inactive)
REMARK    1  A    between atoms: C_1  and  O_2
REMARK    2  A    between atoms: O_2  and  C_3
REMARK    3  A    between atoms: C_5  and  C_6
REMARK    4  A    between atoms: C_6  and  C_7
REMARK    5  A    between atoms: C_6  and  N_8
REMARK    6  A    between atoms: N_8  and  C_9
REMARK    7  A    between atoms: C_12  and  C_13
REMARK                            x       y       z     vdW  Elec       q    Type
REMARK                         _______ _______ _______ _____ _____    ______ ____
ROOT
ATOM      1  N   UNL     1       1.835  -3.353  -3.468  0.00  0.00    +0.000 N 
ATOM      2  H   UNL     1       1.750  -2.338  -3.413  0.00  0.00    +0.000 HD
ENDROOT
BRANCH   1   3
ATOM      3  C   UNL     1       1.666  -3.710  -4.827  0.00  0.00    +0.000 A 
ATOM      4  N   UNL     1       2.294  -4.808  -5.305  0.00  0.00    +0.000 NA
ATOM      5  C   UNL     1       2.064  -5.180  -6.592  0.00  0.00    +0.000 A 
ATOM      6  C   UNL     1       1.226  -4.504  -7.462  0.00  0.00    +0.000 A 
ATOM      7  C   UNL     1       0.571  -3.375  -6.965  0.00  0.00    +0.000 A 
ATOM      8  C   UNL     1       0.784  -2.981  -5.644  0.00  0.00    +0.000 A 
ATOM      9 CL   UNL     1       0.002  -1.549  -5.075  0.00  0.00    +0.000 Cl
BRANCH   6  10
ATOM     10  C   UNL     1       0.992  -4.915  -8.867  0.00  0.00    +0.000 C 
ATOM     11  N   UNL     1       1.703  -5.960  -9.387  0.00  0.00    +0.000 N 
ATOM     12  O   UNL     1       0.175  -4.322  -9.566  0.00  0.00    +0.000 OA
ATOM     13  H   UNL     1       2.432  -6.478  -8.924  0.00  0.00    +0.000 HD
ATOM     14  H   UNL     1       1.521  -6.186 -10.358  0.00  0.00    +0.000 HD
ENDBRANCH   6  10
ENDBRANCH   1   3
BRANCH   1  15
ATOM     15  C   UNL     1       3.106  -3.797  -2.868  0.00  0.00    +0.000 C 
ATOM     16  C   UNL     1       3.032  -5.233  -2.341  0.00  0.00    +0.000 C 
BRANCH  15  19
ATOM     17  C   UNL     1       3.297  -1.897   0.393  0.00  0.00    +0.000 A 
ATOM     18  C   UNL     1       2.784  -2.742  -0.567  0.00  0.00    +0.000 A 
ATOM     19  C   UNL     1       3.511  -2.846  -1.740  0.00  0.00    +0.000 A 
ATOM     20  N   UNL     1       4.635  -2.118  -1.946  0.00  0.00    +0.000 NA
ATOM     21  C   UNL     1       5.032  -1.322  -0.944  0.00  0.00    +0.000 A 
ATOM     22  N   UNL     1       4.420  -1.177   0.234  0.00  0.00    +0.000 NA
BRANCH  17  24
ATOM     23  C   UNL     1       3.235  -0.966   2.539  0.00  0.00    +0.000 C 
ATOM     24  O   UNL     1       2.597  -1.808   1.581  0.00  0.00    +0.000 OA
ENDBRANCH  17  24
ENDBRANCH  15  19
ENDBRANCH   1  15
TORSDOF 5
