REMARK  Name = 
REMARK  5 active torsions:
REMARK  status: ('A' for Active; 'I' for Inactive)
REMARK    1  A    between atoms: C_2  and  C_4
REMARK    2  A    between atoms: C_7  and  N_8
REMARK    3  A    between atoms: N_8  and  C_9
REMARK    4  A    between atoms: C_9  and  C_10
REMARK    5  A    between atoms: C_14  and  C_15
REMARK                            x       y       z     vdW  Elec       q    Type
REMARK                         _______ _______ _______ _____ _____    ______ ____
ROOT
ATOM      1  N   UNL     1       3.634  -2.049   6.302  0.00  0.00    +0.000 N 
ATOM      2  H   UNL     1       2.932  -1.484   6.766  0.00  0.00    +0.000 HD
ENDROOT
BRANCH   1   6
ATOM      3  C   UNL     1       1.963  -4.495   3.447  0.00  0.00    +0.000 A 
ATOM      4  C   UNL     1       3.032  -3.668   3.132  0.00  0.00    +0.000 A 
ATOM      5  N   UNL     1       3.601  -2.821   4.036  0.00  0.00    +0.000 NA
ATOM      6  C   UNL     1       3.071  -2.817   5.278  0.00  0.00    +0.000 A 
ATOM      7  C   UNL     1       1.987  -3.660   5.571  0.00  0.00    +0.000 A 
ATOM      8  N   UNL     1       1.400  -4.506   4.682  0.00  0.00    +0.000 NA
BRANCH   3  10
ATOM      9  N   UNL     1       0.323  -6.176   2.788  0.00  0.00    +0.000 N 
ATOM     10  C   UNL     1       1.396  -5.408   2.422  0.00  0.00    +0.000 C 
ATOM     11  O   UNL     1       1.854  -5.463   1.282  0.00  0.00    +0.000 OA
ATOM     12  H   UNL     1      -0.126  -6.731   2.072  0.00  0.00    +0.000 HD
ATOM     13  H   UNL     1      -0.165  -5.991   3.657  0.00  0.00    +0.000 HD
ENDBRANCH   3  10
ENDBRANCH   1   6
BRANCH   1  14
ATOM     14  C   UNL     1       4.821  -1.274   5.960  0.00  0.00    +0.000 C 
BRANCH  14  15
ATOM     15  C   UNL     1       5.666  -1.100   7.208  0.00  0.00    +0.000 A 
ATOM     16  C   UNL     1       5.984   0.180   7.680  0.00  0.00    +0.000 A 
ATOM     17  C   UNL     1       6.751   0.333   8.835  0.00  0.00    +0.000 A 
ATOM     18  C   UNL     1       7.172  -0.781   9.539  0.00  0.00    +0.000 A 
ATOM     19  C   UNL     1       6.844  -2.087   9.125  0.00  0.00    +0.000 A 
ATOM     20  C   UNL     1       6.130  -2.226   7.923  0.00  0.00    +0.000 A 
BRANCH  19  21
ATOM     21  C   UNL     1       7.178  -3.227   9.987  0.00  0.00    +0.000 A 
ATOM     22  C   UNL     1       7.175  -3.118  11.373  0.00  0.00    +0.000 A 
ATOM     23  N   UNL     1       7.491  -4.106  12.235  0.00  0.00    +0.000 NA
ATOM     24  C   UNL     1       7.810  -5.272  11.665  0.00  0.00    +0.000 A 
ATOM     25  N   UNL     1       7.828  -5.529  10.349  0.00  0.00    +0.000 NA
ATOM     26  C   UNL     1       7.508  -4.493   9.540  0.00  0.00    +0.000 A 
ENDBRANCH  19  21
ENDBRANCH  14  15
ENDBRANCH   1  14
TORSDOF 5
