REMARK  Name = 
REMARK  4 active torsions:
REMARK  status: ('A' for Active; 'I' for Inactive)
REMARK    1  A    between atoms: C_2  and  C_4
REMARK    2  A    between atoms: C_7  and  N_8
REMARK    3  A    between atoms: N_8  and  C_9
REMARK    4  A    between atoms: C_9  and  C_10
REMARK                            x       y       z     vdW  Elec       q    Type
REMARK                         _______ _______ _______ _____ _____    ______ ____
ROOT
ATOM      1  C   UNL     1       3.158  -0.788  -0.956  0.00  0.00    +0.000 A 
ATOM      2  C   UNL     1       2.551  -1.841  -1.645  0.00  0.00    +0.000 A 
ATOM      3  C   UNL     1       3.319  -2.675  -2.469  0.00  0.00    +0.000 A 
ATOM      4  C   UNL     1       4.695  -2.476  -2.610  0.00  0.00    +0.000 A 
ATOM      5  C   UNL     1       5.291  -1.425  -1.904  0.00  0.00    +0.000 A 
ATOM      6  C   UNL     1       4.531  -0.573  -1.098  0.00  0.00    +0.000 A 
ENDROOT
BRANCH   1   8
ATOM      7  N   UNL     1       1.254  -0.368   0.506  0.00  0.00    +0.000 N 
ATOM      8  C   UNL     1       2.385   0.130  -0.079  0.00  0.00    +0.000 C 
ATOM      9  O   UNL     1       2.762   1.272   0.151  0.00  0.00    +0.000 OA
ATOM     10  H   UNL     1       0.806   0.232   1.188  0.00  0.00    +0.000 HD
ATOM     11  H   UNL     1       1.061  -1.357   0.551  0.00  0.00    +0.000 HD
ENDBRANCH   1   8
BRANCH   4  12
ATOM     12  N   UNL     1       5.551  -3.341  -3.332  0.00  0.00    +0.000 N 
ATOM     13  H   UNL     1       6.050  -3.918  -2.655  0.00  0.00    +0.000 HD
BRANCH  12  14
ATOM     14  C   UNL     1       5.086  -4.128  -4.511  0.00  0.00    +0.000 C 
ATOM     15  C   UNL     1       5.951  -3.954  -5.757  0.00  0.00    +0.000 C 
ATOM     16  C   UNL     1       4.553  -3.429  -5.748  0.00  0.00    +0.000 C 
BRANCH  14  17
ATOM     17  C   UNL     1       4.541  -5.530  -4.189  0.00  0.00    +0.000 A 
ATOM     18  C   UNL     1       5.389  -6.639  -4.129  0.00  0.00    +0.000 A 
ATOM     19  C   UNL     1       4.884  -7.884  -3.756  0.00  0.00    +0.000 A 
ATOM     20  C   UNL     1       3.539  -8.004  -3.439  0.00  0.00    +0.000 A 
ATOM     21  C   UNL     1       2.751  -6.877  -3.535  0.00  0.00    +0.000 A 
ATOM     22  N   UNL     1       3.215  -5.666  -3.909  0.00  0.00    +0.000 NA
ENDBRANCH  14  17
ENDBRANCH  12  14
ENDBRANCH   4  12
TORSDOF 4
