REMARK  Name = 
REMARK  6 active torsions:
REMARK  status: ('A' for Active; 'I' for Inactive)
REMARK    1  A    between atoms: C_2  and  C_3
REMARK    2  A    between atoms: N_10  and  C_11
REMARK    3  A    between atoms: C_11  and  C_12
REMARK    4  A    between atoms: C_15  and  C_16
REMARK    5  A    between atoms: C_16  and  N_17
REMARK    6  A    between atoms: C_18  and  C_20
REMARK                            x       y       z     vdW  Elec       q    Type
REMARK                         _______ _______ _______ _____ _____    ______ ____
ROOT
ATOM      1  C   UNL     1       0.603  -4.152   0.001  0.00  0.00    +0.000 A 
ATOM      2  C   UNL     1      -0.009  -5.414   0.053  0.00  0.00    +0.000 A 
ATOM      3  C   UNL     1      -1.404  -5.530   0.104  0.00  0.00    +0.000 A 
ATOM      4  C   UNL     1      -2.216  -4.387   0.088  0.00  0.00    +0.000 A 
ATOM      5  C   UNL     1      -1.603  -3.129   0.055  0.00  0.00    +0.000 A 
ATOM      6  C   UNL     1      -0.209  -3.015   0.002  0.00  0.00    +0.000 A 
ENDROOT
BRANCH   1   7
ATOM      7  C   UNL     1       2.103  -4.022  -0.027  0.00  0.00    +0.000 C 
BRANCH   7  15
ATOM      8  C   UNL     1       3.979  -3.237  -3.942  0.00  0.00    +0.000 A 
ATOM      9  C   UNL     1       4.608  -3.640  -5.107  0.00  0.00    +0.000 A 
ATOM     10  C   UNL     1       5.423  -4.750  -4.795  0.00  0.00    +0.000 A 
ATOM     11  C   UNL     1       5.295  -4.971  -3.444  0.00  0.00    +0.000 A 
ATOM     12  N   UNL     1       4.363  -4.087  -2.916  0.00  0.00    +0.000 N 
ATOM     13  C   UNL     1       3.982  -4.078  -1.559  0.00  0.00    +0.000 C 
ATOM     14  O   UNL     1       4.811  -4.353  -0.704  0.00  0.00    +0.000 OA
ATOM     15  N   UNL     1       2.634  -3.876  -1.367  0.00  0.00    +0.000 N 
ATOM     16  H   UNL     1       1.979  -3.887  -2.139  0.00  0.00    +0.000 HD
BRANCH   8  18
ATOM     17  N   UNL     1       2.510  -1.134  -3.654  0.00  0.00    +0.000 NA
ATOM     18  C   UNL     1       3.169  -2.080  -3.785  0.00  0.00    +0.000 C 
ENDBRANCH   8  18
ENDBRANCH   7  15
ENDBRANCH   1   7
BRANCH   4  19
ATOM     19  C   UNL     1      -3.720  -4.500   0.124  0.00  0.00    +0.000 C 
BRANCH  19  20
ATOM     20  N   UNL     1      -4.233  -4.410   1.465  0.00  0.00    +0.000 N 
ATOM     21  C   UNL     1      -5.589  -4.371   1.703  0.00  0.00    +0.000 C 
ATOM     22  O   UNL     1      -6.400  -4.257   0.787  0.00  0.00    +0.000 OA
ATOM     23  H   UNL     1      -3.605  -4.677   2.218  0.00  0.00    +0.000 HD
BRANCH  21  24
ATOM     24  C   UNL     1      -6.021  -4.468   3.098  0.00  0.00    +0.000 A 
ATOM     25  C   UNL     1      -7.248  -3.942   3.482  0.00  0.00    +0.000 A 
ATOM     26  S   UNL     1      -7.628  -4.222   5.122  0.00  0.00    +0.000 S 
ATOM     27  C   UNL     1      -6.205  -5.127   5.351  0.00  0.00    +0.000 A 
ATOM     28  N   UNL     1      -5.965  -5.769   6.525  0.00  0.00    +0.000 NA
ATOM     29  C   UNL     1      -4.859  -6.433   6.552  0.00  0.00    +0.000 A 
ATOM     30  N   UNL     1      -3.950  -6.479   5.526  0.00  0.00    +0.000 N 
ATOM     31  C   UNL     1      -4.128  -5.807   4.339  0.00  0.00    +0.000 A 
ATOM     32  O   UNL     1      -3.251  -5.785   3.481  0.00  0.00    +0.000 OA
ATOM     33  C   UNL     1      -5.397  -5.116   4.227  0.00  0.00    +0.000 A 
ATOM     34  H   UNL     1      -3.074  -6.970   5.632  0.00  0.00    +0.000 HD
ENDBRANCH  21  24
ENDBRANCH  19  20
ENDBRANCH   4  19
TORSDOF 6
