REMARK  Name = 
REMARK  6 active torsions:
REMARK  status: ('A' for Active; 'I' for Inactive)
REMARK    1  A    between atoms: C_2  and  C_25
REMARK    2  A    between atoms: N_3  and  C_4
REMARK    3  A    between atoms: C_4  and  C_5
REMARK    4  A    between atoms: C_8  and  C_9
REMARK    5  A    between atoms: C_9  and  N_10
REMARK    6  A    between atoms: C_11  and  C_13
REMARK                            x       y       z     vdW  Elec       q    Type
REMARK                         _______ _______ _______ _____ _____    ______ ____
ROOT
ATOM      1  C   UNL     1       3.257   3.577   0.996  0.00  0.00    +0.000 A 
ATOM      2  C   UNL     1       2.819   4.891   0.821  0.00  0.00    +0.000 A 
ATOM      3  C   UNL     1       3.667   5.952   1.131  0.00  0.00    +0.000 A 
ATOM      4  C   UNL     1       4.931   5.676   1.645  0.00  0.00    +0.000 A 
ATOM      5  N   UNL     1       5.373   4.407   1.839  0.00  0.00    +0.000 NA
ATOM      6  C   UNL     1       4.537   3.397   1.508  0.00  0.00    +0.000 A 
ENDROOT
BRANCH   1   7
ATOM      7  C   UNL     1       2.385   2.404   0.669  0.00  0.00    +0.000 C 
BRANCH   7  10
ATOM      8  O   UNL     1       0.511   0.333   0.656  0.00  0.00    +0.000 OA
ATOM      9  C   UNL     1       0.692   0.959   1.691  0.00  0.00    +0.000 C 
ATOM     10  N   UNL     1       1.590   1.998   1.806  0.00  0.00    +0.000 N 
ATOM     11  H   UNL     1       1.869   2.326   2.722  0.00  0.00    +0.000 HD
BRANCH   9  12
ATOM     12  C   UNL     1      -0.051   0.599   2.919  0.00  0.00    +0.000 A 
ATOM     13  C   UNL     1      -0.483  -0.712   3.088  0.00  0.00    +0.000 A 
ATOM     14  N   UNL     1      -1.165  -1.146   4.179  0.00  0.00    +0.000 NA
ATOM     15  C   UNL     1      -1.441  -0.222   5.130  0.00  0.00    +0.000 A 
ATOM     16  C   UNL     1      -1.070   1.111   5.034  0.00  0.00    +0.000 A 
ATOM     17 BR   UNL     1      -1.513   2.338   6.396  0.00  0.00    +0.000 Br
ATOM     18  C   UNL     1      -0.365   1.533   3.910  0.00  0.00    +0.000 A 
ENDBRANCH   9  12
ENDBRANCH   7  10
ENDBRANCH   1   7
BRANCH   4  19
ATOM     19  C   UNL     1       5.878   6.800   1.988  0.00  0.00    +0.000 C 
BRANCH  19  20
ATOM     20  N   UNL     1       6.722   7.172   0.874  0.00  0.00    +0.000 N 
ATOM     21  C   UNL     1       6.461   8.256   0.080  0.00  0.00    +0.000 C 
ATOM     22  O   UNL     1       5.473   8.965   0.254  0.00  0.00    +0.000 OA
ATOM     23  H   UNL     1       7.406   6.480   0.584  0.00  0.00    +0.000 HD
BRANCH  21  24
ATOM     24  C   UNL     1       7.461   8.577  -0.949  0.00  0.00    +0.000 A 
ATOM     25  C   UNL     1       7.531   9.869  -1.454  0.00  0.00    +0.000 A 
ATOM     26  S   UNL     1       8.769  10.090  -2.606  0.00  0.00    +0.000 S 
ATOM     27  C   UNL     1       9.228   8.455  -2.505  0.00  0.00    +0.000 A 
ATOM     28  N   UNL     1      10.237   7.965  -3.274  0.00  0.00    +0.000 NA
ATOM     29  C   UNL     1      10.458   6.702  -3.123  0.00  0.00    +0.000 A 
ATOM     30  N   UNL     1       9.768   5.887  -2.264  0.00  0.00    +0.000 N 
ATOM     31  C   UNL     1       8.779   6.349  -1.428  0.00  0.00    +0.000 A 
ATOM     32  O   UNL     1       8.243   5.613  -0.608  0.00  0.00    +0.000 OA
ATOM     33  C   UNL     1       8.465   7.757  -1.585  0.00  0.00    +0.000 A 
ATOM     34  H   UNL     1      10.002   4.909  -2.176  0.00  0.00    +0.000 HD
ENDBRANCH  21  24
ENDBRANCH  19  20
ENDBRANCH   4  19
TORSDOF 6
