REMARK  Name = 
REMARK  6 active torsions:
REMARK  status: ('A' for Active; 'I' for Inactive)
REMARK    1  A    between atoms: C_2  and  C_3
REMARK    2  A    between atoms: C_6  and  C_7
REMARK    3  A    between atoms: C_7  and  C_8
REMARK    4  A    between atoms: C_11  and  C_12
REMARK    5  A    between atoms: C_12  and  N_13
REMARK    6  A    between atoms: C_14  and  C_16
REMARK                            x       y       z     vdW  Elec       q    Type
REMARK                         _______ _______ _______ _____ _____    ______ ____
ROOT
ATOM      1  C   UNL     1      -5.625   5.554  -0.253  0.00  0.00    +0.000 C 
ENDROOT
BRANCH   1   5
ATOM      2  C   UNL     1      -4.242   1.521  -0.191  0.00  0.00    +0.000 A 
ATOM      3  C   UNL     1      -3.906   2.343  -1.268  0.00  0.00    +0.000 A 
ATOM      4  C   UNL     1      -4.351   3.660  -1.297  0.00  0.00    +0.000 A 
ATOM      5  C   UNL     1      -5.158   4.121  -0.262  0.00  0.00    +0.000 A 
ATOM      6  N   UNL     1      -5.519   3.335   0.785  0.00  0.00    +0.000 NA
ATOM      7  C   UNL     1      -5.048   2.066   0.803  0.00  0.00    +0.000 A 
BRANCH   2   8
ATOM      8  C   UNL     1      -3.704   0.122  -0.080  0.00  0.00    +0.000 C 
BRANCH   8  12
ATOM      9  C   UNL     1      -0.097  -0.241   2.173  0.00  0.00    +0.000 A 
ATOM     10  C   UNL     1      -0.010   0.030   0.810  0.00  0.00    +0.000 A 
ATOM     11  C   UNL     1      -1.180   0.181   0.065  0.00  0.00    +0.000 A 
ATOM     12  C   UNL     1      -2.413   0.033   0.703  0.00  0.00    +0.000 A 
ATOM     13  N   UNL     1      -2.512  -0.210   2.034  0.00  0.00    +0.000 NA
ATOM     14  C   UNL     1      -1.359  -0.335   2.737  0.00  0.00    +0.000 A 
BRANCH   9  16
ATOM     15  N   UNL     1       2.020  -0.602   3.619  0.00  0.00    +0.000 NA
ATOM     16  C   UNL     1       1.071  -0.434   2.972  0.00  0.00    +0.000 C 
ENDBRANCH   9  16
ENDBRANCH   8  12
ENDBRANCH   2   8
ENDBRANCH   1   5
BRANCH   1  17
ATOM     17  N   UNL     1      -4.717   6.422   0.458  0.00  0.00    +0.000 N 
ATOM     18  C   UNL     1      -3.752   7.177  -0.155  0.00  0.00    +0.000 C 
ATOM     19  O   UNL     1      -3.583   7.172  -1.370  0.00  0.00    +0.000 OA
ATOM     20  H   UNL     1      -4.643   6.229   1.452  0.00  0.00    +0.000 HD
BRANCH  18  21
ATOM     21  C   UNL     1      -2.986   8.064   0.733  0.00  0.00    +0.000 A 
ATOM     22  C   UNL     1      -2.392   9.213   0.227  0.00  0.00    +0.000 A 
ATOM     23  S   UNL     1      -1.626  10.167   1.418  0.00  0.00    +0.000 S 
ATOM     24  C   UNL     1      -2.016   9.051   2.644  0.00  0.00    +0.000 A 
ATOM     25  N   UNL     1      -1.639   9.264   3.934  0.00  0.00    +0.000 NA
ATOM     26  C   UNL     1      -1.978   8.322   4.752  0.00  0.00    +0.000 A 
ATOM     27  N   UNL     1      -2.660   7.190   4.397  0.00  0.00    +0.000 N 
ATOM     28  C   UNL     1      -3.095   6.953   3.117  0.00  0.00    +0.000 A 
ATOM     29  O   UNL     1      -3.761   5.961   2.848  0.00  0.00    +0.000 OA
ATOM     30  C   UNL     1      -2.728   7.973   2.152  0.00  0.00    +0.000 A 
ATOM     31  H   UNL     1      -2.907   6.491   5.082  0.00  0.00    +0.000 HD
ENDBRANCH  18  21
ENDBRANCH   1  17
TORSDOF 6
