REMARK  Name = 
REMARK  9 active torsions:
REMARK  status: ('A' for Active; 'I' for Inactive)
REMARK    1  A    between atoms: C_1  and  O_2
REMARK    2  A    between atoms: O_2  and  C_3
REMARK    3  A    between atoms: C_10  and  C_11
REMARK    4  A    between atoms: N_13  and  C_14
REMARK    5  A    between atoms: C_14  and  C_15
REMARK    6  A    between atoms: C_18  and  C_19
REMARK    7  A    between atoms: C_19  and  C_20
REMARK    8  A    between atoms: C_20  and  C_21
REMARK    9  A    between atoms: C_21  and  C_22
REMARK                            x       y       z     vdW  Elec       q    Type
REMARK                         _______ _______ _______ _____ _____    ______ ____
ROOT
ATOM      1  C   UNL     1       2.997  -2.460  -2.420  0.00  0.00    +0.000 C 
ENDROOT
BRANCH   1   2
ATOM      2  C   UNL     1       1.870  -3.062  -1.621  0.00  0.00    +0.000 A 
ATOM      3  C   UNL     1       1.866  -4.424  -1.297  0.00  0.00    +0.000 A 
ATOM      4  C   UNL     1       0.868  -4.956  -0.473  0.00  0.00    +0.000 A 
ATOM      5  C   UNL     1      -0.140  -4.134   0.046  0.00  0.00    +0.000 A 
ATOM      6  C   UNL     1      -0.176  -2.789  -0.342  0.00  0.00    +0.000 A 
ATOM      7  C   UNL     1       0.813  -2.260  -1.175  0.00  0.00    +0.000 A 
BRANCH   5   8
ATOM      8  C   UNL     1      -1.167  -4.666   1.018  0.00  0.00    +0.000 C 
BRANCH   8   9
ATOM      9  C   UNL     1      -0.580  -5.259   2.307  0.00  0.00    +0.000 C 
BRANCH   9  10
ATOM     10  C   UNL     1       0.241  -4.257   3.129  0.00  0.00    +0.000 C 
BRANCH  10  11
ATOM     11  C   UNL     1       0.827  -4.909   4.358  0.00  0.00    +0.000 A 
ATOM     12  C   UNL     1       2.066  -5.554   4.294  0.00  0.00    +0.000 A 
ATOM     13  C   UNL     1       2.560  -6.166   5.435  0.00  0.00    +0.000 A 
ATOM     14  N   UNL     1       1.912  -6.184   6.618  0.00  0.00    +0.000 NA
ATOM     15  C   UNL     1       0.716  -5.559   6.660  0.00  0.00    +0.000 A 
ATOM     16  C   UNL     1       0.138  -4.918   5.574  0.00  0.00    +0.000 A 
ENDBRANCH  10  11
ENDBRANCH   9  10
ENDBRANCH   8   9
ENDBRANCH   5   8
ENDBRANCH   1   2
BRANCH   1  19
ATOM     17  C   UNL     1       3.668  -2.035  -4.732  0.00  0.00    +0.000 C 
ATOM     18  O   UNL     1       4.730  -1.539  -4.351  0.00  0.00    +0.000 OA
ATOM     19  N   UNL     1       2.750  -2.509  -3.838  0.00  0.00    +0.000 N 
ATOM     20  H   UNL     1       1.868  -2.892  -4.155  0.00  0.00    +0.000 HD
BRANCH  17  28
ATOM     21  C   UNL     1       0.996  -3.321  -6.491  0.00  0.00    +0.000 A 
ATOM     22  N   UNL     1       0.131  -3.787  -7.414  0.00  0.00    +0.000 NA
ATOM     23  C   UNL     1       0.434  -3.621  -8.703  0.00  0.00    +0.000 A 
ATOM     24  N   UNL     1       1.518  -3.030  -9.198  0.00  0.00    +0.000 NA
ATOM     25  C   UNL     1       2.363  -2.599  -8.247  0.00  0.00    +0.000 A 
ATOM     26  S   UNL     1       3.798  -1.813  -8.700  0.00  0.00    +0.000 S 
ATOM     27  C   UNL     1       4.259  -1.617  -7.080  0.00  0.00    +0.000 A 
ATOM     28  C   UNL     1       3.349  -2.135  -6.165  0.00  0.00    +0.000 A 
ATOM     29  C   UNL     1       2.203  -2.709  -6.869  0.00  0.00    +0.000 A 
BRANCH  21  31
ATOM     30  C   UNL     1      -0.753  -3.521  -4.964  0.00  0.00    +0.000 C 
ATOM     31  O   UNL     1       0.660  -3.470  -5.161  0.00  0.00    +0.000 OA
ENDBRANCH  21  31
ENDBRANCH  17  28
ENDBRANCH   1  19
TORSDOF 8
