REMARK  Name = 
REMARK  11 active torsions:
REMARK  status: ('A' for Active; 'I' for Inactive)
REMARK    1  A    between atoms: C_1  and  C_2
REMARK    2  A    between atoms: C_2  and  N_3
REMARK    3  A    between atoms: N_3  and  C_4
REMARK    4  A    between atoms: N_3  and  C_28
REMARK    5  A    between atoms: C_4  and  C_5
REMARK    6  A    between atoms: C_5  and  N_6
REMARK    7  A    between atoms: N_6  and  C_7
REMARK    8  A    between atoms: C_7  and  C_8
REMARK    9  A    between atoms: C_11  and  C_12
REMARK   10  A    between atoms: C_12  and  N_13
REMARK   11  A    between atoms: C_14  and  C_16
REMARK                            x       y       z     vdW  Elec       q    Type
REMARK                         _______ _______ _______ _____ _____    ______ ____
ROOT
ATOM      1  C   UNL     1      -2.769   2.593   2.862  0.00  0.00    +0.000 A 
ATOM      2  C   UNL     1      -3.747   1.872   3.551  0.00  0.00    +0.000 A 
ATOM      3  C   UNL     1      -4.607   2.541   4.415  0.00  0.00    +0.000 A 
ATOM      4  C   UNL     1      -4.463   3.917   4.568  0.00  0.00    +0.000 A 
ATOM      5  N   UNL     1      -3.580   4.649   3.843  0.00  0.00    +0.000 NA
ATOM      6  C   UNL     1      -2.755   3.974   3.013  0.00  0.00    +0.000 A 
ENDROOT
BRANCH   1   7
ATOM      7  C   UNL     1      -1.653   1.903   2.127  0.00  0.00    +0.000 C 
BRANCH   7   8
ATOM      8  N   UNL     1      -0.346   2.155   2.760  0.00  0.00    +0.000 NA
ATOM      9  H   UNL     1       0.370   1.666   2.223  0.00  0.00    +0.000 HD
BRANCH   8  10
ATOM     10  C   UNL     1      -0.319   1.656   4.153  0.00  0.00    +0.000 C 
BRANCH  10  11
ATOM     11  C   UNL     1       1.005   1.961   4.886  0.00  0.00    +0.000 C 
BRANCH  11  12
ATOM     12  N   UNL     1       1.052   1.371   6.247  0.00  0.00    +0.000 N 
BRANCH  12  13
ATOM     13  C   UNL     1       0.979  -0.038   6.291  0.00  0.00    +0.000 A 
ATOM     14  C   UNL     1       0.055  -0.733   7.093  0.00  0.00    +0.000 A 
ATOM     15  C   UNL     1       0.002  -2.130   7.114  0.00  0.00    +0.000 A 
ATOM     16  C   UNL     1       0.880  -2.872   6.334  0.00  0.00    +0.000 A 
ATOM     17  C   UNL     1       1.807  -2.215   5.536  0.00  0.00    +0.000 A 
ATOM     18  C   UNL     1       1.854  -0.817   5.517  0.00  0.00    +0.000 A 
ENDBRANCH  12  13
BRANCH  12  20
ATOM     19  C   UNL     1       0.738   3.578   7.426  0.00  0.00    +0.000 C 
ATOM     20  C   UNL     1       0.432   2.091   7.374  0.00  0.00    +0.000 C 
ENDBRANCH  12  20
ENDBRANCH  11  12
ENDBRANCH  10  11
ENDBRANCH   8  10
ENDBRANCH   7   8
ENDBRANCH   1   7
BRANCH   4  21
ATOM     21  C   UNL     1      -5.291   4.662   5.582  0.00  0.00    +0.000 C 
BRANCH  21  22
ATOM     22  N   UNL     1      -6.516   5.159   5.011  0.00  0.00    +0.000 N 
ATOM     23  C   UNL     1      -7.703   4.495   5.153  0.00  0.00    +0.000 C 
ATOM     24  O   UNL     1      -7.794   3.453   5.798  0.00  0.00    +0.000 OA
ATOM     25  H   UNL     1      -6.407   5.856   4.278  0.00  0.00    +0.000 HD
BRANCH  23  26
ATOM     26  C   UNL     1      -8.881   5.132   4.559  0.00  0.00    +0.000 A 
ATOM     27  C   UNL     1     -10.143   4.824   5.052  0.00  0.00    +0.000 A 
ATOM     28  S   UNL     1     -11.402   5.687   4.295  0.00  0.00    +0.000 S 
ATOM     29  C   UNL     1     -10.310   6.470   3.252  0.00  0.00    +0.000 A 
ATOM     30  N   UNL     1     -10.753   7.351   2.313  0.00  0.00    +0.000 NA
ATOM     31  C   UNL     1      -9.821   7.851   1.571  0.00  0.00    +0.000 A 
ATOM     32  N   UNL     1      -8.489   7.554   1.683  0.00  0.00    +0.000 N 
ATOM     33  C   UNL     1      -7.993   6.704   2.643  0.00  0.00    +0.000 A 
ATOM     34  O   UNL     1      -6.787   6.518   2.764  0.00  0.00    +0.000 OA
ATOM     35  C   UNL     1      -8.997   6.095   3.487  0.00  0.00    +0.000 A 
ATOM     36  H   UNL     1      -7.807   7.989   1.081  0.00  0.00    +0.000 HD
ENDBRANCH  23  26
ENDBRANCH  21  22
ENDBRANCH   4  21
TORSDOF 10
