REMARK  Name = 
REMARK  8 active torsions:
REMARK  status: ('A' for Active; 'I' for Inactive)
REMARK    1  A    between atoms: C_2  and  C_4
REMARK    2  A    between atoms: N_8  and  C_9
REMARK    3  A    between atoms: C_9  and  C_10
REMARK    4  A    between atoms: C_10  and  C_11
REMARK    5  A    between atoms: C_10  and  C_13
REMARK    6  A    between atoms: C_11  and  O_12
REMARK    7  A    between atoms: C_17  and  O_18
REMARK    8  A    between atoms: O_18  and  C_19
REMARK                            x       y       z     vdW  Elec       q    Type
REMARK                         _______ _______ _______ _____ _____    ______ ____
ROOT
ATOM      1  C   UNL     1       6.515  -4.894   4.696  0.00  0.00    +0.000 C 
ENDROOT
BRANCH   1   2
ATOM      2  C   UNL     1       6.347  -6.383   4.978  0.00  0.00    +0.000 A 
ATOM      3  C   UNL     1       6.916  -7.323   4.105  0.00  0.00    +0.000 A 
ATOM      4  C   UNL     1       6.774  -8.693   4.343  0.00  0.00    +0.000 A 
ATOM      5  C   UNL     1       6.059  -9.149   5.453  0.00  0.00    +0.000 A 
ATOM      6  C   UNL     1       5.474  -8.227   6.316  0.00  0.00    +0.000 A 
ATOM      7  C   UNL     1       5.615  -6.858   6.076  0.00  0.00    +0.000 A 
BRANCH   6   8
ATOM      8  O   UNL     1       4.773  -8.543   7.451  0.00  0.00    +0.000 OA
BRANCH   8   9
ATOM      9  C   UNL     1       4.169  -9.849   7.565  0.00  0.00    +0.000 C 
ATOM     10  C   UNL     1       2.971 -10.172   6.663  0.00  0.00    +0.000 C 
ATOM     11  O   UNL     1       2.119 -10.446   7.799  0.00  0.00    +0.000 OA
ATOM     12  C   UNL     1       3.150  -9.989   8.704  0.00  0.00    +0.000 C 
ENDBRANCH   8   9
ENDBRANCH   6   8
ENDBRANCH   1   2
BRANCH   1  13
ATOM     13  C   UNL     1       5.349  -4.379   3.816  0.00  0.00    +0.000 C 
BRANCH  13  18
ATOM     14  C   UNL     1       3.139  -0.812   0.884  0.00  0.00    +0.000 A 
ATOM     15  C   UNL     1       3.100  -2.198   0.760  0.00  0.00    +0.000 A 
ATOM     16  C   UNL     1       3.920  -2.980   1.579  0.00  0.00    +0.000 A 
ATOM     17  C   UNL     1       4.744  -2.367   2.516  0.00  0.00    +0.000 A 
ATOM     18  N   UNL     1       5.651  -3.052   3.298  0.00  0.00    +0.000 N 
ATOM     19  N   UNL     1       4.778  -1.027   2.651  0.00  0.00    +0.000 NA
ATOM     20  C   UNL     1       3.995  -0.278   1.833  0.00  0.00    +0.000 A 
ATOM     21  H   UNL     1       5.987  -2.392   4.008  0.00  0.00    +0.000 HD
BRANCH  14  23
ATOM     22  N   UNL     1       1.199  -0.381  -0.516  0.00  0.00    +0.000 N 
ATOM     23  C   UNL     1       2.357   0.102   0.026  0.00  0.00    +0.000 C 
ATOM     24  O   UNL     1       2.716   1.254  -0.177  0.00  0.00    +0.000 OA
ATOM     25  H   UNL     1       0.632   0.284  -1.028  0.00  0.00    +0.000 HD
ATOM     26  H   UNL     1       0.749  -1.222  -0.186  0.00  0.00    +0.000 HD
ENDBRANCH  14  23
ENDBRANCH  13  18
ENDBRANCH   1  13
BRANCH   1  27
ATOM     27  C   UNL     1       6.680  -4.055   5.982  0.00  0.00    +0.000 C 
BRANCH  27  28
ATOM     28  O   UNL     1       7.048  -2.708   5.697  0.00  0.00    +0.000 OA
ATOM     29  H   UNL     1       7.918  -2.728   5.260  0.00  0.00    +0.000 HD
ENDBRANCH  27  28
ENDBRANCH   1  27
TORSDOF 8
