REMARK  Name = 
REMARK  3 active torsions:
REMARK  status: ('A' for Active; 'I' for Inactive)
REMARK    1  A    between atoms: C_2  and  C_4
REMARK    2  A    between atoms: N_8  and  C_9
REMARK    3  A    between atoms: C_9  and  C_10
REMARK                            x       y       z     vdW  Elec       q    Type
REMARK                         _______ _______ _______ _____ _____    ______ ____
ROOT
ATOM      1  C   UNL     1       7.159   0.705   3.816  0.00  0.00    +0.000 A 
ATOM      2  C   UNL     1       6.426   0.236   4.876  0.00  0.00    +0.000 A 
ATOM      3  N   UNL     1       6.803  -0.800   5.645  0.00  0.00    +0.000 NA
ATOM      4  C   UNL     1       7.954  -1.406   5.337  0.00  0.00    +0.000 A 
ATOM      5  N   UNL     1       8.352  -2.455   6.134  0.00  0.00    +0.000 N 
ATOM      6  N   UNL     1       8.730  -1.049   4.301  0.00  0.00    +0.000 NA
ATOM      7  C   UNL     1       8.312   0.000   3.544  0.00  0.00    +0.000 A 
ATOM      8  H   UNL     1       9.239  -2.867   5.875  0.00  0.00    +0.000 HD
ENDROOT
BRANCH   1  10
ATOM      9  N   UNL     1       6.022   2.827   3.669  0.00  0.00    +0.000 N 
ATOM     10  C   UNL     1       6.747   1.867   3.028  0.00  0.00    +0.000 C 
ATOM     11  O   UNL     1       7.073   1.980   1.846  0.00  0.00    +0.000 OA
ATOM     12  H   UNL     1       5.825   3.680   3.152  0.00  0.00    +0.000 HD
ATOM     13  H   UNL     1       5.943   2.876   4.678  0.00  0.00    +0.000 HD
ENDBRANCH   1  10
BRANCH   5  14
ATOM     14  C   UNL     1       7.317  -3.282   6.729  0.00  0.00    +0.000 C 
BRANCH  14  15
ATOM     15  C   UNL     1       6.346  -3.952   5.727  0.00  0.00    +0.000 C 
ATOM     16  C   UNL     1       7.081  -4.881   4.753  0.00  0.00    +0.000 C 
ATOM     17  C   UNL     1       6.097  -5.661   3.886  0.00  0.00    +0.000 C 
ATOM     18  C   UNL     1       5.041  -6.340   4.748  0.00  0.00    +0.000 C 
ATOM     19  C   UNL     1       4.392  -5.328   5.678  0.00  0.00    +0.000 C 
ATOM     20  O   UNL     1       5.381  -4.698   6.492  0.00  0.00    +0.000 OA
ENDBRANCH  14  15
ENDBRANCH   5  14
TORSDOF 3
