REMARK  Name = 
REMARK  6 active torsions:
REMARK  status: ('A' for Active; 'I' for Inactive)
REMARK    1  A    between atoms: C_1  and  O_2
REMARK    2  A    between atoms: O_2  and  C_3
REMARK    3  A    between atoms: C_5  and  N_6
REMARK    4  A    between atoms: N_14  and  C_15
REMARK    5  A    between atoms: C_15  and  C_16
REMARK    6  A    between atoms: C_19  and  C_20
REMARK                            x       y       z     vdW  Elec       q    Type
REMARK                         _______ _______ _______ _____ _____    ______ ____
ROOT
ATOM      1  C   UNL     1       3.141  -0.295  -1.303  0.00  0.00    +0.000 A 
ATOM      2  C   UNL     1       2.710   0.311  -2.453  0.00  0.00    +0.000 A 
ATOM      3  C   UNL     1       3.399   0.016  -3.611  0.00  0.00    +0.000 A 
ATOM      4  N   UNL     1       4.475  -0.796  -3.558  0.00  0.00    +0.000 NA
ATOM      5  C   UNL     1       4.810  -1.367  -2.394  0.00  0.00    +0.000 A 
ATOM      6  N   UNL     1       5.933  -2.182  -2.386  0.00  0.00    +0.000 N 
ATOM      7  N   UNL     1       4.167  -1.154  -1.254  0.00  0.00    +0.000 NA
ATOM      8  H   UNL     1       6.729  -1.551  -2.381  0.00  0.00    +0.000 HD
ENDROOT
BRANCH   3   9
ATOM      9  N   UNL     1       3.038   0.562  -4.825  0.00  0.00    +0.000 N 
ATOM     10  C   UNL     1       1.668   0.971  -5.148  0.00  0.00    +0.000 C 
ATOM     11  C   UNL     1       1.173   0.272  -6.437  0.00  0.00    +0.000 C 
ATOM     12  N   UNL     1       2.083   0.431  -7.588  0.00  0.00    +0.000 NA
ATOM     13  C   UNL     1       3.423  -0.067  -7.201  0.00  0.00    +0.000 C 
ATOM     14  C   UNL     1       3.999   0.602  -5.933  0.00  0.00    +0.000 C 
ATOM     15  H   UNL     1       2.163   1.426  -7.794  0.00  0.00    +0.000 HD
ENDBRANCH   3   9
BRANCH   1  17
ATOM     16  C   UNL     1       3.038  -0.662   0.991  0.00  0.00    +0.000 C 
ATOM     17  O   UNL     1       2.498   0.035  -0.126  0.00  0.00    +0.000 OA
ENDBRANCH   1  17
BRANCH   6  18
ATOM     18  C   UNL     1       5.999  -3.107  -1.255  0.00  0.00    +0.000 C 
BRANCH  18  19
ATOM     19  C   UNL     1       6.923  -4.259  -1.611  0.00  0.00    +0.000 A 
ATOM     20  C   UNL     1       6.643  -5.022  -2.747  0.00  0.00    +0.000 A 
ATOM     21  C   UNL     1       7.482  -6.079  -3.082  0.00  0.00    +0.000 A 
ATOM     22  C   UNL     1       8.582  -6.359  -2.277  0.00  0.00    +0.000 A 
ATOM     23  C   UNL     1       8.788  -5.563  -1.156  0.00  0.00    +0.000 A 
ATOM     24  N   UNL     1       7.989  -4.515  -0.812  0.00  0.00    +0.000 NA
BRANCH  22  25
ATOM     25  C   UNL     1       9.496  -7.487  -2.556  0.00  0.00    +0.000 C 
ATOM     26  N   UNL     1       9.607  -7.898  -3.865  0.00  0.00    +0.000 N 
ATOM     27  O   UNL     1      10.137  -8.019  -1.666  0.00  0.00    +0.000 OA
ATOM     28  H   UNL     1       9.224  -7.388  -4.647  0.00  0.00    +0.000 HD
ATOM     29  H   UNL     1      10.265  -8.639  -4.056  0.00  0.00    +0.000 HD
ENDBRANCH  22  25
ENDBRANCH  18  19
ENDBRANCH   6  18
TORSDOF 5
