REMARK  Name = 
REMARK  5 active torsions:
REMARK  status: ('A' for Active; 'I' for Inactive)
REMARK    1  A    between atoms: N_1  and  C_2
REMARK    2  A    between atoms: C_2  and  C_3
REMARK    3  A    between atoms: N_6  and  C_7
REMARK    4  A    between atoms: C_7  and  C_8
REMARK    5  A    between atoms: C_15  and  C_16
REMARK                            x       y       z     vdW  Elec       q    Type
REMARK                         _______ _______ _______ _____ _____    ______ ____
ROOT
ATOM      1  C   UNL     1      -1.357  -1.008  -4.183  0.00  0.00    +0.000 A 
ATOM      2  N   UNL     1      -2.160  -1.881  -3.549  0.00  0.00    +0.000 NA
ATOM      3  N   UNL     1      -2.548  -2.728  -4.512  0.00  0.00    +0.000 N 
ATOM      4  C   UNL     1      -2.054  -2.432  -5.751  0.00  0.00    +0.000 A 
ATOM      5  C   UNL     1      -2.267  -3.025  -6.996  0.00  0.00    +0.000 A 
ATOM      6  C   UNL     1      -1.623  -2.447  -8.092  0.00  0.00    +0.000 A 
ATOM      7  F   UNL     1      -1.856  -2.995  -9.297  0.00  0.00    +0.000 F 
ATOM      8  C   UNL     1      -0.778  -1.342  -7.956  0.00  0.00    +0.000 A 
ATOM      9  C   UNL     1      -0.560  -0.783  -6.681  0.00  0.00    +0.000 A 
ATOM     10  C   UNL     1      -1.233  -1.323  -5.567  0.00  0.00    +0.000 A 
ATOM     11  H   UNL     1      -3.183  -3.478  -4.261  0.00  0.00    +0.000 HD
ENDROOT
BRANCH   8  12
ATOM     12  C   UNL     1      -0.113  -0.695  -9.120  0.00  0.00    +0.000 C 
ATOM     13  N   UNL     1      -0.413  -1.152 -10.371  0.00  0.00    +0.000 N 
ATOM     14  O   UNL     1       0.665   0.239  -8.975  0.00  0.00    +0.000 OA
ATOM     15  H   UNL     1      -1.058  -1.914 -10.546  0.00  0.00    +0.000 HD
ATOM     16  H   UNL     1       0.012  -0.685 -11.161  0.00  0.00    +0.000 HD
ENDBRANCH   8  12
BRANCH   1  17
ATOM     17  C   UNL     1      -0.810   0.174  -3.430  0.00  0.00    +0.000 C 
BRANCH  17  21
ATOM     18  C   UNL     1       3.022   0.221  -1.445  0.00  0.00    +0.000 C 
ATOM     19  C   UNL     1       2.528   1.471  -2.185  0.00  0.00    +0.000 C 
ATOM     20  C   UNL     1       1.038   1.394  -2.529  0.00  0.00    +0.000 C 
ATOM     21  N   UNL     1       0.667   0.179  -3.281  0.00  0.00    +0.000 NA
ATOM     22  C   UNL     1       1.136  -1.044  -2.605  0.00  0.00    +0.000 C 
ATOM     23  C   UNL     1       2.633  -1.004  -2.281  0.00  0.00    +0.000 C 
BRANCH  18  24
ATOM     24  C   UNL     1       2.485   0.178   0.000  0.00  0.00    +0.000 C 
BRANCH  24  25
ATOM     25  N   UNL     1       2.967  -0.989   0.732  0.00  0.00    +0.000 NA
ATOM     26  H   UNL     1       2.520  -1.025   1.648  0.00  0.00    +0.000 HD
ATOM     27  H   UNL     1       3.967  -0.894   0.907  0.00  0.00    +0.000 HD
ENDBRANCH  24  25
ENDBRANCH  18  24
ENDBRANCH  17  21
ENDBRANCH   1  17
TORSDOF 5
