REMARK  Name = 
REMARK  5 active torsions:
REMARK  status: ('A' for Active; 'I' for Inactive)
REMARK    1  A    between atoms: C_1  and  O_2
REMARK    2  A    between atoms: O_2  and  C_3
REMARK    3  A    between atoms: C_5  and  C_6
REMARK    4  A    between atoms: C_6  and  N_7
REMARK    5  A    between atoms: C_11  and  C_12
REMARK                            x       y       z     vdW  Elec       q    Type
REMARK                         _______ _______ _______ _____ _____    ______ ____
ROOT
ATOM      1  C   UNL     1       2.817   4.492  -1.230  0.00  0.00    +0.000 C 
ATOM      2  C   UNL     1       1.458   4.645  -1.910  0.00  0.00    +0.000 C 
ATOM      3  C   UNL     1       2.671   5.193  -2.576  0.00  0.00    +0.000 C 
ENDROOT
BRANCH   1   6
ATOM      4  C   UNL     1       3.064   0.782  -0.688  0.00  0.00    +0.000 A 
ATOM      5  C   UNL     1       2.626   2.066  -0.492  0.00  0.00    +0.000 A 
ATOM      6  C   UNL     1       3.311   3.047  -1.188  0.00  0.00    +0.000 A 
ATOM      7  N   UNL     1       4.385   2.741  -1.937  0.00  0.00    +0.000 NA
ATOM      8  C   UNL     1       4.750   1.465  -2.062  0.00  0.00    +0.000 A 
ATOM      9  N   UNL     1       5.861   1.189  -2.801  0.00  0.00    +0.000 N 
ATOM     10  C   UNL     1       6.108  -0.140  -3.341  0.00  0.00    +0.000 C 
ATOM     11  C   UNL     1       7.614  -0.418  -3.248  0.00  0.00    +0.000 C 
ATOM     12  O   UNL     1       8.390   0.614  -3.892  0.00  0.00    +0.000 OA
ATOM     13  C   UNL     1       8.123   1.895  -3.288  0.00  0.00    +0.000 C 
ATOM     14  C   UNL     1       6.640   2.268  -3.395  0.00  0.00    +0.000 C 
ATOM     15  N   UNL     1       4.100   0.458  -1.469  0.00  0.00    +0.000 NA
BRANCH   4  17
ATOM     16  C   UNL     1       2.817  -1.523  -0.393  0.00  0.00    +0.000 C 
ATOM     17  O   UNL     1       2.355  -0.219  -0.049  0.00  0.00    +0.000 OA
ENDBRANCH   4  17
ENDBRANCH   1   6
BRANCH   1  18
ATOM     18  N   UNL     1       3.170   5.308  -0.051  0.00  0.00    +0.000 N 
ATOM     19  C   UNL     1       4.395   5.980   0.089  0.00  0.00    +0.000 A 
ATOM     20  C   UNL     1       5.144   6.440  -0.989  0.00  0.00    +0.000 A 
ATOM     21  C   UNL     1       6.265   7.243  -0.772  0.00  0.00    +0.000 A 
ATOM     22  C   UNL     1       6.647   7.562   0.526  0.00  0.00    +0.000 A 
ATOM     23  C   UNL     1       5.877   7.022   1.548  0.00  0.00    +0.000 A 
ATOM     24  N   UNL     1       4.771   6.254   1.357  0.00  0.00    +0.000 NA
ATOM     25  H   UNL     1       2.913   4.968   0.872  0.00  0.00    +0.000 HD
BRANCH  22  26
ATOM     26  C   UNL     1       7.812   8.460   0.723  0.00  0.00    +0.000 C 
ATOM     27  N   UNL     1       8.197   8.777   1.994  0.00  0.00    +0.000 N 
ATOM     28  O   UNL     1       8.419   8.924  -0.232  0.00  0.00    +0.000 OA
ATOM     29  H   UNL     1       7.763   8.464   2.846  0.00  0.00    +0.000 HD
ATOM     30  H   UNL     1       8.982   9.414   2.077  0.00  0.00    +0.000 HD
ENDBRANCH  22  26
ENDBRANCH   1  18
TORSDOF 4
