REMARK  Name = 
REMARK  7 active torsions:
REMARK  status: ('A' for Active; 'I' for Inactive)
REMARK    1  A    between atoms: C_1  and  C_2
REMARK    2  A    between atoms: C_2  and  C_3
REMARK    3  A    between atoms: C_2  and  C_4
REMARK    4  A    between atoms: C_2  and  C_5
REMARK    5  A    between atoms: C_10  and  C_11
REMARK    6  A    between atoms: N_16  and  C_17
REMARK    7  A    between atoms: C_17  and  C_18
REMARK                            x       y       z     vdW  Elec       q    Type
REMARK                         _______ _______ _______ _____ _____    ______ ____
ROOT
ATOM      1  C   UNL     1       2.910  -0.593  -1.419  0.00  0.00    +0.000 A 
ATOM      2  N   UNL     1       2.982  -1.779  -2.004  0.00  0.00    +0.000 NA
ATOM      3  C   UNL     1       3.470  -1.588  -3.248  0.00  0.00    +0.000 A 
ATOM      4  N   UNL     1       3.609  -2.558  -4.172  0.00  0.00    +0.000 NA
ATOM      5  C   UNL     1       4.080  -2.131  -5.364  0.00  0.00    +0.000 A 
ATOM      6  C   UNL     1       4.433  -0.819  -5.680  0.00  0.00    +0.000 A 
ATOM      7  C   UNL     1       4.289   0.174  -4.700  0.00  0.00    +0.000 A 
ATOM      8  C   UNL     1       3.783  -0.258  -3.462  0.00  0.00    +0.000 A 
ATOM      9  N   UNL     1       3.474   0.372  -2.257  0.00  0.00    +0.000 N 
ENDROOT
BRANCH   6  10
ATOM     10  C   UNL     1       4.946  -0.573  -7.053  0.00  0.00    +0.000 C 
ATOM     11  N   UNL     1       5.293   0.701  -7.415  0.00  0.00    +0.000 N 
ATOM     12  O   UNL     1       5.065  -1.485  -7.861  0.00  0.00    +0.000 OA
ATOM     13  H   UNL     1       5.191   1.519  -6.842  0.00  0.00    +0.000 HD
ATOM     14  H   UNL     1       5.622   0.825  -8.365  0.00  0.00    +0.000 HD
ENDBRANCH   6  10
BRANCH   1  16
ATOM     15  C   UNL     1       3.408  -0.727   1.026  0.00  0.00    +0.000 C 
ATOM     16  C   UNL     1       2.303  -0.489  -0.017  0.00  0.00    +0.000 C 
ATOM     17  C   UNL     1       1.257  -1.634   0.135  0.00  0.00    +0.000 C 
ATOM     18  C   UNL     1       1.554   0.808   0.297  0.00  0.00    +0.000 C 
ENDBRANCH   1  16
BRANCH   9  19
ATOM     19  C   UNL     1       3.546   1.820  -2.103  0.00  0.00    +0.000 C 
BRANCH  19  20
ATOM     20  C   UNL     1       4.898   2.438  -1.820  0.00  0.00    +0.000 A 
ATOM     21  C   UNL     1       6.120   1.808  -2.046  0.00  0.00    +0.000 A 
ATOM     22  C   UNL     1       7.298   2.558  -1.979  0.00  0.00    +0.000 A 
ATOM     23  C   UNL     1       7.239   3.911  -1.671  0.00  0.00    +0.000 A 
ATOM     24  C   UNL     1       5.998   4.457  -1.412  0.00  0.00    +0.000 A 
ATOM     25  N   UNL     1       4.842   3.758  -1.487  0.00  0.00    +0.000 NA
ENDBRANCH  19  20
ENDBRANCH   9  19
TORSDOF 4
