REMARK  Name = 
REMARK  8 active torsions:
REMARK  status: ('A' for Active; 'I' for Inactive)
REMARK    1  A    between atoms: C_2  and  C_22
REMARK    2  A    between atoms: N_3  and  C_4
REMARK    3  A    between atoms: C_4  and  C_5
REMARK    4  A    between atoms: C_8  and  C_9
REMARK    5  A    between atoms: C_9  and  C_10
REMARK    6  A    between atoms: C_10  and  O_11
REMARK    7  A    between atoms: C_10  and  C_12
REMARK    8  A    between atoms: C_12  and  C_13
REMARK                            x       y       z     vdW  Elec       q    Type
REMARK                         _______ _______ _______ _____ _____    ______ ____
ROOT
ATOM      1  C   UNL     1       3.532   2.866   4.621  0.00  0.00    +0.000 A 
ATOM      2  C   UNL     1       4.572   1.963   4.364  0.00  0.00    +0.000 A 
ATOM      3  C   UNL     1       5.081   1.144   5.378  0.00  0.00    +0.000 A 
ATOM      4  C   UNL     1       4.568   1.222   6.678  0.00  0.00    +0.000 A 
ATOM      5  C   UNL     1       3.519   2.118   6.931  0.00  0.00    +0.000 A 
ATOM      6  C   UNL     1       2.999   2.924   5.913  0.00  0.00    +0.000 A 
ENDROOT
BRANCH   1   7
ATOM      7  C   UNL     1       2.994   3.736   3.517  0.00  0.00    +0.000 C 
BRANCH   7  10
ATOM      8  O   UNL     1       1.597   4.881   1.416  0.00  0.00    +0.000 OA
ATOM      9  C   UNL     1       1.288   3.749   1.774  0.00  0.00    +0.000 C 
ATOM     10  N   UNL     1       1.893   3.118   2.832  0.00  0.00    +0.000 N 
ATOM     11  H   UNL     1       1.801   2.113   2.937  0.00  0.00    +0.000 HD
BRANCH   9  12
ATOM     12  C   UNL     1       0.226   2.997   1.107  0.00  0.00    +0.000 A 
ATOM     13  C   UNL     1      -0.834   3.646   0.488  0.00  0.00    +0.000 A 
ATOM     14  S   UNL     1      -1.918   2.575  -0.285  0.00  0.00    +0.000 S 
ATOM     15  C   UNL     1      -0.996   1.217   0.178  0.00  0.00    +0.000 A 
ATOM     16  N   UNL     1      -1.349  -0.038  -0.207  0.00  0.00    +0.000 NA
ATOM     17  C   UNL     1      -0.528  -0.962   0.195  0.00  0.00    +0.000 A 
ATOM     18  N   UNL     1       0.593  -0.741   0.954  0.00  0.00    +0.000 N 
ATOM     19  C   UNL     1       0.934   0.498   1.415  0.00  0.00    +0.000 A 
ATOM     20  O   UNL     1       1.875   0.629   2.195  0.00  0.00    +0.000 OA
ATOM     21  C   UNL     1       0.094   1.576   0.945  0.00  0.00    +0.000 A 
ATOM     22  H   UNL     1       1.163  -1.511   1.271  0.00  0.00    +0.000 HD
ENDBRANCH   9  12
ENDBRANCH   7  10
ENDBRANCH   1   7
BRANCH   4  23
ATOM     23  C   UNL     1       5.084   0.339   7.789  0.00  0.00    +0.000 C 
BRANCH  23  24
ATOM     24  C   UNL     1       6.582   0.479   8.142  0.00  0.00    +0.000 C 
BRANCH  24  25
ATOM     25  O   UNL     1       6.891  -0.496   9.152  0.00  0.00    +0.000 OA
ATOM     26  H   UNL     1       6.259  -0.402   9.883  0.00  0.00    +0.000 HD
ENDBRANCH  24  25
BRANCH  24  27
ATOM     27  C   UNL     1       6.964   1.899   8.627  0.00  0.00    +0.000 C 
BRANCH  27  28
ATOM     28  C   UNL     1       8.456   2.061   8.863  0.00  0.00    +0.000 A 
ATOM     29  C   UNL     1       9.027   1.820  10.122  0.00  0.00    +0.000 A 
ATOM     30  C   UNL     1      10.418   1.796  10.281  0.00  0.00    +0.000 A 
ATOM     31  C   UNL     1      11.251   2.050   9.194  0.00  0.00    +0.000 A 
ATOM     32  C   UNL     1      10.690   2.372   7.961  0.00  0.00    +0.000 A 
ATOM     33 CL   UNL     1      11.714   2.726   6.623  0.00  0.00    +0.000 Cl
ATOM     34  C   UNL     1       9.303   2.382   7.792  0.00  0.00    +0.000 A 
ENDBRANCH  27  28
ENDBRANCH  24  27
ENDBRANCH  23  24
ENDBRANCH   4  23
TORSDOF 8
