REMARK  Name = 
REMARK  9 active torsions:
REMARK  status: ('A' for Active; 'I' for Inactive)
REMARK    1  A    between atoms: C_1  and  C_2
REMARK    2  A    between atoms: C_2  and  C_3
REMARK    3  A    between atoms: C_2  and  C_4
REMARK    4  A    between atoms: C_2  and  C_5
REMARK    5  A    between atoms: C_7  and  C_8
REMARK    6  A    between atoms: C_13  and  N_14
REMARK    7  A    between atoms: N_14  and  C_15
REMARK    8  A    between atoms: C_15  and  C_16
REMARK    9  A    between atoms: C_19  and  C_20
REMARK                            x       y       z     vdW  Elec       q    Type
REMARK                         _______ _______ _______ _____ _____    ______ ____
ROOT
ATOM      1  C   UNL     1       2.849  -1.358   0.543  0.00  0.00    +0.000 A 
ATOM      2  C   UNL     1       3.777  -1.621   1.586  0.00  0.00    +0.000 A 
ATOM      3  C   UNL     1       4.141  -2.911   1.958  0.00  0.00    +0.000 A 
ATOM      4  C   UNL     1       3.545  -3.933   1.254  0.00  0.00    +0.000 A 
ATOM      5  N   UNL     1       2.671  -3.744   0.228  0.00  0.00    +0.000 NA
ATOM      6  C   UNL     1       2.332  -2.478  -0.125  0.00  0.00    +0.000 A 
ENDROOT
BRANCH   3   7
ATOM      7  C   UNL     1       5.117  -3.084   3.064  0.00  0.00    +0.000 C 
ATOM      8  N   UNL     1       5.464  -4.344   3.458  0.00  0.00    +0.000 N 
ATOM      9  O   UNL     1       5.619  -2.115   3.626  0.00  0.00    +0.000 OA
ATOM     10  H   UNL     1       5.113  -5.205   3.071  0.00  0.00    +0.000 HD
ATOM     11  H   UNL     1       6.135  -4.409   4.214  0.00  0.00    +0.000 HD
ENDBRANCH   3   7
BRANCH   1  13
ATOM     12  C   UNL     1       3.834   0.897  -0.034  0.00  0.00    +0.000 C 
ATOM     13  C   UNL     1       2.519   0.127   0.267  0.00  0.00    +0.000 C 
ATOM     14  C   UNL     1       1.812   0.687   1.530  0.00  0.00    +0.000 C 
ATOM     15  C   UNL     1       1.590   0.475  -0.922  0.00  0.00    +0.000 C 
ENDBRANCH   1  13
BRANCH   6  16
ATOM     16  N   UNL     1       1.419  -2.319  -1.161  0.00  0.00    +0.000 N 
ATOM     17  H   UNL     1       0.553  -1.952  -0.781  0.00  0.00    +0.000 HD
BRANCH  16  18
ATOM     18  C   UNL     1       1.177  -3.445  -2.042  0.00  0.00    +0.000 C 
BRANCH  18  19
ATOM     19  C   UNL     1       0.540  -2.905  -3.310  0.00  0.00    +0.000 A 
ATOM     20  C   UNL     1       1.346  -2.527  -4.398  0.00  0.00    +0.000 A 
ATOM     21  C   UNL     1       0.778  -1.980  -5.554  0.00  0.00    +0.000 A 
ATOM     22  C   UNL     1      -0.604  -1.788  -5.636  0.00  0.00    +0.000 A 
ATOM     23  C   UNL     1      -1.411  -2.151  -4.552  0.00  0.00    +0.000 A 
ATOM     24  C   UNL     1      -0.846  -2.702  -3.397  0.00  0.00    +0.000 A 
BRANCH  22  25
ATOM     25  C   UNL     1      -1.189  -1.215  -6.821  0.00  0.00    +0.000 C 
ATOM     26  N   UNL     1      -1.662  -0.752  -7.777  0.00  0.00    +0.000 NA
ENDBRANCH  22  25
ENDBRANCH  18  19
ENDBRANCH  16  18
ENDBRANCH   6  16
TORSDOF 6
