REMARK  Name = 
REMARK  9 active torsions:
REMARK  status: ('A' for Active; 'I' for Inactive)
REMARK    1  A    between atoms: C_1  and  C_2
REMARK    2  A    between atoms: C_5  and  N_6
REMARK    3  A    between atoms: N_6  and  C_7
REMARK    4  A    between atoms: C_7  and  C_8
REMARK    5  A    between atoms: C_8  and  C_9
REMARK    6  A    between atoms: C_8  and  C_10
REMARK    7  A    between atoms: C_8  and  C_11
REMARK    8  A    between atoms: N_16  and  C_17
REMARK    9  A    between atoms: C_25  and  C_26
REMARK                            x       y       z     vdW  Elec       q    Type
REMARK                         _______ _______ _______ _____ _____    ______ ____
ROOT
ATOM      1  C   UNL     1      -5.597  -0.652  -0.008  0.00  0.00    +0.000 C 
ATOM      2  C   UNL     1      -5.948   0.197   1.231  0.00  0.00    +0.000 C 
ATOM      3  C   UNL     1      -5.920   0.171  -1.280  0.00  0.00    +0.000 C 
ENDROOT
BRANCH   1   4
ATOM      4  C   UNL     1      -6.427  -1.947  -0.014  0.00  0.00    +0.000 A 
ATOM      5  C   UNL     1      -7.808  -1.901  -0.075  0.00  0.00    +0.000 A 
ATOM      6  C   UNL     1      -8.462  -3.107  -0.104  0.00  0.00    +0.000 A 
ATOM      7  N   UNL     1      -7.832  -4.291  -0.075  0.00  0.00    +0.000 NA
ATOM      8  C   UNL     1      -6.499  -4.266   0.018  0.00  0.00    +0.000 A 
ATOM      9  N   UNL     1      -5.791  -5.469   0.097  0.00  0.00    +0.000 N 
ATOM     10  N   UNL     1      -5.773  -3.134   0.048  0.00  0.00    +0.000 NA
ATOM     11  H   UNL     1      -4.814  -5.234  -0.045  0.00  0.00    +0.000 HD
BRANCH   9  12
ATOM     12  C   UNL     1      -6.234  -6.675  -0.529  0.00  0.00    +0.000 C 
ATOM     13  C   UNL     1      -7.543  -7.260   0.044  0.00  0.00    +0.000 C 
ATOM     14  C   UNL     1      -6.886  -8.651  -0.074  0.00  0.00    +0.000 C 
ATOM     15  F   UNL     1      -7.167  -9.524   0.918  0.00  0.00    +0.000 F 
ATOM     16  F   UNL     1      -7.109  -9.300  -1.240  0.00  0.00    +0.000 F 
ATOM     17  C   UNL     1      -5.522  -7.928   0.027  0.00  0.00    +0.000 C 
ENDBRANCH   9  12
ENDBRANCH   1   4
BRANCH   1  18
ATOM     18  C   UNL     1      -4.063  -0.929  -0.045  0.00  0.00    +0.000 C 
BRANCH  18  19
ATOM     19  N   UNL     1      -3.562  -1.532   1.194  0.00  0.00    +0.000 N 
ATOM     20  H   UNL     1      -4.229  -2.203   1.584  0.00  0.00    +0.000 HD
BRANCH  19  25
ATOM     21  C   UNL     1       1.751  -3.403   1.920  0.00  0.00    +0.000 C 
ATOM     22  C   UNL     1       0.365  -2.914   1.612  0.00  0.00    +0.000 A 
ATOM     23  N   UNL     1      -0.578  -3.243   2.533  0.00  0.00    +0.000 NA
ATOM     24  C   UNL     1      -1.839  -2.790   2.333  0.00  0.00    +0.000 A 
ATOM     25  C   UNL     1      -2.257  -2.035   1.238  0.00  0.00    +0.000 A 
ATOM     26  C   UNL     1      -1.264  -1.710   0.314  0.00  0.00    +0.000 A 
ATOM     27  C   UNL     1       0.055  -2.166   0.472  0.00  0.00    +0.000 A 
BRANCH  27  28
ATOM     28  C   UNL     1       1.087  -1.802  -0.536  0.00  0.00    +0.000 C 
ATOM     29  N   UNL     1       0.671  -1.618  -1.828  0.00  0.00    +0.000 N 
ATOM     30  O   UNL     1       2.269  -1.678  -0.255  0.00  0.00    +0.000 OA
ATOM     31  H   UNL     1      -0.242  -1.889  -2.168  0.00  0.00    +0.000 HD
ATOM     32  H   UNL     1       1.399  -1.445  -2.512  0.00  0.00    +0.000 HD
ENDBRANCH  27  28
ENDBRANCH  19  25
ENDBRANCH  18  19
ENDBRANCH   1  18
TORSDOF 6
