REMARK  Name = 
REMARK  6 active torsions:
REMARK  status: ('A' for Active; 'I' for Inactive)
REMARK    1  A    between atoms: N_1  and  C_2
REMARK    2  A    between atoms: C_2  and  C_3
REMARK    3  A    between atoms: C_3  and  C_4
REMARK    4  A    between atoms: C_7  and  C_8
REMARK    5  A    between atoms: C_8  and  N_9
REMARK    6  A    between atoms: C_15  and  N_16
REMARK                            x       y       z     vdW  Elec       q    Type
REMARK                         _______ _______ _______ _____ _____    ______ ____
ROOT
ATOM      1  C   UNL     1       8.789   1.447  -0.059  0.00  0.00    +0.000 C 
ENDROOT
BRANCH   1   2
ATOM      2  N   UNL     1       9.434   2.756  -0.025  0.00  0.00    +0.000 N 
ATOM      3  C   UNL     1       9.711   3.444   1.133  0.00  0.00    +0.000 A 
ATOM      4  C   UNL     1      10.427   4.571   0.800  0.00  0.00    +0.000 A 
ATOM      5  C   UNL     1      10.606   4.570  -0.607  0.00  0.00    +0.000 A 
ATOM      6  C   UNL     1      11.270   5.439  -1.499  0.00  0.00    +0.000 A 
ATOM      7  C   UNL     1      11.281   5.154  -2.869  0.00  0.00    +0.000 A 
ATOM      8  C   UNL     1      10.627   4.017  -3.349  0.00  0.00    +0.000 A 
ATOM      9  C   UNL     1       9.952   3.136  -2.485  0.00  0.00    +0.000 A 
ATOM     10  C   UNL     1       9.965   3.431  -1.110  0.00  0.00    +0.000 A 
BRANCH   8  11
ATOM     11  N   UNL     1      10.652   3.722  -4.789  0.00  0.00    +0.000 N 
ATOM     12  O   UNL     1      11.300   4.481  -5.524  0.00  0.00    +0.000 OA
ATOM     13  O   UNL     1      10.026   2.728  -5.184  0.00  0.00    +0.000 OA
ENDBRANCH   8  11
ENDBRANCH   1   2
BRANCH   1  17
ATOM     14  C   UNL     1       4.536   1.737  -0.078  0.00  0.00    +0.000 A 
ATOM     15  C   UNL     1       5.199   1.677  -1.300  0.00  0.00    +0.000 A 
ATOM     16  C   UNL     1       6.589   1.581  -1.310  0.00  0.00    +0.000 A 
ATOM     17  C   UNL     1       7.293   1.551  -0.104  0.00  0.00    +0.000 A 
ATOM     18  C   UNL     1       6.544   1.625   1.066  0.00  0.00    +0.000 A 
ATOM     19  N   UNL     1       5.195   1.717   1.104  0.00  0.00    +0.000 NA
BRANCH  14  20
ATOM     20  C   UNL     1       3.034   1.852  -0.027  0.00  0.00    +0.000 C 
BRANCH  20  21
ATOM     21  C   UNL     1       2.587   3.315  -0.021  0.00  0.00    +0.000 C 
BRANCH  21  22
ATOM     22  N   UNL     1       1.126   3.421  -0.010  0.00  0.00    +0.000 NA
ATOM     23  H   UNL     1       0.865   4.406   0.025  0.00  0.00    +0.000 HD
ATOM     24  H   UNL     1       0.766   3.006   0.850  0.00  0.00    +0.000 HD
ENDBRANCH  21  22
ENDBRANCH  20  21
ENDBRANCH  14  20
ENDBRANCH   1  17
TORSDOF 6
