REMARK  Name = 
REMARK  3 active torsions:
REMARK  status: ('A' for Active; 'I' for Inactive)
REMARK    1  A    between atoms: N_6  and  C_7
REMARK    2  A    between atoms: C_7  and  C_8
REMARK    3  A    between atoms: C_12  and  C_13
REMARK                            x       y       z     vdW  Elec       q    Type
REMARK                         _______ _______ _______ _____ _____    ______ ____
ROOT
ATOM      1  C   UNL     1      -5.745   0.889  -0.042  0.00  0.00    +0.000 A 
ATOM      2  C   UNL     1      -6.174  -0.420  -0.285  0.00  0.00    +0.000 A 
ATOM      3  C   UNL     1      -7.534  -0.716  -0.301  0.00  0.00    +0.000 A 
ATOM      4  C   UNL     1      -8.474   0.285  -0.040  0.00  0.00    +0.000 A 
ATOM      5  C   UNL     1      -8.079   1.606   0.239  0.00  0.00    +0.000 A 
ATOM      6  C   UNL     1      -6.705   1.891   0.198  0.00  0.00    +0.000 A 
ENDROOT
BRANCH   5   7
ATOM      7  C   UNL     1      -9.129   2.615   0.708  0.00  0.00    +0.000 C 
ATOM      8  C   UNL     1     -10.311   2.803  -0.261  0.00  0.00    +0.000 C 
ATOM      9  C   UNL     1      -9.952   3.717  -1.429  0.00  0.00    +0.000 C 
ATOM     10  N   UNL     1      -9.506   5.034  -0.971  0.00  0.00    +0.000 NA
ATOM     11  C   UNL     1      -8.352   4.925  -0.079  0.00  0.00    +0.000 C 
ATOM     12  C   UNL     1      -8.621   4.012   1.119  0.00  0.00    +0.000 C 
ATOM     13  H   UNL     1     -10.268   5.499  -0.483  0.00  0.00    +0.000 HD
ENDBRANCH   5   7
BRANCH   1  14
ATOM     14  C   UNL     1      -4.274   1.231  -0.026  0.00  0.00    +0.000 C 
BRANCH  14  20
ATOM     15 CL   UNL     1       1.840   2.724  -1.929  0.00  0.00    +0.000 Cl
ATOM     16  C   UNL     1       0.181   2.363  -1.749  0.00  0.00    +0.000 A 
ATOM     17  C   UNL     1      -0.535   1.693  -2.708  0.00  0.00    +0.000 A 
ATOM     18  N   UNL     1      -1.850   1.386  -2.588  0.00  0.00    +0.000 NA
ATOM     19  C   UNL     1      -2.467   1.784  -1.465  0.00  0.00    +0.000 A 
ATOM     20  N   UNL     1      -3.817   1.488  -1.374  0.00  0.00    +0.000 N 
ATOM     21  N   UNL     1      -1.847   2.435  -0.468  0.00  0.00    +0.000 NA
ATOM     22  C   UNL     1      -0.535   2.715  -0.633  0.00  0.00    +0.000 A 
ATOM     23  H   UNL     1      -4.020   0.764  -2.051  0.00  0.00    +0.000 HD
ENDBRANCH  14  20
ENDBRANCH   1  14
TORSDOF 3
