REMARK  Name = 
REMARK  10 active torsions:
REMARK  status: ('A' for Active; 'I' for Inactive)
REMARK    1  A    between atoms: C_2  and  C_3
REMARK    2  A    between atoms: C_3  and  C_4
REMARK    3  A    between atoms: C_4  and  N_5
REMARK    4  A    between atoms: C_4  and  C_20
REMARK    5  A    between atoms: N_5  and  C_6
REMARK    6  A    between atoms: C_6  and  C_7
REMARK    7  A    between atoms: C_10  and  C_11
REMARK    8  A    between atoms: C_11  and  N_12
REMARK    9  A    between atoms: N_12  and  C_13
REMARK   10  A    between atoms: N_30  and  O_31
REMARK                            x       y       z     vdW  Elec       q    Type
REMARK                         _______ _______ _______ _____ _____    ______ ____
ROOT
ATOM      1  C   UNL     1      16.662   4.110   2.941  0.00  0.00    +0.000 C 
ENDROOT
BRANCH   1   2
ATOM      2  C   UNL     1      17.170   5.004   1.812  0.00  0.00    +0.000 A 
ATOM      3  C   UNL     1      17.718   4.543   0.623  0.00  0.00    +0.000 A 
ATOM      4  S   UNL     1      18.311   5.783  -0.390  0.00  0.00    +0.000 S 
ATOM      5  C   UNL     1      17.805   6.992   0.696  0.00  0.00    +0.000 A 
ATOM      6  N   UNL     1      18.025   8.308   0.428  0.00  0.00    +0.000 NA
ATOM      7  C   UNL     1      17.590   9.113   1.338  0.00  0.00    +0.000 A 
ATOM      8  N   UNL     1      16.953   8.723   2.490  0.00  0.00    +0.000 N 
ATOM      9  C   UNL     1      16.680   7.403   2.788  0.00  0.00    +0.000 A 
ATOM     10  O   UNL     1      16.041   7.092   3.785  0.00  0.00    +0.000 OA
ATOM     11  C   UNL     1      17.189   6.455   1.812  0.00  0.00    +0.000 A 
ATOM     12  H   UNL     1      16.606   9.408   3.144  0.00  0.00    +0.000 HD
ENDBRANCH   1   2
BRANCH   1  13
ATOM     13  N   UNL     1      15.236   3.763   2.640  0.00  0.00    +0.000 NA
ATOM     14  H   UNL     1      14.707   4.642   2.636  0.00  0.00    +0.000 HD
BRANCH  13  15
ATOM     15  C   UNL     1      14.704   2.928   3.722  0.00  0.00    +0.000 C 
BRANCH  15  16
ATOM     16  C   UNL     1      13.265   2.482   3.660  0.00  0.00    +0.000 A 
ATOM     17  C   UNL     1      12.760   1.773   2.565  0.00  0.00    +0.000 A 
ATOM     18  C   UNL     1      11.551   1.077   2.678  0.00  0.00    +0.000 A 
ATOM     19  C   UNL     1      10.831   1.083   3.883  0.00  0.00    +0.000 A 
ATOM     20  C   UNL     1      11.325   1.819   4.964  0.00  0.00    +0.000 A 
ATOM     21  C   UNL     1      12.525   2.513   4.852  0.00  0.00    +0.000 A 
BRANCH  19  22
ATOM     22  C   UNL     1       9.503   0.389   4.008  0.00  0.00    +0.000 C 
BRANCH  22  23
ATOM     23  N   UNL     1       9.568  -1.050   3.745  0.00  0.00    +0.000 NA
ATOM     24  H   UNL     1      10.203  -1.458   4.427  0.00  0.00    +0.000 HD
BRANCH  23  25
ATOM     25  C   UNL     1       8.262  -1.663   3.907  0.00  0.00    +0.000 C 
ATOM     26  C   UNL     1       7.190  -1.189   2.929  0.00  0.00    +0.000 C 
ATOM     27  C   UNL     1       7.596  -1.854   1.630  0.00  0.00    +0.000 C 
ATOM     28  C   UNL     1       8.219  -3.164   2.085  0.00  0.00    +0.000 C 
ATOM     29  N   UNL     1       8.420  -3.058   3.537  0.00  0.00    +0.000 NA
ATOM     30  H   UNL     1       9.352  -3.376   3.780  0.00  0.00    +0.000 HD
ENDBRANCH  23  25
ENDBRANCH  22  23
ENDBRANCH  19  22
ENDBRANCH  15  16
ENDBRANCH  13  15
ENDBRANCH   1  13
BRANCH   1  31
ATOM     31  C   UNL     1      17.522   2.833   3.124  0.00  0.00    +0.000 C 
BRANCH  31  33
ATOM     32  N   UNL     1      19.794   1.983   3.502  0.00  0.00    +0.000 N 
ATOM     33  C   UNL     1      18.898   3.001   3.730  0.00  0.00    +0.000 C 
ATOM     34  N   UNL     1      19.138   3.996   4.529  0.00  0.00    +0.000 NA
ATOM     35  H   UNL     1      19.401   1.064   3.338  0.00  0.00    +0.000 HD
ATOM     36  H   UNL     1      20.524   1.989   4.210  0.00  0.00    +0.000 HD
BRANCH  34  37
ATOM     37  O   UNL     1      20.423   3.869   5.085  0.00  0.00    +0.000 OA
ATOM     38  H   UNL     1      20.568   4.752   5.469  0.00  0.00    +0.000 HD
ENDBRANCH  34  37
ENDBRANCH  31  33
ENDBRANCH   1  31
TORSDOF 10
