REMARK  Name = 
REMARK  5 active torsions:
REMARK  status: ('A' for Active; 'I' for Inactive)
REMARK    1  A    between atoms: C_2  and  C_18
REMARK    2  A    between atoms: N_3  and  C_4
REMARK    3  A    between atoms: C_4  and  C_5
REMARK    4  A    between atoms: C_8  and  C_9
REMARK    5  A    between atoms: C_9  and  C_10
REMARK                            x       y       z     vdW  Elec       q    Type
REMARK                         _______ _______ _______ _____ _____    ______ ____
ROOT
ATOM      1  O   UNL     1       2.532   1.444  -2.787  0.00  0.00    +0.000 OA
ATOM      2  C   UNL     1       3.747   1.425  -2.605  0.00  0.00    +0.000 C 
ATOM      3  N   UNL     1       4.430   2.479  -2.057  0.00  0.00    +0.000 N 
ATOM      4  H   UNL     1       5.441   2.435  -2.001  0.00  0.00    +0.000 HD
ENDROOT
BRANCH   2   5
ATOM      5  C   UNL     1       4.561   0.244  -2.921  0.00  0.00    +0.000 A 
ATOM      6  C   UNL     1       3.970  -1.010  -3.008  0.00  0.00    +0.000 A 
ATOM      7  S   UNL     1       5.076  -2.260  -3.363  0.00  0.00    +0.000 S 
ATOM      8  C   UNL     1       6.373  -1.163  -3.466  0.00  0.00    +0.000 A 
ATOM      9  N   UNL     1       7.629  -1.587  -3.779  0.00  0.00    +0.000 NA
ATOM     10  C   UNL     1       8.506  -0.645  -3.859  0.00  0.00    +0.000 A 
ATOM     11  N   UNL     1       8.250   0.682  -3.645  0.00  0.00    +0.000 N 
ATOM     12  C   UNL     1       7.017   1.147  -3.258  0.00  0.00    +0.000 A 
ATOM     13  O   UNL     1       6.859   2.326  -2.953  0.00  0.00    +0.000 OA
ATOM     14  C   UNL     1       5.977   0.135  -3.199  0.00  0.00    +0.000 A 
ATOM     15  H   UNL     1       8.986   1.369  -3.693  0.00  0.00    +0.000 HD
ENDBRANCH   2   5
BRANCH   3  16
ATOM     16  C   UNL     1       3.832   3.740  -1.696  0.00  0.00    +0.000 C 
BRANCH  16  17
ATOM     17  C   UNL     1       3.248   3.734  -0.272  0.00  0.00    +0.000 C 
ATOM     18  C   UNL     1       4.285   3.376   0.808  0.00  0.00    +0.000 C 
ATOM     19  C   UNL     1       5.329   4.473   1.007  0.00  0.00    +0.000 C 
ATOM     20  C   UNL     1       4.705   5.843   1.330  0.00  0.00    +0.000 C 
ATOM     21  C   UNL     1       3.631   6.205   0.287  0.00  0.00    +0.000 C 
ATOM     22  C   UNL     1       2.605   5.091   0.053  0.00  0.00    +0.000 C 
BRANCH  20  23
ATOM     23  C   UNL     1       4.123   5.934   2.762  0.00  0.00    +0.000 C 
BRANCH  23  24
ATOM     24  C   UNL     1       5.119   5.643   3.858  0.00  0.00    +0.000 A 
ATOM     25  C   UNL     1       6.269   6.420   4.025  0.00  0.00    +0.000 A 
ATOM     26  C   UNL     1       7.167   6.074   5.024  0.00  0.00    +0.000 A 
ATOM     27  N   UNL     1       6.994   5.032   5.864  0.00  0.00    +0.000 NA
ATOM     28  C   UNL     1       5.867   4.308   5.702  0.00  0.00    +0.000 A 
ATOM     29  C   UNL     1       4.913   4.571   4.730  0.00  0.00    +0.000 A 
ENDBRANCH  23  24
ENDBRANCH  20  23
ENDBRANCH  16  17
ENDBRANCH   3  16
TORSDOF 5
