REMARK  Name = 
REMARK  9 active torsions:
REMARK  status: ('A' for Active; 'I' for Inactive)
REMARK    1  A    between atoms: C_1  and  O_2
REMARK    2  A    between atoms: O_2  and  C_3
REMARK    3  A    between atoms: C_10  and  C_11
REMARK    4  A    between atoms: N_13  and  C_14
REMARK    5  A    between atoms: C_14  and  C_15
REMARK    6  A    between atoms: C_18  and  C_19
REMARK    7  A    between atoms: C_19  and  N_20
REMARK    8  A    between atoms: N_20  and  C_21
REMARK    9  A    between atoms: C_21  and  C_22
REMARK                            x       y       z     vdW  Elec       q    Type
REMARK                         _______ _______ _______ _____ _____    ______ ____
ROOT
ATOM      1  C   UNL     1       3.031   2.925   1.812  0.00  0.00    +0.000 C 
ENDROOT
BRANCH   1   2
ATOM      2  C   UNL     1       1.808   3.360   1.024  0.00  0.00    +0.000 A 
ATOM      3  C   UNL     1       0.827   2.407   0.735  0.00  0.00    +0.000 A 
ATOM      4  C   UNL     1      -0.256   2.695  -0.105  0.00  0.00    +0.000 A 
ATOM      5  C   UNL     1      -0.485   3.989  -0.574  0.00  0.00    +0.000 A 
ATOM      6  C   UNL     1       0.417   4.985  -0.166  0.00  0.00    +0.000 A 
ATOM      7  C   UNL     1       1.569   4.668   0.587  0.00  0.00    +0.000 A 
BRANCH   5   8
ATOM      8  C   UNL     1      -1.632   4.302  -1.526  0.00  0.00    +0.000 C 
BRANCH   8   9
ATOM      9  N   UNL     1      -2.803   3.443  -1.306  0.00  0.00    +0.000 NA
ATOM     10  H   UNL     1      -3.121   3.529  -0.344  0.00  0.00    +0.000 HD
BRANCH   9  11
ATOM     11  C   UNL     1      -3.916   3.745  -2.215  0.00  0.00    +0.000 C 
BRANCH  11  12
ATOM     12  C   UNL     1      -5.116   2.806  -1.939  0.00  0.00    +0.000 C 
ATOM     13  C   UNL     1      -4.759   1.340  -2.136  0.00  0.00    +0.000 C 
ATOM     14  C   UNL     1      -6.113   0.668  -2.234  0.00  0.00    +0.000 C 
ATOM     15  C   UNL     1      -7.014   1.722  -2.862  0.00  0.00    +0.000 C 
ATOM     16  N   UNL     1      -6.236   2.969  -2.882  0.00  0.00    +0.000 NA
ATOM     17  H   UNL     1      -6.817   3.769  -2.638  0.00  0.00    +0.000 HD
ENDBRANCH  11  12
ENDBRANCH   9  11
ENDBRANCH   8   9
ENDBRANCH   5   8
ENDBRANCH   1   2
BRANCH   1  20
ATOM     18  C   UNL     1       5.302   1.945   1.527  0.00  0.00    +0.000 C 
ATOM     19  O   UNL     1       5.515   1.963   2.743  0.00  0.00    +0.000 OA
ATOM     20  N   UNL     1       4.121   2.399   0.997  0.00  0.00    +0.000 N 
ATOM     21  H   UNL     1       3.987   2.378  -0.006  0.00  0.00    +0.000 HD
BRANCH  18  29
ATOM     22  C   UNL     1       5.437   1.551  -1.907  0.00  0.00    +0.000 A 
ATOM     23  N   UNL     1       5.740   1.322  -3.186  0.00  0.00    +0.000 NA
ATOM     24  C   UNL     1       6.945   0.832  -3.480  0.00  0.00    +0.000 A 
ATOM     25  N   UNL     1       7.908   0.532  -2.610  0.00  0.00    +0.000 NA
ATOM     26  C   UNL     1       7.562   0.775  -1.339  0.00  0.00    +0.000 A 
ATOM     27  S   UNL     1       8.668   0.447  -0.079  0.00  0.00    +0.000 S 
ATOM     28  C   UNL     1       7.567   0.986   1.099  0.00  0.00    +0.000 A 
ATOM     29  C   UNL     1       6.346   1.432   0.588  0.00  0.00    +0.000 A 
ATOM     30  C   UNL     1       6.347   1.288  -0.865  0.00  0.00    +0.000 A 
BRANCH  22  32
ATOM     31  C   UNL     1       3.721   2.840  -2.741  0.00  0.00    +0.000 C 
ATOM     32  O   UNL     1       4.185   2.060  -1.640  0.00  0.00    +0.000 OA
ENDBRANCH  22  32
ENDBRANCH  18  29
ENDBRANCH   1  20
TORSDOF 8
