REMARK  Name = 
REMARK  8 active torsions:
REMARK  status: ('A' for Active; 'I' for Inactive)
REMARK    1  A    between atoms: C_1  and  C_2
REMARK    2  A    between atoms: C_2  and  N_3
REMARK    3  A    between atoms: C_2  and  C_16
REMARK    4  A    between atoms: C_4  and  C_6
REMARK    5  A    between atoms: C_19  and  C_20
REMARK    6  A    between atoms: C_20  and  O_21
REMARK    7  A    between atoms: O_21  and  C_22
REMARK    8  A    between atoms: C_22  and  C_23
REMARK                            x       y       z     vdW  Elec       q    Type
REMARK                         _______ _______ _______ _____ _____    ______ ____
ROOT
ATOM      1  C   UNL     1       0.938   0.320  -0.332  0.00  0.00    +0.000 C 
ATOM      2  C   UNL     1       2.421   0.066  -0.035  0.00  0.00    +0.000 C 
ENDROOT
BRANCH   2   3
ATOM      3  C   UNL     1       2.902  -1.194  -0.732  0.00  0.00    +0.000 A 
ATOM      4  C   UNL     1       3.962  -1.139  -1.648  0.00  0.00    +0.000 A 
ATOM      5  C   UNL     1       4.387  -2.293  -2.312  0.00  0.00    +0.000 A 
ATOM      6  C   UNL     1       3.766  -3.526  -2.070  0.00  0.00    +0.000 A 
ATOM      7  C   UNL     1       2.737  -3.588  -1.124  0.00  0.00    +0.000 A 
ATOM      8  C   UNL     1       2.309  -2.438  -0.466  0.00  0.00    +0.000 A 
BRANCH   6   9
ATOM      9  C   UNL     1       4.150  -4.761  -2.840  0.00  0.00    +0.000 C 
BRANCH   9  10
ATOM     10  O   UNL     1       5.522  -5.067  -2.624  0.00  0.00    +0.000 OA
BRANCH  10  11
ATOM     11  C   UNL     1       5.892  -6.262  -3.310  0.00  0.00    +0.000 C 
BRANCH  11  12
ATOM     12  C   UNL     1       7.345  -6.572  -3.070  0.00  0.00    +0.000 A 
ATOM     13  C   UNL     1       7.797  -7.894  -3.083  0.00  0.00    +0.000 A 
ATOM     14  C   UNL     1       9.148  -8.138  -2.887  0.00  0.00    +0.000 A 
ATOM     15  N   UNL     1      10.067  -7.169  -2.693  0.00  0.00    +0.000 NA
ATOM     16  C   UNL     1       9.613  -5.898  -2.697  0.00  0.00    +0.000 A 
ATOM     17  C   UNL     1       8.285  -5.555  -2.887  0.00  0.00    +0.000 A 
ENDBRANCH  11  12
ENDBRANCH  10  11
ENDBRANCH   9  10
ENDBRANCH   6   9
ENDBRANCH   2   3
BRANCH   2  18
ATOM     18  N   UNL     1       2.662  -0.041   1.392  0.00  0.00    +0.000 N 
ATOM     19  C   UNL     1       2.826   1.048   2.204  0.00  0.00    +0.000 C 
ATOM     20  O   UNL     1       2.771   2.198   1.779  0.00  0.00    +0.000 OA
ATOM     21  H   UNL     1       2.876  -0.966   1.751  0.00  0.00    +0.000 HD
BRANCH  19  22
ATOM     22  C   UNL     1       3.022   0.771   3.633  0.00  0.00    +0.000 A 
ATOM     23  C   UNL     1       2.694   1.739   4.572  0.00  0.00    +0.000 A 
ATOM     24  S   UNL     1       2.978   1.254   6.182  0.00  0.00    +0.000 S 
ATOM     25  C   UNL     1       3.586  -0.251   5.681  0.00  0.00    +0.000 A 
ATOM     26  N   UNL     1       4.050  -1.157   6.585  0.00  0.00    +0.000 NA
ATOM     27  C   UNL     1       4.524  -2.239   6.065  0.00  0.00    +0.000 A 
ATOM     28  N   UNL     1       4.556  -2.508   4.719  0.00  0.00    +0.000 N 
ATOM     29  C   UNL     1       4.023  -1.658   3.775  0.00  0.00    +0.000 A 
ATOM     30  O   UNL     1       3.959  -1.983   2.595  0.00  0.00    +0.000 OA
ATOM     31  C   UNL     1       3.542  -0.398   4.305  0.00  0.00    +0.000 A 
ATOM     32  H   UNL     1       4.906  -3.390   4.376  0.00  0.00    +0.000 HD
ENDBRANCH  19  22
ENDBRANCH   2  18
TORSDOF 7
