REMARK  Name = 
REMARK  5 active torsions:
REMARK  status: ('A' for Active; 'I' for Inactive)
REMARK    1  A    between atoms: N_1  and  C_2
REMARK    2  A    between atoms: C_4  and  C_5
REMARK    3  A    between atoms: C_5  and  O_6
REMARK    4  A    between atoms: C_7  and  C_8
REMARK    5  A    between atoms: C_11  and  C_12
REMARK                            x       y       z     vdW  Elec       q    Type
REMARK                         _______ _______ _______ _____ _____    ______ ____
ROOT
ATOM      1  C   UNL     1       2.253   0.019   0.212  0.00  0.00    +0.000 C 
ATOM      2  C   UNL     1       2.902  -1.252   0.754  0.00  0.00    +0.000 C 
ATOM      3  C   UNL     1       4.222  -0.814   1.426  0.00  0.00    +0.000 C 
ATOM      4  C   UNL     1       4.390   0.702   1.135  0.00  0.00    +0.000 C 
ATOM      5  C   UNL     1       2.933   1.164   0.961  0.00  0.00    +0.000 C 
ENDROOT
BRANCH   4   6
ATOM      6  C   UNL     1       5.342   1.059   0.009  0.00  0.00    +0.000 A 
ATOM      7  C   UNL     1       4.957   1.265  -1.316  0.00  0.00    +0.000 A 
ATOM      8  C   UNL     1       5.912   1.516  -2.301  0.00  0.00    +0.000 A 
ATOM      9  C   UNL     1       7.256   1.587  -1.949  0.00  0.00    +0.000 A 
ATOM     10  N   UNL     1       7.656   1.435  -0.657  0.00  0.00    +0.000 NA
ATOM     11  C   UNL     1       6.706   1.184   0.276  0.00  0.00    +0.000 A 
BRANCH   9  12
ATOM     12  C   UNL     1       8.299   1.832  -3.033  0.00  0.00    +0.000 C 
ATOM     13  F   UNL     1       7.752   1.966  -4.281  0.00  0.00    +0.000 F 
ATOM     14  F   UNL     1       9.022   2.971  -2.835  0.00  0.00    +0.000 F 
ATOM     15  F   UNL     1       9.205   0.820  -3.146  0.00  0.00    +0.000 F 
ENDBRANCH   9  12
ENDBRANCH   4   6
BRANCH   1  16
ATOM     16  N   UNL     1       0.807   0.043   0.352  0.00  0.00    +0.000 NA
ATOM     17  H   UNL     1       0.401  -0.726  -0.181  0.00  0.00    +0.000 HD
ATOM     18  H   UNL     1       0.435   0.899  -0.060  0.00  0.00    +0.000 HD
ENDBRANCH   1  16
BRANCH   3  19
ATOM     19  C   UNL     1       5.398  -1.723   1.075  0.00  0.00    +0.000 C 
BRANCH  19  20
ATOM     20  O   UNL     1       5.120  -3.064   1.460  0.00  0.00    +0.000 OA
ATOM     21  H   UNL     1       5.094  -3.094   2.431  0.00  0.00    +0.000 HD
ENDBRANCH  19  20
ENDBRANCH   3  19
TORSDOF 5
