REMARK  Name = 
REMARK  5 active torsions:
REMARK  status: ('A' for Active; 'I' for Inactive)
REMARK    1  A    between atoms: C_2  and  C_4
REMARK    2  A    between atoms: C_7  and  N_8
REMARK    3  A    between atoms: N_8  and  C_9
REMARK    4  A    between atoms: C_9  and  C_10
REMARK    5  A    between atoms: C_14  and  C_15
REMARK                            x       y       z     vdW  Elec       q    Type
REMARK                         _______ _______ _______ _____ _____    ______ ____
ROOT
ATOM      1  C   UNL     1       4.830   5.285   2.873  0.00  0.00    +0.000 C 
ENDROOT
BRANCH   1   2
ATOM      2  C   UNL     1       5.787   6.435   3.051  0.00  0.00    +0.000 A 
ATOM      3  C   UNL     1       7.123   6.236   3.361  0.00  0.00    +0.000 A 
ATOM      4  N   UNL     1       8.000   7.242   3.560  0.00  0.00    +0.000 NA
ATOM      5  C   UNL     1       7.517   8.507   3.457  0.00  0.00    +0.000 A 
ATOM      6  C   UNL     1       6.197   8.847   3.151  0.00  0.00    +0.000 A 
ATOM      7  C   UNL     1       5.336   7.761   2.947  0.00  0.00    +0.000 A 
BRANCH   6   8
ATOM      8  C   UNL     1       5.733  10.249   3.056  0.00  0.00    +0.000 A 
ATOM      9  C   UNL     1       6.569  11.277   2.596  0.00  0.00    +0.000 A 
ATOM     10  C   UNL     1       6.085  12.577   2.525  0.00  0.00    +0.000 A 
ATOM     11  N   UNL     1       4.833  12.931   2.869  0.00  0.00    +0.000 NA
ATOM     12  C   UNL     1       4.035  11.940   3.305  0.00  0.00    +0.000 A 
ATOM     13  F   UNL     1       2.780  12.262   3.649  0.00  0.00    +0.000 F 
ATOM     14  C   UNL     1       4.429  10.616   3.418  0.00  0.00    +0.000 A 
ENDBRANCH   6   8
ENDBRANCH   1   2
BRANCH   1  15
ATOM     15  N   UNL     1       4.237   5.380   1.545  0.00  0.00    +0.000 N 
ATOM     16  H   UNL     1       4.877   5.084   0.815  0.00  0.00    +0.000 HD
BRANCH  15  20
ATOM     17  C   UNL     1       0.429   3.960   0.990  0.00  0.00    +0.000 A 
ATOM     18  C   UNL     1       1.051   3.845   2.222  0.00  0.00    +0.000 A 
ATOM     19  N   UNL     1       2.328   4.263   2.437  0.00  0.00    +0.000 NA
ATOM     20  C   UNL     1       2.973   4.808   1.385  0.00  0.00    +0.000 A 
ATOM     21  C   UNL     1       2.325   4.906   0.144  0.00  0.00    +0.000 A 
ATOM     22  N   UNL     1       1.056   4.485  -0.096  0.00  0.00    +0.000 NA
BRANCH  17  24
ATOM     23  N   UNL     1      -1.515   3.681  -0.422  0.00  0.00    +0.000 N 
ATOM     24  C   UNL     1      -0.987   3.532   0.832  0.00  0.00    +0.000 C 
ATOM     25  O   UNL     1      -1.643   3.082   1.762  0.00  0.00    +0.000 OA
ATOM     26  H   UNL     1      -2.479   3.430  -0.590  0.00  0.00    +0.000 HD
ATOM     27  H   UNL     1      -0.951   4.074  -1.167  0.00  0.00    +0.000 HD
ENDBRANCH  17  24
ENDBRANCH  15  20
ENDBRANCH   1  15
TORSDOF 5
