REMARK  Name = 
REMARK  4 active torsions:
REMARK  status: ('A' for Active; 'I' for Inactive)
REMARK    1  A    between atoms: C_1  and  C_2
REMARK    2  A    between atoms: C_2  and  N_3
REMARK    3  A    between atoms: C_2  and  C_13
REMARK    4  A    between atoms: C_7  and  C_8
REMARK                            x       y       z     vdW  Elec       q    Type
REMARK                         _______ _______ _______ _____ _____    ______ ____
ROOT
ATOM      1  N   UNL     1       2.813   1.431   0.768  0.00  0.00    +0.000 N 
ATOM      2  C   UNL     1       2.418   2.574   0.048  0.00  0.00    +0.000 A 
ATOM      3  C   UNL     1       2.153   3.741   0.761  0.00  0.00    +0.000 A 
ATOM      4  C   UNL     1       1.742   4.885   0.075  0.00  0.00    +0.000 A 
ATOM      5  C   UNL     1       1.649   4.865  -1.316  0.00  0.00    +0.000 A 
ATOM      6  C   UNL     1       1.985   3.677  -1.946  0.00  0.00    +0.000 A 
ATOM      7  N   UNL     1       2.360   2.543  -1.295  0.00  0.00    +0.000 NA
ATOM      8  H   UNL     1       3.818   1.521   0.901  0.00  0.00    +0.000 HD
ENDROOT
BRANCH   5   9
ATOM      9  C   UNL     1       1.205   6.083  -2.036  0.00  0.00    +0.000 C 
ATOM     10  N   UNL     1       1.137   6.070  -3.402  0.00  0.00    +0.000 N 
ATOM     11  O   UNL     1       0.895   7.100  -1.425  0.00  0.00    +0.000 OA
ATOM     12  H   UNL     1       1.366   5.290  -4.002  0.00  0.00    +0.000 HD
ATOM     13  H   UNL     1       0.826   6.921  -3.847  0.00  0.00    +0.000 HD
ENDBRANCH   5   9
BRANCH   1  15
ATOM     14  C   UNL     1       0.994  -0.055  -0.025  0.00  0.00    +0.000 C 
ATOM     15  C   UNL     1       2.510   0.146   0.103  0.00  0.00    +0.000 C 
BRANCH  15  16
ATOM     16  C   UNL     1       3.065  -1.048   0.890  0.00  0.00    +0.000 A 
ATOM     17  C   UNL     1       3.133  -1.049   2.285  0.00  0.00    +0.000 A 
ATOM     18  C   UNL     1       3.536  -2.210   2.945  0.00  0.00    +0.000 A 
ATOM     19  C   UNL     1       3.846  -3.344   2.206  0.00  0.00    +0.000 A 
ATOM     20  C   UNL     1       3.759  -3.265   0.828  0.00  0.00    +0.000 A 
ATOM     21  N   UNL     1       3.385  -2.151   0.161  0.00  0.00    +0.000 NA
ENDBRANCH  15  16
ENDBRANCH   1  15
TORSDOF 3
