REMARK  Name = 
REMARK  5 active torsions:
REMARK  status: ('A' for Active; 'I' for Inactive)
REMARK    1  A    between atoms: C_1  and  C_2
REMARK    2  A    between atoms: C_4  and  C_5
REMARK    3  A    between atoms: N_10  and  C_11
REMARK    4  A    between atoms: C_11  and  C_12
REMARK    5  A    between atoms: C_16  and  C_17
REMARK                            x       y       z     vdW  Elec       q    Type
REMARK                         _______ _______ _______ _____ _____    ______ ____
ROOT
ATOM      1  C   UNL     1      -2.232  -0.197   0.779  0.00  0.00    +0.000 C 
ATOM      2  C   UNL     1      -0.833  -0.164   0.243  0.00  0.00    +0.000 A 
ATOM      3  C   UNL     1      -0.240  -1.291  -0.263  0.00  0.00    +0.000 A 
ATOM      4  C   UNL     1       1.039  -1.114  -0.733  0.00  0.00    +0.000 A 
ATOM      5  N   UNL     1       1.708   0.071  -0.734  0.00  0.00    +0.000 NA
ATOM      6  C   UNL     1       1.036   1.115  -0.244  0.00  0.00    +0.000 A 
ATOM      7  N   UNL     1       1.560   2.396  -0.286  0.00  0.00    +0.000 N 
ATOM      8  N   UNL     1      -0.202   1.032   0.264  0.00  0.00    +0.000 NA
ATOM      9  H   UNL     1       1.007   2.974   0.337  0.00  0.00    +0.000 HD
ENDROOT
BRANCH   4  10
ATOM     10  C   UNL     1       1.763  -2.293  -1.304  0.00  0.00    +0.000 C 
ATOM     11  N   UNL     1       3.030  -2.048  -1.752  0.00  0.00    +0.000 N 
ATOM     12  O   UNL     1       1.258  -3.409  -1.372  0.00  0.00    +0.000 OA
ATOM     13  H   UNL     1       3.403  -1.106  -1.719  0.00  0.00    +0.000 HD
ATOM     14  H   UNL     1       3.563  -2.794  -2.175  0.00  0.00    +0.000 HD
ENDBRANCH   4  10
BRANCH   7  15
ATOM     15  C   UNL     1       2.991   2.533  -0.168  0.00  0.00    +0.000 C 
BRANCH  15  16
ATOM     16  C   UNL     1       3.377   4.000  -0.194  0.00  0.00    +0.000 A 
ATOM     17  C   UNL     1       3.507   4.750   0.980  0.00  0.00    +0.000 A 
ATOM     18  C   UNL     1       3.917   6.084   0.923  0.00  0.00    +0.000 A 
ATOM     19  C   UNL     1       4.203   6.681  -0.307  0.00  0.00    +0.000 A 
ATOM     20  C   UNL     1       4.083   5.964  -1.509  0.00  0.00    +0.000 A 
ATOM     21  C   UNL     1       3.639   4.629  -1.424  0.00  0.00    +0.000 A 
BRANCH  20  22
ATOM     22  C   UNL     1       4.444   6.564  -2.809  0.00  0.00    +0.000 A 
ATOM     23  C   UNL     1       3.782   6.225  -3.998  0.00  0.00    +0.000 A 
ATOM     24  C   UNL     1       4.174   6.779  -5.215  0.00  0.00    +0.000 A 
ATOM     25  C   UNL     1       5.222   7.681  -5.218  0.00  0.00    +0.000 A 
ATOM     26  N   UNL     1       5.893   8.048  -4.109  0.00  0.00    +0.000 NA
ATOM     27  C   UNL     1       5.493   7.479  -2.944  0.00  0.00    +0.000 A 
ENDBRANCH  20  22
ENDBRANCH  15  16
ENDBRANCH   7  15
TORSDOF 4
