REMARK  Name = 
REMARK  7 active torsions:
REMARK  status: ('A' for Active; 'I' for Inactive)
REMARK    1  A    between atoms: N_1  and  C_2
REMARK    2  A    between atoms: C_2  and  C_3
REMARK    3  A    between atoms: C_3  and  O_4
REMARK    4  A    between atoms: O_4  and  C_5
REMARK    5  A    between atoms: C_9  and  C_10
REMARK    6  A    between atoms: C_10  and  N_11
REMARK    7  A    between atoms: C_16  and  C_17
REMARK                            x       y       z     vdW  Elec       q    Type
REMARK                         _______ _______ _______ _____ _____    ______ ____
ROOT
ATOM      1  N   UNL     1       3.828   6.027  -1.671  0.00  0.00    +0.000 N 
ATOM      2  C   UNL     1       4.040   6.374  -0.358  0.00  0.00    +0.000 A 
ATOM      3  C   UNL     1       2.835   6.754   0.183  0.00  0.00    +0.000 A 
ATOM      4  C   UNL     1       1.848   6.641  -0.833  0.00  0.00    +0.000 A 
ATOM      5  C   UNL     1       0.463   6.917  -0.868  0.00  0.00    +0.000 A 
ATOM      6  C   UNL     1      -0.258   6.714  -2.054  0.00  0.00    +0.000 A 
ATOM      7  C   UNL     1       0.403   6.223  -3.185  0.00  0.00    +0.000 A 
ATOM      8  C   UNL     1       1.776   5.943  -3.173  0.00  0.00    +0.000 A 
ATOM      9  C   UNL     1       2.486   6.169  -1.984  0.00  0.00    +0.000 A 
ENDROOT
BRANCH   6  10
ATOM     10  C   UNL     1      -1.716   7.012  -2.180  0.00  0.00    +0.000 C 
ATOM     11  N   UNL     1      -2.384   7.518  -1.100  0.00  0.00    +0.000 N 
ATOM     12  O   UNL     1      -2.319   6.821  -3.230  0.00  0.00    +0.000 OA
ATOM     13  H   UNL     1      -1.977   7.721  -0.202  0.00  0.00    +0.000 HD
ATOM     14  H   UNL     1      -3.367   7.721  -1.229  0.00  0.00    +0.000 HD
ENDBRANCH   6  10
BRANCH   1  15
ATOM     15  C   UNL     1       4.903   5.696  -2.601  0.00  0.00    +0.000 C 
BRANCH  15  20
ATOM     16  C   UNL     1       4.892   1.969  -3.367  0.00  0.00    +0.000 A 
ATOM     17  C   UNL     1       5.889   1.574  -2.483  0.00  0.00    +0.000 A 
ATOM     18  N   UNL     1       6.567   2.420  -1.668  0.00  0.00    +0.000 NA
ATOM     19  C   UNL     1       6.225   3.726  -1.728  0.00  0.00    +0.000 A 
ATOM     20  C   UNL     1       5.247   4.235  -2.577  0.00  0.00    +0.000 A 
ATOM     21  C   UNL     1       4.583   3.326  -3.406  0.00  0.00    +0.000 A 
BRANCH  16  22
ATOM     22  O   UNL     1       4.297   0.991  -4.115  0.00  0.00    +0.000 OA
BRANCH  22  23
ATOM     23  C   UNL     1       3.335   1.452  -5.076  0.00  0.00    +0.000 C 
BRANCH  23  24
ATOM     24  C   UNL     1       2.721   0.268  -5.829  0.00  0.00    +0.000 C 
BRANCH  24  25
ATOM     25  N   UNL     1       3.716  -0.464  -6.614  0.00  0.00    +0.000 NA
ATOM     26  H   UNL     1       3.276  -1.281  -7.036  0.00  0.00    +0.000 HD
ATOM     27  H   UNL     1       4.429  -0.819  -5.975  0.00  0.00    +0.000 HD
ENDBRANCH  24  25
ENDBRANCH  23  24
ENDBRANCH  22  23
ENDBRANCH  16  22
ENDBRANCH  15  20
ENDBRANCH   1  15
TORSDOF 7
