REMARK  Name = 
REMARK  8 active torsions:
REMARK  status: ('A' for Active; 'I' for Inactive)
REMARK    1  A    between atoms: C_1  and  O_2
REMARK    2  A    between atoms: O_2  and  C_3
REMARK    3  A    between atoms: C_6  and  C_7
REMARK    4  A    between atoms: C_7  and  N_8
REMARK    5  A    between atoms: N_8  and  C_9
REMARK    6  A    between atoms: C_12  and  C_13
REMARK    7  A    between atoms: C_21  and  C_22
REMARK    8  A    between atoms: C_25  and  C_26
REMARK                            x       y       z     vdW  Elec       q    Type
REMARK                         _______ _______ _______ _____ _____    ______ ____
ROOT
ATOM      1  C   UNL     1       3.081  -0.648  -0.882  0.00  0.00    +0.000 A 
ATOM      2  C   UNL     1       2.820  -0.771  -2.255  0.00  0.00    +0.000 A 
ATOM      3  C   UNL     1       3.572  -1.644  -3.052  0.00  0.00    +0.000 A 
ATOM      4  C   UNL     1       4.644  -2.364  -2.519  0.00  0.00    +0.000 A 
ATOM      5  C   UNL     1       4.959  -2.126  -1.171  0.00  0.00    +0.000 A 
ATOM      6  C   UNL     1       4.153  -1.359  -0.304  0.00  0.00    +0.000 A 
ENDROOT
BRANCH   6   7
ATOM      7  C   UNL     1       4.391  -1.472   1.161  0.00  0.00    +0.000 A 
ATOM      8  C   UNL     1       4.223  -0.407   2.057  0.00  0.00    +0.000 A 
ATOM      9  C   UNL     1       4.376  -0.588   3.439  0.00  0.00    +0.000 A 
ATOM     10  C   UNL     1       4.728  -1.837   3.958  0.00  0.00    +0.000 A 
ATOM     11  C   UNL     1       4.943  -2.904   3.087  0.00  0.00    +0.000 A 
ATOM     12  C   UNL     1       4.761  -2.720   1.713  0.00  0.00    +0.000 A 
BRANCH  10  13
ATOM     13  C   UNL     1       4.882  -1.981   5.429  0.00  0.00    +0.000 C 
ATOM     14  N   UNL     1       4.762  -3.238   5.957  0.00  0.00    +0.000 N 
ATOM     15  O   UNL     1       5.078  -1.015   6.153  0.00  0.00    +0.000 OA
ATOM     16  H   UNL     1       4.364  -4.011   5.444  0.00  0.00    +0.000 HD
ATOM     17  H   UNL     1       4.767  -3.296   6.966  0.00  0.00    +0.000 HD
ENDBRANCH  10  13
ENDBRANCH   6   7
BRANCH   4  18
ATOM     18  C   UNL     1       5.423  -3.403  -3.327  0.00  0.00    +0.000 C 
ATOM     19  C   UNL     1       4.752  -4.741  -3.571  0.00  0.00    +0.000 C 
ATOM     20  C   UNL     1       5.855  -4.672  -2.580  0.00  0.00    +0.000 C 
BRANCH  18  21
ATOM     21  N   UNL     1       6.483  -2.797  -4.136  0.00  0.00    +0.000 N 
ATOM     22  H   UNL     1       7.051  -2.102  -3.661  0.00  0.00    +0.000 HD
BRANCH  21  23
ATOM     23  C   UNL     1       6.720  -2.871  -5.515  0.00  0.00    +0.000 A 
ATOM     24  C   UNL     1       5.905  -3.533  -6.435  0.00  0.00    +0.000 A 
ATOM     25  C   UNL     1       6.302  -3.671  -7.779  0.00  0.00    +0.000 A 
ATOM     26  C   UNL     1       7.513  -3.132  -8.224  0.00  0.00    +0.000 A 
ATOM     27  C   UNL     1       8.326  -2.450  -7.319  0.00  0.00    +0.000 A 
ATOM     28  C   UNL     1       7.929  -2.330  -5.984  0.00  0.00    +0.000 A 
BRANCH  26  29
ATOM     29  C   UNL     1       7.925  -3.346  -9.633  0.00  0.00    +0.000 C 
ATOM     30  N   UNL     1       8.801  -2.443 -10.175  0.00  0.00    +0.000 N 
ATOM     31  O   UNL     1       7.496  -4.280 -10.296  0.00  0.00    +0.000 OA
ATOM     32  H   UNL     1       9.007  -1.554  -9.745  0.00  0.00    +0.000 HD
ATOM     33  H   UNL     1       9.025  -2.561 -11.153  0.00  0.00    +0.000 HD
ENDBRANCH  26  29
ENDBRANCH  21  23
ENDBRANCH  18  21
ENDBRANCH   4  18
BRANCH   1  35
ATOM     34  C   UNL     1       0.991   0.399  -0.408  0.00  0.00    +0.000 C 
ATOM     35  O   UNL     1       2.348   0.166  -0.058  0.00  0.00    +0.000 OA
ENDBRANCH   1  35
TORSDOF 7
