REMARK  Name = 
REMARK  6 active torsions:
REMARK  status: ('A' for Active; 'I' for Inactive)
REMARK    1  A    between atoms: C_2  and  C_25
REMARK    2  A    between atoms: N_3  and  C_4
REMARK    3  A    between atoms: C_4  and  C_5
REMARK    4  A    between atoms: C_8  and  C_9
REMARK    5  A    between atoms: C_9  and  N_10
REMARK    6  A    between atoms: C_11  and  C_13
REMARK                            x       y       z     vdW  Elec       q    Type
REMARK                         _______ _______ _______ _____ _____    ______ ____
ROOT
ATOM      1  C   UNL     1       3.261   2.840   2.337  0.00  0.00    +0.000 A 
ATOM      2  C   UNL     1       3.096   4.226   2.194  0.00  0.00    +0.000 A 
ATOM      3  C   UNL     1       3.891   5.122   2.920  0.00  0.00    +0.000 A 
ATOM      4  C   UNL     1       4.885   4.656   3.791  0.00  0.00    +0.000 A 
ATOM      5  C   UNL     1       5.053   3.270   3.928  0.00  0.00    +0.000 A 
ATOM      6  C   UNL     1       4.260   2.374   3.202  0.00  0.00    +0.000 A 
ENDROOT
BRANCH   1   7
ATOM      7  C   UNL     1       2.357   1.880   1.605  0.00  0.00    +0.000 C 
BRANCH   7  10
ATOM      8  O   UNL     1       1.046   0.169  -0.148  0.00  0.00    +0.000 OA
ATOM      9  C   UNL     1       2.105   0.675  -0.506  0.00  0.00    +0.000 C 
ATOM     10  N   UNL     1       2.845   1.528   0.292  0.00  0.00    +0.000 N 
ATOM     11  H   UNL     1       3.564   2.103  -0.125  0.00  0.00    +0.000 HD
BRANCH   9  12
ATOM     12  C   UNL     1       2.639   0.408  -1.867  0.00  0.00    +0.000 A 
ATOM     13  C   UNL     1       1.739   0.146  -2.908  0.00  0.00    +0.000 A 
ATOM     14  C   UNL     1       2.213  -0.117  -4.195  0.00  0.00    +0.000 A 
ATOM     15  C   UNL     1       3.587  -0.130  -4.442  0.00  0.00    +0.000 A 
ATOM     16  C   UNL     1       4.487   0.107  -3.403  0.00  0.00    +0.000 A 
ATOM     17  C   UNL     1       4.017   0.373  -2.115  0.00  0.00    +0.000 A 
ENDBRANCH   9  12
ENDBRANCH   7  10
ENDBRANCH   1   7
BRANCH   4  18
ATOM     18  C   UNL     1       5.747   5.609   4.588  0.00  0.00    +0.000 C 
BRANCH  18  19
ATOM     19  N   UNL     1       5.176   5.896   5.881  0.00  0.00    +0.000 N 
ATOM     20  C   UNL     1       5.751   6.803   6.739  0.00  0.00    +0.000 C 
ATOM     21  O   UNL     1       6.770   7.428   6.455  0.00  0.00    +0.000 OA
ATOM     22  H   UNL     1       4.475   5.249   6.233  0.00  0.00    +0.000 HD
BRANCH  20  23
ATOM     23  C   UNL     1       5.054   7.004   7.996  0.00  0.00    +0.000 A 
ATOM     24  C   UNL     1       5.156   8.155   8.760  0.00  0.00    +0.000 A 
ATOM     25  O   UNL     1       4.374   8.084   9.869  0.00  0.00    +0.000 OA
ATOM     26  C   UNL     1       3.767   6.866   9.860  0.00  0.00    +0.000 A 
ATOM     27  N   UNL     1       2.927   6.434  10.833  0.00  0.00    +0.000 NA
ATOM     28  C   UNL     1       2.510   5.223  10.651  0.00  0.00    +0.000 A 
ATOM     29  N   UNL     1       2.847   4.421   9.578  0.00  0.00    +0.000 N 
ATOM     30  C   UNL     1       3.652   4.849   8.552  0.00  0.00    +0.000 A 
ATOM     31  O   UNL     1       3.891   4.155   7.565  0.00  0.00    +0.000 OA
ATOM     32  C   UNL     1       4.165   6.178   8.733  0.00  0.00    +0.000 A 
ATOM     33  H   UNL     1       2.476   3.487   9.499  0.00  0.00    +0.000 HD
ENDBRANCH  20  23
ENDBRANCH  18  19
ENDBRANCH   4  18
TORSDOF 6
