REMARK  Name = 
REMARK  9 active torsions:
REMARK  status: ('A' for Active; 'I' for Inactive)
REMARK    1  A    between atoms: C_1  and  C_2
REMARK    2  A    between atoms: C_2  and  O_3
REMARK    3  A    between atoms: O_3  and  C_4
REMARK    4  A    between atoms: C_6  and  C_7
REMARK    5  A    between atoms: C_12  and  N_13
REMARK    6  A    between atoms: N_13  and  C_14
REMARK    7  A    between atoms: C_14  and  C_15
REMARK    8  A    between atoms: C_15  and  C_16
REMARK    9  A    between atoms: C_19  and  C_20
REMARK                            x       y       z     vdW  Elec       q    Type
REMARK                         _______ _______ _______ _____ _____    ______ ____
ROOT
ATOM      1  C   UNL     1       4.307  -1.312   0.707  0.00  0.00    +0.000 A 
ATOM      2  C   UNL     1       5.277  -0.393   1.117  0.00  0.00    +0.000 A 
ATOM      3  C   UNL     1       6.623  -0.745   1.160  0.00  0.00    +0.000 A 
ATOM      4  C   UNL     1       6.946  -2.029   0.763  0.00  0.00    +0.000 A 
ATOM      5  N   UNL     1       6.034  -2.950   0.345  0.00  0.00    +0.000 NA
ATOM      6  C   UNL     1       4.723  -2.604   0.320  0.00  0.00    +0.000 A 
ENDROOT
BRANCH   3   7
ATOM      7  C   UNL     1       7.588   0.280   1.628  0.00  0.00    +0.000 C 
ATOM      8  N   UNL     1       8.913  -0.032   1.710  0.00  0.00    +0.000 N 
ATOM      9  O   UNL     1       7.212   1.402   1.948  0.00  0.00    +0.000 OA
ATOM     10  H   UNL     1       9.330  -0.925   1.497  0.00  0.00    +0.000 HD
ATOM     11  H   UNL     1       9.521   0.703   2.051  0.00  0.00    +0.000 HD
ENDBRANCH   3   7
BRANCH   6  12
ATOM     12  N   UNL     1       3.888  -3.625  -0.080  0.00  0.00    +0.000 N 
ATOM     13  H   UNL     1       4.378  -4.453  -0.398  0.00  0.00    +0.000 HD
BRANCH  12  14
ATOM     14  C   UNL     1       2.454  -3.489  -0.239  0.00  0.00    +0.000 C 
BRANCH  14  15
ATOM     15  C   UNL     1       1.775  -4.787  -0.683  0.00  0.00    +0.000 C 
BRANCH  15  16
ATOM     16  C   UNL     1       0.274  -4.596  -0.790  0.00  0.00    +0.000 A 
ATOM     17  C   UNL     1      -0.305  -4.140  -1.983  0.00  0.00    +0.000 A 
ATOM     18  C   UNL     1      -1.688  -3.950  -2.076  0.00  0.00    +0.000 A 
ATOM     19  C   UNL     1      -2.510  -4.209  -0.975  0.00  0.00    +0.000 A 
ATOM     20  C   UNL     1      -1.937  -4.637   0.226  0.00  0.00    +0.000 A 
ATOM     21  C   UNL     1      -0.554  -4.824   0.319  0.00  0.00    +0.000 A 
BRANCH  19  22
ATOM     22  C   UNL     1      -3.933  -4.042  -1.079  0.00  0.00    +0.000 C 
ATOM     23  N   UNL     1      -5.081  -3.911  -1.164  0.00  0.00    +0.000 NA
ENDBRANCH  19  22
ENDBRANCH  15  16
ENDBRANCH  14  15
ENDBRANCH  12  14
ENDBRANCH   6  12
BRANCH   1  24
ATOM     24  O   UNL     1       2.972  -0.994   0.651  0.00  0.00    +0.000 OA
BRANCH  24  26
ATOM     25  C   UNL     1       1.057   0.361   1.113  0.00  0.00    +0.000 C 
ATOM     26  C   UNL     1       2.569   0.268   1.179  0.00  0.00    +0.000 C 
ENDBRANCH  24  26
ENDBRANCH   1  24
TORSDOF 8
