REMARK  Name = 
REMARK  8 active torsions:
REMARK  status: ('A' for Active; 'I' for Inactive)
REMARK    1  A    between atoms: C_1  and  O_2
REMARK    2  A    between atoms: O_2  and  C_3
REMARK    3  A    between atoms: C_8  and  C_9
REMARK    4  A    between atoms: N_11  and  C_12
REMARK    5  A    between atoms: C_12  and  C_13
REMARK    6  A    between atoms: C_16  and  C_17
REMARK    7  A    between atoms: C_17  and  N_18
REMARK    8  A    between atoms: C_19  and  C_21
REMARK                            x       y       z     vdW  Elec       q    Type
REMARK                         _______ _______ _______ _____ _____    ______ ____
ROOT
ATOM      1  C   UNL     1       3.268  -4.322   0.287  0.00  0.00    +0.000 C 
ATOM      2  C   UNL     1       3.308  -3.614   1.650  0.00  0.00    +0.000 C 
ATOM      3  C   UNL     1       2.497  -4.357   2.713  0.00  0.00    +0.000 C 
ATOM      4  C   UNL     1       2.957  -5.815   2.871  0.00  0.00    +0.000 C 
ATOM      5  C   UNL     1       2.901  -6.530   1.511  0.00  0.00    +0.000 C 
ATOM      6  C   UNL     1       3.696  -5.792   0.435  0.00  0.00    +0.000 C 
ENDROOT
BRANCH   1   7
ATOM      7  C   UNL     1       4.171  -3.620  -0.747  0.00  0.00    +0.000 C 
BRANCH   7  10
ATOM      8  C   UNL     1       2.846  -1.884  -1.931  0.00  0.00    +0.000 C 
ATOM      9  O   UNL     1       2.301  -2.708  -2.661  0.00  0.00    +0.000 OA
ATOM     10  N   UNL     1       3.787  -2.246  -0.995  0.00  0.00    +0.000 N 
ATOM     11  H   UNL     1       4.191  -1.513  -0.422  0.00  0.00    +0.000 HD
BRANCH   8  17
ATOM     12  C   UNL     1       2.991   0.596  -1.204  0.00  0.00    +0.000 A 
ATOM     13  C   UNL     1       2.520   1.909  -1.372  0.00  0.00    +0.000 A 
ATOM     14  C   UNL     1       1.550   2.209  -2.332  0.00  0.00    +0.000 A 
ATOM     15  C   UNL     1       1.046   1.204  -3.148  0.00  0.00    +0.000 A 
ATOM     16  C   UNL     1       1.508  -0.103  -2.997  0.00  0.00    +0.000 A 
ATOM     17  C   UNL     1       2.476  -0.429  -2.026  0.00  0.00    +0.000 A 
BRANCH  12  19
ATOM     18  C   UNL     1       4.117   1.133   0.830  0.00  0.00    +0.000 C 
ATOM     19  O   UNL     1       3.973   0.276  -0.298  0.00  0.00    +0.000 OA
ENDBRANCH  12  19
ENDBRANCH   8  17
ENDBRANCH   7  10
ENDBRANCH   1   7
BRANCH   4  20
ATOM     20  C   UNL     1       2.108  -6.581   3.902  0.00  0.00    +0.000 C 
BRANCH  20  21
ATOM     21  N   UNL     1       2.172  -6.011   5.233  0.00  0.00    +0.000 N 
ATOM     22  C   UNL     1       3.208  -6.264   6.098  0.00  0.00    +0.000 C 
ATOM     23  O   UNL     1       4.149  -6.991   5.791  0.00  0.00    +0.000 OA
ATOM     24  H   UNL     1       1.357  -5.503   5.562  0.00  0.00    +0.000 HD
BRANCH  22  25
ATOM     25  C   UNL     1       3.174  -5.570   7.392  0.00  0.00    +0.000 A 
ATOM     26  C   UNL     1       4.354  -5.409   8.108  0.00  0.00    +0.000 A 
ATOM     27  S   UNL     1       4.159  -4.558   9.572  0.00  0.00    +0.000 S 
ATOM     28  C   UNL     1       2.483  -4.416   9.330  0.00  0.00    +0.000 A 
ATOM     29  N   UNL     1       1.696  -3.801  10.255  0.00  0.00    +0.000 NA
ATOM     30  C   UNL     1       0.439  -3.797   9.967  0.00  0.00    +0.000 A 
ATOM     31  N   UNL     1      -0.103  -4.344   8.833  0.00  0.00    +0.000 N 
ATOM     32  C   UNL     1       0.657  -4.928   7.846  0.00  0.00    +0.000 A 
ATOM     33  O   UNL     1       0.149  -5.328   6.803  0.00  0.00    +0.000 OA
ATOM     34  C   UNL     1       2.080  -4.988   8.137  0.00  0.00    +0.000 A 
ATOM     35  H   UNL     1      -1.097  -4.292   8.660  0.00  0.00    +0.000 HD
ENDBRANCH  22  25
ENDBRANCH  20  21
ENDBRANCH   4  20
TORSDOF 7
