REMARK  Name = 
REMARK  6 active torsions:
REMARK  status: ('A' for Active; 'I' for Inactive)
REMARK    1  A    between atoms: C_2  and  C_3
REMARK    2  A    between atoms: C_6  and  O_7
REMARK    3  A    between atoms: O_7  and  C_8
REMARK    4  A    between atoms: C_8  and  C_9
REMARK    5  A    between atoms: C_13  and  N_14
REMARK    6  A    between atoms: C_17  and  N_18
REMARK                            x       y       z     vdW  Elec       q    Type
REMARK                         _______ _______ _______ _____ _____    ______ ____
ROOT
ATOM      1  C   UNL     1      -5.797   1.058  -0.156  0.00  0.00    +0.000 A 
ATOM      2  C   UNL     1      -6.668   2.136  -0.192  0.00  0.00    +0.000 A 
ATOM      3  N   UNL     1      -8.010   2.019  -0.274  0.00  0.00    +0.000 NA
ATOM      4  C   UNL     1      -8.507   0.757  -0.344  0.00  0.00    +0.000 A 
ATOM      5  C   UNL     1      -7.743  -0.410  -0.354  0.00  0.00    +0.000 A 
ATOM      6  C   UNL     1      -6.359  -0.221  -0.221  0.00  0.00    +0.000 A 
ENDROOT
BRANCH   5   7
ATOM      7  N   UNL     1      -8.250  -1.705  -0.471  0.00  0.00    +0.000 N 
ATOM      8  C   UNL     1      -9.666  -1.961  -0.175  0.00  0.00    +0.000 C 
ATOM      9  C   UNL     1      -9.846  -3.452   0.126  0.00  0.00    +0.000 C 
ATOM     10  C   UNL     1      -9.272  -4.360  -0.973  0.00  0.00    +0.000 C 
ATOM     11  C   UNL     1      -7.834  -3.951  -1.304  0.00  0.00    +0.000 C 
ATOM     12  C   UNL     1      -7.730  -2.464  -1.623  0.00  0.00    +0.000 C 
BRANCH  10  13
ATOM     13  N   UNL     1     -10.104  -4.363  -2.179  0.00  0.00    +0.000 NA
ATOM     14  H   UNL     1     -10.212  -3.423  -2.551  0.00  0.00    +0.000 HD
ATOM     15  H   UNL     1     -11.046  -4.685  -1.947  0.00  0.00    +0.000 HD
ENDBRANCH  10  13
ENDBRANCH   5   7
BRANCH   1  16
ATOM     16  C   UNL     1      -4.310   1.260  -0.098  0.00  0.00    +0.000 C 
BRANCH  16  17
ATOM     17  O   UNL     1      -3.857   1.372   1.256  0.00  0.00    +0.000 OA
BRANCH  17  21
ATOM     18  C   UNL     1       0.200   2.081   1.446  0.00  0.00    +0.000 A 
ATOM     19  C   UNL     1      -0.535   1.994   2.626  0.00  0.00    +0.000 A 
ATOM     20  C   UNL     1      -1.911   1.748   2.560  0.00  0.00    +0.000 A 
ATOM     21  C   UNL     1      -2.495   1.603   1.311  0.00  0.00    +0.000 A 
ATOM     22  N   UNL     1      -1.797   1.684   0.156  0.00  0.00    +0.000 NA
ATOM     23  C   UNL     1      -0.470   1.921   0.245  0.00  0.00    +0.000 A 
BRANCH  18  25
ATOM     24  N   UNL     1       2.749   2.541   1.435  0.00  0.00    +0.000 NA
ATOM     25  C   UNL     1       1.607   2.336   1.449  0.00  0.00    +0.000 C 
ENDBRANCH  18  25
ENDBRANCH  17  21
ENDBRANCH  16  17
ENDBRANCH   1  16
TORSDOF 6
