REMARK  Name = 
REMARK  6 active torsions:
REMARK  status: ('A' for Active; 'I' for Inactive)
REMARK    1  A    between atoms: N_1  and  C_2
REMARK    2  A    between atoms: C_2  and  C_3
REMARK    3  A    between atoms: C_3  and  C_4
REMARK    4  A    between atoms: C_8  and  C_9
REMARK    5  A    between atoms: C_9  and  N_10
REMARK    6  A    between atoms: C_15  and  C_16
REMARK                            x       y       z     vdW  Elec       q    Type
REMARK                         _______ _______ _______ _____ _____    ______ ____
ROOT
ATOM      1  N   UNL     1       8.594  -3.379   1.596  0.00  0.00    +0.000 N 
ATOM      2  N   UNL     1       8.656  -4.461   0.780  0.00  0.00    +0.000 NA
ATOM      3  N   UNL     1       9.612  -5.255   1.240  0.00  0.00    +0.000 NA
ATOM      4  C   UNL     1      10.271  -4.592   2.235  0.00  0.00    +0.000 A 
ATOM      5  C   UNL     1      11.307  -5.011   3.079  0.00  0.00    +0.000 A 
ATOM      6  C   UNL     1      11.855  -4.097   3.993  0.00  0.00    +0.000 A 
ATOM      7  C   UNL     1      11.377  -2.775   4.031  0.00  0.00    +0.000 A 
ATOM      8  C   UNL     1      10.288  -2.360   3.239  0.00  0.00    +0.000 A 
ATOM      9  C   UNL     1       9.739  -3.315   2.377  0.00  0.00    +0.000 A 
ENDROOT
BRANCH   6  10
ATOM     10  C   UNL     1      12.916  -4.620   4.906  0.00  0.00    +0.000 C 
ATOM     11  N   UNL     1      13.526  -3.762   5.778  0.00  0.00    +0.000 N 
ATOM     12  O   UNL     1      13.239  -5.800   4.896  0.00  0.00    +0.000 OA
ATOM     13  H   UNL     1      13.358  -2.775   5.848  0.00  0.00    +0.000 HD
ATOM     14  H   UNL     1      14.235  -4.168   6.378  0.00  0.00    +0.000 HD
ENDBRANCH   6  10
BRANCH   1  15
ATOM     15  C   UNL     1       7.261  -2.992   2.052  0.00  0.00    +0.000 C 
BRANCH  15  20
ATOM     16  C   UNL     1       5.650  -0.377  -0.206  0.00  0.00    +0.000 A 
ATOM     17  C   UNL     1       5.268   0.584   0.740  0.00  0.00    +0.000 A 
ATOM     18  C   UNL     1       5.616   0.428   2.081  0.00  0.00    +0.000 A 
ATOM     19  C   UNL     1       6.334  -0.696   2.490  0.00  0.00    +0.000 A 
ATOM     20  C   UNL     1       6.726  -1.674   1.561  0.00  0.00    +0.000 A 
ATOM     21  C   UNL     1       6.402  -1.488   0.207  0.00  0.00    +0.000 A 
BRANCH  16  22
ATOM     22  C   UNL     1       5.211  -0.254  -1.646  0.00  0.00    +0.000 C 
BRANCH  22  23
ATOM     23  C   UNL     1       6.189   0.564  -2.493  0.00  0.00    +0.000 C 
BRANCH  23  24
ATOM     24  N   UNL     1       5.735   0.635  -3.882  0.00  0.00    +0.000 NA
ATOM     25  H   UNL     1       6.387   1.204  -4.421  0.00  0.00    +0.000 HD
ATOM     26  H   UNL     1       4.833   1.106  -3.929  0.00  0.00    +0.000 HD
ENDBRANCH  23  24
ENDBRANCH  22  23
ENDBRANCH  16  22
ENDBRANCH  15  20
ENDBRANCH   1  15
TORSDOF 6
