REMARK  Name = 
REMARK  4 active torsions:
REMARK  status: ('A' for Active; 'I' for Inactive)
REMARK    1  A    between atoms: C_2  and  C_4
REMARK    2  A    between atoms: C_7  and  N_8
REMARK    3  A    between atoms: N_8  and  C_9
REMARK    4  A    between atoms: C_9  and  C_10
REMARK                            x       y       z     vdW  Elec       q    Type
REMARK                         _______ _______ _______ _____ _____    ______ ____
ROOT
ATOM      1  C   UNL     1       2.997   1.296  -0.309  0.00  0.00    +0.000 A 
ATOM      2  C   UNL     1       2.373   2.454  -0.786  0.00  0.00    +0.000 A 
ATOM      3  C   UNL     1       3.140   3.572  -1.144  0.00  0.00    +0.000 A 
ATOM      4  C   UNL     1       4.534   3.545  -1.038  0.00  0.00    +0.000 A 
ATOM      5  C   UNL     1       5.148   2.371  -0.580  0.00  0.00    +0.000 A 
ATOM      6  C   UNL     1       4.390   1.263  -0.197  0.00  0.00    +0.000 A 
ENDROOT
BRANCH   1   8
ATOM      7  N   UNL     1       1.018  -0.115  -0.486  0.00  0.00    +0.000 N 
ATOM      8  C   UNL     1       2.231   0.095   0.113  0.00  0.00    +0.000 C 
ATOM      9  O   UNL     1       2.676  -0.702   0.927  0.00  0.00    +0.000 OA
ATOM     10  H   UNL     1       0.566  -0.995  -0.272  0.00  0.00    +0.000 HD
ATOM     11  H   UNL     1       0.746   0.361  -1.332  0.00  0.00    +0.000 HD
ENDBRANCH   1   8
BRANCH   4  12
ATOM     12  N   UNL     1       5.366   4.619  -1.406  0.00  0.00    +0.000 N 
ATOM     13  H   UNL     1       5.906   4.391  -2.235  0.00  0.00    +0.000 HD
BRANCH  12  14
ATOM     14  C   UNL     1       4.966   6.025  -1.259  0.00  0.00    +0.000 C 
ATOM     15  C   UNL     1       5.801   6.884  -0.318  0.00  0.00    +0.000 C 
ATOM     16  O   UNL     1       4.507   6.409   0.049  0.00  0.00    +0.000 OA
BRANCH  14  17
ATOM     17  C   UNL     1       4.359   6.723  -2.461  0.00  0.00    +0.000 A 
ATOM     18  C   UNL     1       3.057   7.255  -2.423  0.00  0.00    +0.000 A 
ATOM     19  C   UNL     1       2.526   7.974  -3.497  0.00  0.00    +0.000 A 
ATOM     20  C   UNL     1       3.288   8.172  -4.644  0.00  0.00    +0.000 A 
ATOM     21  C   UNL     1       4.573   7.641  -4.720  0.00  0.00    +0.000 A 
ATOM     22  C   UNL     1       5.099   6.925  -3.640  0.00  0.00    +0.000 A 
ENDBRANCH  14  17
ENDBRANCH  12  14
ENDBRANCH   4  12
TORSDOF 4
