REMARK  Name = 
REMARK  7 active torsions:
REMARK  status: ('A' for Active; 'I' for Inactive)
REMARK    1  A    between atoms: C_2  and  C_3
REMARK    2  A    between atoms: C_3  and  N_4
REMARK    3  A    between atoms: C_3  and  C_17
REMARK    4  A    between atoms: C_5  and  C_7
REMARK    5  A    between atoms: C_20  and  C_21
REMARK    6  A    between atoms: C_21  and  N_22
REMARK    7  A    between atoms: C_23  and  C_25
REMARK                            x       y       z     vdW  Elec       q    Type
REMARK                         _______ _______ _______ _____ _____    ______ ____
ROOT
ATOM      1  C   UNL     1       3.777   0.036  -0.093  0.00  0.00    +0.000 C 
ENDROOT
BRANCH   1   2
ATOM      2  C   UNL     1       4.175  -0.701   1.174  0.00  0.00    +0.000 A 
ATOM      3  C   UNL     1       4.513   0.004   2.338  0.00  0.00    +0.000 A 
ATOM      4  C   UNL     1       4.804  -0.681   3.522  0.00  0.00    +0.000 A 
ATOM      5  C   UNL     1       4.766  -2.081   3.563  0.00  0.00    +0.000 A 
ATOM      6  C   UNL     1       4.447  -2.785   2.396  0.00  0.00    +0.000 A 
ATOM      7  C   UNL     1       4.174  -2.106   1.211  0.00  0.00    +0.000 A 
BRANCH   5   8
ATOM      8  C   UNL     1       5.049  -2.840   4.834  0.00  0.00    +0.000 C 
BRANCH   8   9
ATOM      9  N   UNL     1       3.859  -3.085   5.608  0.00  0.00    +0.000 N 
ATOM     10  C   UNL     1       3.083  -4.212   5.458  0.00  0.00    +0.000 C 
ATOM     11  O   UNL     1       3.340  -5.118   4.673  0.00  0.00    +0.000 OA
ATOM     12  H   UNL     1       3.425  -2.334   6.138  0.00  0.00    +0.000 HD
BRANCH  10  13
ATOM     13  C   UNL     1       1.861  -4.259   6.384  0.00  0.00    +0.000 C 
ATOM     14  C   UNL     1       0.569  -4.331   5.597  0.00  0.00    +0.000 C 
ATOM     15  C   UNL     1      -0.466  -3.911   6.621  0.00  0.00    +0.000 C 
ATOM     16  C   UNL     1       0.272  -2.949   7.543  0.00  0.00    +0.000 C 
ATOM     17  N   UNL     1       1.694  -3.013   7.179  0.00  0.00    +0.000 NA
ATOM     18  H   UNL     1       2.265  -3.074   8.023  0.00  0.00    +0.000 HD
ENDBRANCH  10  13
ENDBRANCH   8   9
ENDBRANCH   5   8
ENDBRANCH   1   2
BRANCH   1  19
ATOM     19  N   UNL     1       2.426  -0.337  -0.474  0.00  0.00    +0.000 N 
ATOM     20  C   UNL     1       1.603   0.484  -1.190  0.00  0.00    +0.000 C 
ATOM     21  O   UNL     1       1.944   1.616  -1.521  0.00  0.00    +0.000 OA
ATOM     22  H   UNL     1       2.044  -1.173  -0.044  0.00  0.00    +0.000 HD
BRANCH  20  23
ATOM     23  C   UNL     1       0.302  -0.078  -1.574  0.00  0.00    +0.000 A 
ATOM     24  C   UNL     1      -0.363   0.399  -2.696  0.00  0.00    +0.000 A 
ATOM     25  S   UNL     1      -1.860  -0.371  -2.980  0.00  0.00    +0.000 S 
ATOM     26  C   UNL     1      -1.688  -1.343  -1.594  0.00  0.00    +0.000 A 
ATOM     27  N   UNL     1      -2.658  -2.218  -1.222  0.00  0.00    +0.000 NA
ATOM     28  C   UNL     1      -2.405  -2.867  -0.133  0.00  0.00    +0.000 A 
ATOM     29  N   UNL     1      -1.263  -2.728   0.610  0.00  0.00    +0.000 N 
ATOM     30  C   UNL     1      -0.231  -1.901   0.240  0.00  0.00    +0.000 A 
ATOM     31  O   UNL     1       0.821  -1.876   0.866  0.00  0.00    +0.000 OA
ATOM     32  C   UNL     1      -0.485  -1.107  -0.949  0.00  0.00    +0.000 A 
ATOM     33  H   UNL     1      -1.110  -3.289   1.435  0.00  0.00    +0.000 HD
ENDBRANCH  20  23
ENDBRANCH   1  19
BRANCH   1  35
ATOM     34  N   UNL     1       5.600  -0.511  -2.121  0.00  0.00    +0.000 NA
ATOM     35  C   UNL     1       4.773  -0.263  -1.202  0.00  0.00    +0.000 C 
ENDBRANCH   1  35
TORSDOF 7
