REMARK  Name = 
REMARK  8 active torsions:
REMARK  status: ('A' for Active; 'I' for Inactive)
REMARK    1  A    between atoms: C_2  and  C_21
REMARK    2  A    between atoms: N_3  and  C_4
REMARK    3  A    between atoms: C_4  and  C_5
REMARK    4  A    between atoms: C_8  and  C_9
REMARK    5  A    between atoms: C_9  and  C_10
REMARK    6  A    between atoms: C_9  and  C_12
REMARK    7  A    between atoms: C_10  and  O_11
REMARK    8  A    between atoms: C_12  and  C_13
REMARK                            x       y       z     vdW  Elec       q    Type
REMARK                         _______ _______ _______ _____ _____    ______ ____
ROOT
ATOM      1  C   UNL     1       5.096  -2.088   9.730  0.00  0.00    +0.000 A 
ATOM      2  C   UNL     1       5.787  -3.281   9.555  0.00  0.00    +0.000 A 
ATOM      3  N   UNL     1       5.999  -3.843   8.338  0.00  0.00    +0.000 NA
ATOM      4  C   UNL     1       5.459  -3.189   7.276  0.00  0.00    +0.000 A 
ATOM      5  C   UNL     1       4.726  -2.020   7.465  0.00  0.00    +0.000 A 
ATOM      6  N   UNL     1       4.538  -1.446   8.674  0.00  0.00    +0.000 NA
ENDROOT
BRANCH   1   7
ATOM      7  C   UNL     1       4.897  -1.499  11.099  0.00  0.00    +0.000 C 
BRANCH   7  10
ATOM      8  O   UNL     1       4.209  -1.090  13.744  0.00  0.00    +0.000 OA
ATOM      9  C   UNL     1       3.408  -1.688  13.030  0.00  0.00    +0.000 C 
ATOM     10  N   UNL     1       3.704  -2.014  11.731  0.00  0.00    +0.000 N 
ATOM     11  H   UNL     1       2.943  -2.264  11.105  0.00  0.00    +0.000 HD
BRANCH   9  12
ATOM     12  C   UNL     1       2.105  -2.127  13.542  0.00  0.00    +0.000 A 
ATOM     13  C   UNL     1       1.915  -2.270  14.909  0.00  0.00    +0.000 A 
ATOM     14  S   UNL     1       0.344  -2.782  15.331  0.00  0.00    +0.000 S 
ATOM     15  C   UNL     1      -0.152  -2.785  13.703  0.00  0.00    +0.000 A 
ATOM     16  N   UNL     1      -1.433  -3.096  13.365  0.00  0.00    +0.000 NA
ATOM     17  C   UNL     1      -1.681  -3.028  12.098  0.00  0.00    +0.000 A 
ATOM     18  N   UNL     1      -0.762  -2.690  11.141  0.00  0.00    +0.000 N 
ATOM     19  C   UNL     1       0.555  -2.424  11.431  0.00  0.00    +0.000 A 
ATOM     20  O   UNL     1       1.374  -2.218  10.543  0.00  0.00    +0.000 OA
ATOM     21  C   UNL     1       0.877  -2.443  12.846  0.00  0.00    +0.000 A 
ATOM     22  H   UNL     1      -1.013  -2.679  10.164  0.00  0.00    +0.000 HD
ENDBRANCH   9  12
ENDBRANCH   7  10
ENDBRANCH   1   7
BRANCH   4  23
ATOM     23  C   UNL     1       5.715  -3.728   5.877  0.00  0.00    +0.000 C 
BRANCH  23  24
ATOM     24  C   UNL     1       5.682  -5.274   5.873  0.00  0.00    +0.000 C 
BRANCH  24  25
ATOM     25  O   UNL     1       6.763  -5.849   6.601  0.00  0.00    +0.000 OA
ATOM     26  H   UNL     1       6.722  -5.441   7.494  0.00  0.00    +0.000 HD
ENDBRANCH  24  25
ENDBRANCH  23  24
BRANCH  23  27
ATOM     27  C   UNL     1       7.044  -3.210   5.271  0.00  0.00    +0.000 C 
BRANCH  27  28
ATOM     28  C   UNL     1       7.182  -1.678   5.151  0.00  0.00    +0.000 C 
ATOM     29  C   UNL     1       6.114  -1.031   4.256  0.00  0.00    +0.000 C 
ATOM     30  C   UNL     1       6.349   0.474   4.168  0.00  0.00    +0.000 C 
ATOM     31  O   UNL     1       7.647   0.747   3.647  0.00  0.00    +0.000 OA
ATOM     32  C   UNL     1       8.684   0.225   4.477  0.00  0.00    +0.000 C 
ATOM     33  C   UNL     1       8.567  -1.292   4.603  0.00  0.00    +0.000 C 
ENDBRANCH  27  28
ENDBRANCH  23  27
ENDBRANCH   4  23
TORSDOF 8
