REMARK  Name = 
REMARK  10 active torsions:
REMARK  status: ('A' for Active; 'I' for Inactive)
REMARK    1  A    between atoms: C_1  and  C_2
REMARK    2  A    between atoms: C_2  and  N_3
REMARK    3  A    between atoms: C_2  and  C_19
REMARK    4  A    between atoms: N_3  and  C_4
REMARK    5  A    between atoms: C_4  and  C_5
REMARK    6  A    between atoms: C_8  and  C_9
REMARK    7  A    between atoms: C_9  and  O_10
REMARK    8  A    between atoms: C_9  and  C_11
REMARK    9  A    between atoms: C_11  and  N_12
REMARK   10  A    between atoms: C_19  and  C_21
REMARK                            x       y       z     vdW  Elec       q    Type
REMARK                         _______ _______ _______ _____ _____    ______ ____
ROOT
ATOM      1  N   UNL     1       1.487  -1.581  -0.601  0.00  0.00    +0.000 NA
ATOM      2  H   UNL     1       1.980  -1.318  -1.454  0.00  0.00    +0.000 HD
ENDROOT
BRANCH   1   4
ATOM      3  C   UNL     1       2.072   0.644   0.379  0.00  0.00    +0.000 C 
ATOM      4  C   UNL     1       0.958  -0.347   0.028  0.00  0.00    +0.000 C 
BRANCH   4   5
ATOM      5  C   UNL     1       0.025  -0.624   1.235  0.00  0.00    +0.000 C 
ATOM      6  O   UNL     1       0.352  -0.268   2.368  0.00  0.00    +0.000 OA
BRANCH   5   7
ATOM      7  C   UNL     1      -1.249  -1.333   1.033  0.00  0.00    +0.000 A 
ATOM      8  C   UNL     1      -1.455  -2.325   0.085  0.00  0.00    +0.000 A 
ATOM      9  S   UNL     1      -2.952  -3.130   0.265  0.00  0.00    +0.000 S 
ATOM     10  C   UNL     1      -3.386  -2.144   1.582  0.00  0.00    +0.000 A 
ATOM     11  N   UNL     1      -4.547  -2.343   2.265  0.00  0.00    +0.000 NA
ATOM     12  C   UNL     1      -4.718  -1.531   3.257  0.00  0.00    +0.000 A 
ATOM     13  N   UNL     1      -3.864  -0.513   3.598  0.00  0.00    +0.000 N 
ATOM     14  C   UNL     1      -2.781  -0.160   2.811  0.00  0.00    +0.000 A 
ATOM     15  O   UNL     1      -2.263   0.946   2.895  0.00  0.00    +0.000 OA
ATOM     16  C   UNL     1      -2.446  -1.163   1.819  0.00  0.00    +0.000 A 
ATOM     17  H   UNL     1      -4.128   0.157   4.304  0.00  0.00    +0.000 HD
ENDBRANCH   5   7
ENDBRANCH   4   5
ENDBRANCH   1   4
BRANCH   1  18
ATOM     18  C   UNL     1       2.386  -2.379   0.235  0.00  0.00    +0.000 C 
BRANCH  18  19
ATOM     19  C   UNL     1       2.837  -3.624  -0.496  0.00  0.00    +0.000 A 
ATOM     20  C   UNL     1       3.588  -3.563  -1.673  0.00  0.00    +0.000 A 
ATOM     21  C   UNL     1       3.968  -4.738  -2.327  0.00  0.00    +0.000 A 
ATOM     22  C   UNL     1       3.595  -5.968  -1.787  0.00  0.00    +0.000 A 
ATOM     23  N   UNL     1       2.902  -6.048  -0.622  0.00  0.00    +0.000 NA
ATOM     24  C   UNL     1       2.532  -4.892  -0.018  0.00  0.00    +0.000 A 
BRANCH  22  25
ATOM     25  C   UNL     1       3.870  -7.279  -2.517  0.00  0.00    +0.000 C 
BRANCH  25  26
ATOM     26  O   UNL     1       3.198  -7.271  -3.787  0.00  0.00    +0.000 OA
ATOM     27  H   UNL     1       3.562  -6.541  -4.310  0.00  0.00    +0.000 HD
ENDBRANCH  25  26
BRANCH  25  28
ATOM     28  C   UNL     1       5.390  -7.587  -2.684  0.00  0.00    +0.000 C 
BRANCH  28  29
ATOM     29  N   UNL     1       5.718  -8.831  -3.422  0.00  0.00    +0.000 NA
ATOM     30  C   UNL     1       5.258 -10.059  -2.757  0.00  0.00    +0.000 C 
ATOM     31  C   UNL     1       6.399 -10.482  -1.853  0.00  0.00    +0.000 C 
ATOM     32  C   UNL     1       7.634 -10.091  -2.637  0.00  0.00    +0.000 C 
ATOM     33  C   UNL     1       7.172  -8.997  -3.595  0.00  0.00    +0.000 C 
ENDBRANCH  28  29
ENDBRANCH  25  28
ENDBRANCH  22  25
ENDBRANCH  18  19
ENDBRANCH   1  18
TORSDOF 9
