REMARK  Name = 
REMARK  7 active torsions:
REMARK  status: ('A' for Active; 'I' for Inactive)
REMARK    1  A    between atoms: C_1  and  C_2
REMARK    2  A    between atoms: C_2  and  C_3
REMARK    3  A    between atoms: C_2  and  C_15
REMARK    4  A    between atoms: C_3  and  O_4
REMARK    5  A    between atoms: O_4  and  C_5
REMARK    6  A    between atoms: C_8  and  C_9
REMARK    7  A    between atoms: C_19  and  C_20
REMARK                            x       y       z     vdW  Elec       q    Type
REMARK                         _______ _______ _______ _____ _____    ______ ____
ROOT
ATOM      1  O   UNL     1       2.637  -2.346   1.008  0.00  0.00    +0.000 OA
ENDROOT
BRANCH   1   2
ATOM      2  C   UNL     1       3.175  -3.599   1.102  0.00  0.00    +0.000 A 
ATOM      3  C   UNL     1       4.072  -4.168   0.197  0.00  0.00    +0.000 A 
ATOM      4  C   UNL     1       4.564  -5.458   0.411  0.00  0.00    +0.000 A 
ATOM      5  C   UNL     1       4.165  -6.195   1.534  0.00  0.00    +0.000 A 
ATOM      6  C   UNL     1       3.261  -5.620   2.427  0.00  0.00    +0.000 A 
ATOM      7  F   UNL     1       2.843  -6.283   3.517  0.00  0.00    +0.000 F 
ATOM      8  C   UNL     1       2.766  -4.334   2.216  0.00  0.00    +0.000 A 
BRANCH   5   9
ATOM      9  C   UNL     1       4.736  -7.554   1.714  0.00  0.00    +0.000 C 
ATOM     10  N   UNL     1       4.357  -8.274   2.808  0.00  0.00    +0.000 N 
ATOM     11  O   UNL     1       5.532  -8.022   0.907  0.00  0.00    +0.000 OA
ATOM     12  H   UNL     1       3.712  -7.923   3.505  0.00  0.00    +0.000 HD
ATOM     13  H   UNL     1       4.758  -9.192   2.932  0.00  0.00    +0.000 HD
ENDBRANCH   5   9
ENDBRANCH   1   2
BRANCH   1  14
ATOM     14  C   UNL     1       3.044  -1.564  -0.113  0.00  0.00    +0.000 C 
BRANCH  14  16
ATOM     15  C   UNL     1       2.660   0.730   0.977  0.00  0.00    +0.000 C 
ATOM     16  C   UNL     1       2.303  -0.264  -0.079  0.00  0.00    +0.000 C 
BRANCH  16  17
ATOM     17  C   UNL     1       1.059  -0.123  -0.847  0.00  0.00    +0.000 A 
ATOM     18  C   UNL     1       0.155  -1.191  -0.932  0.00  0.00    +0.000 A 
ATOM     19  C   UNL     1      -1.005  -1.090  -1.698  0.00  0.00    +0.000 A 
ATOM     20  C   UNL     1      -1.274   0.083  -2.398  0.00  0.00    +0.000 A 
ATOM     21  C   UNL     1      -0.388   1.162  -2.317  0.00  0.00    +0.000 A 
ATOM     22  C   UNL     1       0.773   1.060  -1.538  0.00  0.00    +0.000 A 
BRANCH  21  23
ATOM     23  C   UNL     1      -0.658   2.365  -3.044  0.00  0.00    +0.000 C 
ATOM     24  N   UNL     1      -0.877   3.340  -3.636  0.00  0.00    +0.000 NA
ENDBRANCH  21  23
ENDBRANCH  16  17
ENDBRANCH  14  16
ENDBRANCH   1  14
TORSDOF 6
