REMARK  Name = 
REMARK  7 active torsions:
REMARK  status: ('A' for Active; 'I' for Inactive)
REMARK    1  A    between atoms: C_2  and  C_4
REMARK    2  A    between atoms: C_7  and  N_8
REMARK    3  A    between atoms: N_8  and  C_9
REMARK    4  A    between atoms: C_9  and  C_10
REMARK    5  A    between atoms: C_10  and  C_13
REMARK    6  A    between atoms: C_15  and  N_16
REMARK    7  A    between atoms: C_23  and  C_24
REMARK                            x       y       z     vdW  Elec       q    Type
REMARK                         _______ _______ _______ _____ _____    ______ ____
ROOT
ATOM      1  C   UNL     1       5.884  -2.546  -6.847  0.00  0.00    +0.000 C 
ATOM      2  F   UNL     1       6.949  -1.772  -6.489  0.00  0.00    +0.000 F 
ATOM      3  F   UNL     1       6.319  -3.838  -6.733  0.00  0.00    +0.000 F 
ENDROOT
BRANCH   1   4
ATOM      4  C   UNL     1       5.390  -2.220  -8.245  0.00  0.00    +0.000 A 
ATOM      5  C   UNL     1       4.832  -3.226  -9.054  0.00  0.00    +0.000 A 
ATOM      6  C   UNL     1       4.302  -2.955 -10.322  0.00  0.00    +0.000 A 
ATOM      7  C   UNL     1       4.347  -1.625 -10.763  0.00  0.00    +0.000 A 
ATOM      8  C   UNL     1       4.875  -0.590  -9.972  0.00  0.00    +0.000 A 
ATOM      9  C   UNL     1       5.414  -0.903  -8.719  0.00  0.00    +0.000 A 
BRANCH   6  10
ATOM     10  N   UNL     1       3.731  -3.938 -11.100  0.00  0.00    +0.000 N 
ATOM     11  C   UNL     1       2.966  -5.057 -10.536  0.00  0.00    +0.000 C 
ATOM     12  C   UNL     1       3.567  -6.408 -10.978  0.00  0.00    +0.000 C 
ATOM     13  N   UNL     1       3.717  -6.530 -12.444  0.00  0.00    +0.000 NA
ATOM     14  C   UNL     1       4.537  -5.399 -12.930  0.00  0.00    +0.000 C 
ATOM     15  C   UNL     1       3.977  -4.006 -12.549  0.00  0.00    +0.000 C 
ATOM     16  H   UNL     1       2.791  -6.448 -12.863  0.00  0.00    +0.000 HD
ENDBRANCH   6  10
BRANCH   8  17
ATOM     17  C   UNL     1       4.810   0.845 -10.435  0.00  0.00    +0.000 C 
ATOM     18  F   UNL     1       4.196   1.005 -11.640  0.00  0.00    +0.000 F 
ATOM     19  F   UNL     1       4.120   1.630  -9.561  0.00  0.00    +0.000 F 
ATOM     20  F   UNL     1       6.039   1.414 -10.560  0.00  0.00    +0.000 F 
ENDBRANCH   8  17
ENDBRANCH   1   4
BRANCH   1  21
ATOM     21  C   UNL     1       4.730  -2.333  -5.832  0.00  0.00    +0.000 C 
BRANCH  21  22
ATOM     22  N   UNL     1       5.108  -2.609  -4.437  0.00  0.00    +0.000 N 
ATOM     23  H   UNL     1       5.757  -3.386  -4.318  0.00  0.00    +0.000 HD
BRANCH  22  27
ATOM     24  C   UNL     1       2.443  -2.072  -1.211  0.00  0.00    +0.000 A 
ATOM     25  C   UNL     1       2.004  -1.823  -2.512  0.00  0.00    +0.000 A 
ATOM     26  C   UNL     1       2.873  -2.013  -3.593  0.00  0.00    +0.000 A 
ATOM     27  C   UNL     1       4.180  -2.484  -3.407  0.00  0.00    +0.000 A 
ATOM     28  C   UNL     1       4.610  -2.703  -2.090  0.00  0.00    +0.000 A 
ATOM     29  C   UNL     1       3.756  -2.495  -1.000  0.00  0.00    +0.000 A 
BRANCH  24  31
ATOM     30  N   UNL     1       0.215  -2.013  -0.231  0.00  0.00    +0.000 N 
ATOM     31  C   UNL     1       1.559  -1.861  -0.035  0.00  0.00    +0.000 C 
ATOM     32  O   UNL     1       2.010  -1.598   1.073  0.00  0.00    +0.000 OA
ATOM     33  H   UNL     1      -0.364  -1.975   0.596  0.00  0.00    +0.000 HD
ATOM     34  H   UNL     1      -0.166  -2.468  -1.051  0.00  0.00    +0.000 HD
ENDBRANCH  24  31
ENDBRANCH  22  27
ENDBRANCH  21  22
ENDBRANCH   1  21
TORSDOF 7
