REMARK  Name = 
REMARK  5 active torsions:
REMARK  status: ('A' for Active; 'I' for Inactive)
REMARK    1  A    between atoms: C_2  and  C_4
REMARK    2  A    between atoms: C_7  and  C_8
REMARK    3  A    between atoms: C_8  and  O_9
REMARK    4  A    between atoms: O_9  and  C_10
REMARK    5  A    between atoms: C_14  and  C_15
REMARK                            x       y       z     vdW  Elec       q    Type
REMARK                         _______ _______ _______ _____ _____    ______ ____
ROOT
ATOM      1  O   UNL     1       5.486  -4.828   3.097  0.00  0.00    +0.000 OA
ENDROOT
BRANCH   1   2
ATOM      2  C   UNL     1       5.959  -5.730   4.008  0.00  0.00    +0.000 A 
ATOM      3  C   UNL     1       6.514  -5.434   5.249  0.00  0.00    +0.000 A 
ATOM      4  C   UNL     1       6.969  -6.469   6.065  0.00  0.00    +0.000 A 
ATOM      5  C   UNL     1       6.859  -7.799   5.649  0.00  0.00    +0.000 A 
ATOM      6  C   UNL     1       6.282  -8.132   4.411  0.00  0.00    +0.000 A 
ATOM      7  C   UNL     1       5.854  -7.066   3.601  0.00  0.00    +0.000 A 
BRANCH   6   8
ATOM      8  C   UNL     1       6.095  -9.541   3.991  0.00  0.00    +0.000 A 
ATOM      9  C   UNL     1       6.186  -9.930   2.639  0.00  0.00    +0.000 A 
ATOM     10  C   UNL     1       5.963 -11.254   2.239  0.00  0.00    +0.000 A 
ATOM     11  C   UNL     1       5.659 -12.224   3.187  0.00  0.00    +0.000 A 
ATOM     12  C   UNL     1       5.575 -11.860   4.523  0.00  0.00    +0.000 A 
ATOM     13  F   UNL     1       5.280 -12.788   5.442  0.00  0.00    +0.000 F 
ATOM     14  C   UNL     1       5.783 -10.543   4.926  0.00  0.00    +0.000 A 
ENDBRANCH   6   8
ENDBRANCH   1   2
BRANCH   1  15
ATOM     15  C   UNL     1       5.370  -3.470   3.516  0.00  0.00    +0.000 C 
BRANCH  15  19
ATOM     16  C   UNL     1       3.632  -1.058   0.475  0.00  0.00    +0.000 A 
ATOM     17  C   UNL     1       3.228  -2.384   0.547  0.00  0.00    +0.000 A 
ATOM     18  C   UNL     1       3.789  -3.188   1.536  0.00  0.00    +0.000 A 
ATOM     19  C   UNL     1       4.740  -2.655   2.415  0.00  0.00    +0.000 A 
ATOM     20  C   UNL     1       5.054  -1.305   2.273  0.00  0.00    +0.000 A 
ATOM     21  N   UNL     1       4.534  -0.492   1.326  0.00  0.00    +0.000 NA
BRANCH  16  23
ATOM     22  N   UNL     1       3.578   1.100  -0.624  0.00  0.00    +0.000 N 
ATOM     23  C   UNL     1       3.075  -0.171  -0.596  0.00  0.00    +0.000 C 
ATOM     24  O   UNL     1       2.236  -0.552  -1.404  0.00  0.00    +0.000 OA
ATOM     25  H   UNL     1       3.271   1.743  -1.340  0.00  0.00    +0.000 HD
ATOM     26  H   UNL     1       4.292   1.370   0.044  0.00  0.00    +0.000 HD
ENDBRANCH  16  23
ENDBRANCH  15  19
ENDBRANCH   1  15
TORSDOF 5
