REMARK  Name = 
REMARK  6 active torsions:
REMARK  status: ('A' for Active; 'I' for Inactive)
REMARK    1  A    between atoms: N_1  and  C_2
REMARK    2  A    between atoms: C_2  and  C_3
REMARK    3  A    between atoms: C_3  and  C_4
REMARK    4  A    between atoms: C_7  and  C_8
REMARK    5  A    between atoms: C_8  and  N_9
REMARK    6  A    between atoms: C_15  and  C_16
REMARK                            x       y       z     vdW  Elec       q    Type
REMARK                         _______ _______ _______ _____ _____    ______ ____
ROOT
ATOM      1  N   UNL     1       9.793   0.433  -1.809  0.00  0.00    +0.000 N 
ATOM      2  C   UNL     1      10.697  -0.532  -1.418  0.00  0.00    +0.000 A 
ATOM      3  C   UNL     1      11.885  -0.277  -2.064  0.00  0.00    +0.000 A 
ATOM      4  C   UNL     1      11.658   0.776  -2.989  0.00  0.00    +0.000 A 
ATOM      5  C   UNL     1      12.480   1.463  -3.892  0.00  0.00    +0.000 A 
ATOM      6  N   UNL     1      11.960   2.373  -4.744  0.00  0.00    +0.000 NA
ATOM      7  C   UNL     1      10.615   2.607  -4.703  0.00  0.00    +0.000 A 
ATOM      8  C   UNL     1       9.731   2.035  -3.791  0.00  0.00    +0.000 A 
ATOM      9  C   UNL     1      10.303   1.115  -2.903  0.00  0.00    +0.000 A 
ENDROOT
BRANCH   7  10
ATOM     10  C   UNL     1      10.103   3.551  -5.752  0.00  0.00    +0.000 C 
ATOM     11  N   UNL     1      11.072   4.099  -6.555  0.00  0.00    +0.000 N 
ATOM     12  O   UNL     1       8.917   3.813  -5.907  0.00  0.00    +0.000 OA
ATOM     13  H   UNL     1      12.036   3.806  -6.429  0.00  0.00    +0.000 HD
ATOM     14  H   UNL     1      10.808   4.694  -7.325  0.00  0.00    +0.000 HD
ENDBRANCH   7  10
BRANCH   1  15
ATOM     15  C   UNL     1       8.743   0.926  -0.914  0.00  0.00    +0.000 C 
BRANCH  15  19
ATOM     16  C   UNL     1       4.712   0.212  -2.107  0.00  0.00    +0.000 A 
ATOM     17  C   UNL     1       5.333  -0.696  -1.248  0.00  0.00    +0.000 A 
ATOM     18  C   UNL     1       6.662  -0.496  -0.871  0.00  0.00    +0.000 A 
ATOM     19  C   UNL     1       7.338   0.624  -1.349  0.00  0.00    +0.000 A 
ATOM     20  N   UNL     1       6.733   1.542  -2.142  0.00  0.00    +0.000 NA
ATOM     21  C   UNL     1       5.451   1.317  -2.506  0.00  0.00    +0.000 A 
BRANCH  16  22
ATOM     22  C   UNL     1       3.314  -0.009  -2.616  0.00  0.00    +0.000 C 
BRANCH  22  23
ATOM     23  C   UNL     1       2.238   0.600  -1.718  0.00  0.00    +0.000 C 
BRANCH  23  24
ATOM     24  N   UNL     1       0.907   0.345  -2.279  0.00  0.00    +0.000 NA
ATOM     25  H   UNL     1       0.193   0.752  -1.667  0.00  0.00    +0.000 HD
ATOM     26  H   UNL     1       0.725  -0.657  -2.298  0.00  0.00    +0.000 HD
ENDBRANCH  23  24
ENDBRANCH  22  23
ENDBRANCH  16  22
ENDBRANCH  15  19
ENDBRANCH   1  15
TORSDOF 6
