REMARK  Name = 
REMARK  7 active torsions:
REMARK  status: ('A' for Active; 'I' for Inactive)
REMARK    1  A    between atoms: C_1  and  C_2
REMARK    2  A    between atoms: C_4  and  C_5
REMARK    3  A    between atoms: C_10  and  N_11
REMARK    4  A    between atoms: N_11  and  C_12
REMARK    5  A    between atoms: C_12  and  C_13
REMARK    6  A    between atoms: C_16  and  O_17
REMARK    7  A    between atoms: O_17  and  C_18
REMARK                            x       y       z     vdW  Elec       q    Type
REMARK                         _______ _______ _______ _____ _____    ______ ____
ROOT
ATOM      1  N   UNL     1       0.999  -1.973   0.135  0.00  0.00    +0.000 N 
ATOM      2  H   UNL     1       0.921  -1.131  -0.419  0.00  0.00    +0.000 HD
ENDROOT
BRANCH   1   9
ATOM      3  C   UNL     1      -1.644  -0.796  -0.164  0.00  0.00    +0.000 C 
ATOM      4  C   UNL     1      -1.160  -1.427   1.110  0.00  0.00    +0.000 A 
ATOM      5  C   UNL     1      -2.036  -1.464   2.209  0.00  0.00    +0.000 A 
ATOM      6  C   UNL     1      -1.663  -2.091   3.395  0.00  0.00    +0.000 A 
ATOM      7  C   UNL     1      -0.410  -2.675   3.416  0.00  0.00    +0.000 A 
ATOM      8  N   UNL     1       0.472  -2.643   2.377  0.00  0.00    +0.000 NA
ATOM      9  C   UNL     1       0.116  -2.002   1.238  0.00  0.00    +0.000 A 
BRANCH   6  10
ATOM     10  C   UNL     1      -2.620  -2.084   4.530  0.00  0.00    +0.000 C 
ATOM     11  N   UNL     1      -2.272  -2.681   5.708  0.00  0.00    +0.000 N 
ATOM     12  O   UNL     1      -3.715  -1.540   4.431  0.00  0.00    +0.000 OA
ATOM     13  H   UNL     1      -1.401  -3.144   5.909  0.00  0.00    +0.000 HD
ATOM     14  H   UNL     1      -2.957  -2.626   6.454  0.00  0.00    +0.000 HD
ENDBRANCH   6  10
ENDBRANCH   1   9
BRANCH   1  15
ATOM     15  C   UNL     1       2.313  -2.641   0.151  0.00  0.00    +0.000 C 
ATOM     16  C   UNL     1       3.332  -2.336   1.235  0.00  0.00    +0.000 C 
ATOM     17  C   UNL     1       3.570  -1.820  -0.142  0.00  0.00    +0.000 C 
BRANCH  15  18
ATOM     18  C   UNL     1       2.288  -4.012  -0.509  0.00  0.00    +0.000 A 
ATOM     19  C   UNL     1       2.245  -4.148  -1.912  0.00  0.00    +0.000 A 
ATOM     20  C   UNL     1       2.283  -5.408  -2.530  0.00  0.00    +0.000 A 
ATOM     21  C   UNL     1       2.394  -6.553  -1.755  0.00  0.00    +0.000 A 
ATOM     22  C   UNL     1       2.368  -6.441  -0.364  0.00  0.00    +0.000 A 
ATOM     23  C   UNL     1       2.312  -5.187   0.250  0.00  0.00    +0.000 A 
BRANCH  21  24
ATOM     24  O   UNL     1       2.479  -7.831  -2.213  0.00  0.00    +0.000 OA
BRANCH  24  25
ATOM     25  C   UNL     1       3.114  -8.087  -3.458  0.00  0.00    +0.000 C 
ATOM     26  F   UNL     1       3.764  -7.029  -3.982  0.00  0.00    +0.000 F 
ATOM     27  F   UNL     1       4.019  -9.078  -3.278  0.00  0.00    +0.000 F 
ATOM     28  F   UNL     1       2.193  -8.519  -4.346  0.00  0.00    +0.000 F 
ENDBRANCH  24  25
ENDBRANCH  21  24
ENDBRANCH  15  18
ENDBRANCH   1  15
TORSDOF 6
