REMARK  Name = 
REMARK  8 active torsions:
REMARK  status: ('A' for Active; 'I' for Inactive)
REMARK    1  A    between atoms: C_1  and  O_2
REMARK    2  A    between atoms: O_2  and  C_3
REMARK    3  A    between atoms: C_5  and  C_6
REMARK    4  A    between atoms: C_6  and  N_7
REMARK    5  A    between atoms: C_8  and  C_10
REMARK    6  A    between atoms: C_17  and  C_18
REMARK    7  A    between atoms: C_18  and  N_19
REMARK    8  A    between atoms: C_20  and  C_22
REMARK                            x       y       z     vdW  Elec       q    Type
REMARK                         _______ _______ _______ _____ _____    ______ ____
ROOT
ATOM      1  C   UNL     1       2.989   1.117   0.469  0.00  0.00    +0.000 A 
ATOM      2  C   UNL     1       2.605   1.783   1.636  0.00  0.00    +0.000 A 
ATOM      3  C   UNL     1       3.322   2.893   2.093  0.00  0.00    +0.000 A 
ATOM      4  C   UNL     1       4.402   3.306   1.328  0.00  0.00    +0.000 A 
ATOM      5  N   UNL     1       4.818   2.683   0.202  0.00  0.00    +0.000 NA
ATOM      6  C   UNL     1       4.125   1.581  -0.209  0.00  0.00    +0.000 A 
ENDROOT
BRANCH   1   8
ATOM      7  C   UNL     1       0.975  -0.122   0.360  0.00  0.00    +0.000 C 
ATOM      8  O   UNL     1       2.341   0.017  -0.027  0.00  0.00    +0.000 OA
ENDBRANCH   1   8
BRANCH   3   9
ATOM      9  C   UNL     1       2.935   3.597   3.360  0.00  0.00    +0.000 C 
BRANCH   9  10
ATOM     10  N   UNL     1       1.964   4.637   3.143  0.00  0.00    +0.000 N 
ATOM     11  C   UNL     1       0.609   4.435   3.257  0.00  0.00    +0.000 C 
ATOM     12  O   UNL     1       0.096   3.346   3.487  0.00  0.00    +0.000 OA
ATOM     13  H   UNL     1       2.256   5.586   2.927  0.00  0.00    +0.000 HD
BRANCH  11  14
ATOM     14  C   UNL     1      -0.163   5.668   3.089  0.00  0.00    +0.000 A 
ATOM     15  C   UNL     1      -1.537   5.798   3.135  0.00  0.00    +0.000 A 
ATOM     16  N   UNL     1      -1.788   7.127   2.942  0.00  0.00    +0.000 N 
ATOM     17  C   UNL     1      -0.585   7.757   2.790  0.00  0.00    +0.000 A 
ATOM     18  N   UNL     1       0.418   6.911   2.869  0.00  0.00    +0.000 NA
ATOM     19  H   UNL     1      -2.697   7.571   2.919  0.00  0.00    +0.000 HD
ENDBRANCH  11  14
ENDBRANCH   9  10
ENDBRANCH   3   9
BRANCH   6  20
ATOM     20  C   UNL     1       4.605   0.937  -1.495  0.00  0.00    +0.000 C 
BRANCH  20  21
ATOM     21  N   UNL     1       4.017   1.571  -2.659  0.00  0.00    +0.000 N 
ATOM     22  C   UNL     1       4.291   1.170  -3.938  0.00  0.00    +0.000 C 
ATOM     23  O   UNL     1       5.176   0.361  -4.205  0.00  0.00    +0.000 OA
ATOM     24  H   UNL     1       3.206   2.148  -2.479  0.00  0.00    +0.000 HD
BRANCH  22  25
ATOM     25  C   UNL     1       3.472   1.790  -4.987  0.00  0.00    +0.000 A 
ATOM     26  C   UNL     1       3.962   1.924  -6.278  0.00  0.00    +0.000 A 
ATOM     27  S   UNL     1       2.855   2.655  -7.354  0.00  0.00    +0.000 S 
ATOM     28  C   UNL     1       1.666   2.775  -6.141  0.00  0.00    +0.000 A 
ATOM     29  N   UNL     1       0.436   3.286  -6.410  0.00  0.00    +0.000 NA
ATOM     30  C   UNL     1      -0.377   3.281  -5.407  0.00  0.00    +0.000 A 
ATOM     31  N   UNL     1      -0.066   2.825  -4.151  0.00  0.00    +0.000 N 
ATOM     32  C   UNL     1       1.180   2.354  -3.821  0.00  0.00    +0.000 A 
ATOM     33  O   UNL     1       1.444   2.051  -2.664  0.00  0.00    +0.000 OA
ATOM     34  C   UNL     1       2.119   2.298  -4.925  0.00  0.00    +0.000 A 
ATOM     35  H   UNL     1      -0.736   2.876  -3.399  0.00  0.00    +0.000 HD
ENDBRANCH  22  25
ENDBRANCH  20  21
ENDBRANCH   6  20
TORSDOF 7
