REMARK  Name = 
REMARK  8 active torsions:
REMARK  status: ('A' for Active; 'I' for Inactive)
REMARK    1  A    between atoms: C_1  and  O_2
REMARK    2  A    between atoms: O_2  and  C_3
REMARK    3  A    between atoms: C_7  and  C_8
REMARK    4  A    between atoms: N_10  and  C_11
REMARK    5  A    between atoms: C_11  and  C_12
REMARK    6  A    between atoms: C_15  and  C_16
REMARK    7  A    between atoms: C_16  and  N_17
REMARK    8  A    between atoms: C_18  and  C_20
REMARK                            x       y       z     vdW  Elec       q    Type
REMARK                         _______ _______ _______ _____ _____    ______ ____
ROOT
ATOM      1  C   UNL     1       7.827   3.362  -5.674  0.00  0.00    +0.000 C 
ATOM      2  C   UNL     1       9.323   3.636  -5.441  0.00  0.00    +0.000 C 
ATOM      3  C   UNL     1       9.796   4.935  -6.101  0.00  0.00    +0.000 C 
ATOM      4  C   UNL     1       8.967   6.149  -5.654  0.00  0.00    +0.000 C 
ATOM      5  C   UNL     1       7.482   5.888  -5.931  0.00  0.00    +0.000 C 
ATOM      6  C   UNL     1       6.999   4.598  -5.264  0.00  0.00    +0.000 C 
ENDROOT
BRANCH   1   7
ATOM      7  C   UNL     1       7.379   2.074  -4.933  0.00  0.00    +0.000 C 
BRANCH   7  10
ATOM      8  C   UNL     1       7.673   0.059  -6.427  0.00  0.00    +0.000 C 
ATOM      9  O   UNL     1       6.656   0.259  -7.087  0.00  0.00    +0.000 OA
ATOM     10  N   UNL     1       8.076   0.871  -5.379  0.00  0.00    +0.000 N 
ATOM     11  H   UNL     1       8.902   0.563  -4.866  0.00  0.00    +0.000 HD
BRANCH   8  16
ATOM     12  C   UNL     1      10.444  -2.317  -6.103  0.00  0.00    +0.000 A 
ATOM     13  C   UNL     1      10.228  -3.295  -7.062  0.00  0.00    +0.000 A 
ATOM     14  C   UNL     1       9.127  -3.145  -7.899  0.00  0.00    +0.000 A 
ATOM     15  C   UNL     1       8.274  -2.046  -7.729  0.00  0.00    +0.000 A 
ATOM     16  C   UNL     1       8.560  -1.130  -6.721  0.00  0.00    +0.000 A 
ATOM     17  N   UNL     1       9.637  -1.239  -5.917  0.00  0.00    +0.000 NA
BRANCH  12  19
ATOM     18  C   UNL     1      11.623  -1.359  -4.342  0.00  0.00    +0.000 C 
ATOM     19  O   UNL     1      11.531  -2.448  -5.265  0.00  0.00    +0.000 OA
ENDBRANCH  12  19
ENDBRANCH   8  16
ENDBRANCH   7  10
ENDBRANCH   1   7
BRANCH   4  20
ATOM     20  C   UNL     1       9.394   7.453  -6.353  0.00  0.00    +0.000 C 
BRANCH  20  21
ATOM     21  N   UNL     1      10.768   7.808  -6.094  0.00  0.00    +0.000 N 
ATOM     22  C   UNL     1      11.124   8.568  -5.010  0.00  0.00    +0.000 C 
ATOM     23  O   UNL     1      10.303   8.984  -4.194  0.00  0.00    +0.000 OA
ATOM     24  H   UNL     1      11.418   7.735  -6.871  0.00  0.00    +0.000 HD
BRANCH  22  25
ATOM     25  C   UNL     1      12.554   8.813  -4.837  0.00  0.00    +0.000 A 
ATOM     26  C   UNL     1      13.076   9.008  -3.567  0.00  0.00    +0.000 A 
ATOM     27  S   UNL     1      14.764   9.256  -3.563  0.00  0.00    +0.000 S 
ATOM     28  C   UNL     1      14.840   9.148  -5.261  0.00  0.00    +0.000 A 
ATOM     29  N   UNL     1      16.018   9.301  -5.923  0.00  0.00    +0.000 NA
ATOM     30  C   UNL     1      15.920   9.222  -7.209  0.00  0.00    +0.000 A 
ATOM     31  N   UNL     1      14.754   8.999  -7.895  0.00  0.00    +0.000 N 
ATOM     32  C   UNL     1      13.543   8.817  -7.267  0.00  0.00    +0.000 A 
ATOM     33  O   UNL     1      12.525   8.576  -7.907  0.00  0.00    +0.000 OA
ATOM     34  C   UNL     1      13.600   8.908  -5.821  0.00  0.00    +0.000 A 
ATOM     35  H   UNL     1      14.746   8.934  -8.900  0.00  0.00    +0.000 HD
ENDBRANCH  22  25
ENDBRANCH  20  21
ENDBRANCH   4  20
TORSDOF 7
