REMARK  Name = 
REMARK  7 active torsions:
REMARK  status: ('A' for Active; 'I' for Inactive)
REMARK    1  A    between atoms: C_2  and  C_19
REMARK    2  A    between atoms: N_3  and  C_4
REMARK    3  A    between atoms: C_4  and  C_5
REMARK    4  A    between atoms: N_8  and  C_9
REMARK    5  A    between atoms: C_9  and  C_10
REMARK    6  A    between atoms: C_10  and  C_11
REMARK    7  A    between atoms: C_11  and  N_12
REMARK                            x       y       z     vdW  Elec       q    Type
REMARK                         _______ _______ _______ _____ _____    ______ ____
ROOT
ATOM      1  O   UNL     1       1.646   0.963  -0.018  0.00  0.00    +0.000 OA
ATOM      2  C   UNL     1       1.413   1.230   1.158  0.00  0.00    +0.000 C 
ATOM      3  N   UNL     1       1.778   0.393   2.183  0.00  0.00    +0.000 N 
ATOM      4  H   UNL     1       1.423   0.582   3.115  0.00  0.00    +0.000 HD
ENDROOT
BRANCH   2   5
ATOM      5  C   UNL     1       0.735   2.476   1.537  0.00  0.00    +0.000 A 
ATOM      6  C   UNL     1       0.684   3.528   0.634  0.00  0.00    +0.000 A 
ATOM      7  S   UNL     1      -0.195   4.876   1.201  0.00  0.00    +0.000 S 
ATOM      8  C   UNL     1      -0.571   4.084   2.659  0.00  0.00    +0.000 A 
ATOM      9  N   UNL     1      -1.376   4.672   3.584  0.00  0.00    +0.000 NA
ATOM     10  C   UNL     1      -1.593   3.955   4.636  0.00  0.00    +0.000 A 
ATOM     11  N   UNL     1      -1.059   2.713   4.857  0.00  0.00    +0.000 N 
ATOM     12  C   UNL     1      -0.210   2.098   3.970  0.00  0.00    +0.000 A 
ATOM     13  O   UNL     1       0.314   1.021   4.239  0.00  0.00    +0.000 OA
ATOM     14  C   UNL     1       0.021   2.835   2.741  0.00  0.00    +0.000 A 
ATOM     15  H   UNL     1      -1.237   2.221   5.720  0.00  0.00    +0.000 HD
ENDBRANCH   2   5
BRANCH   3  16
ATOM     16  C   UNL     1       2.247  -0.953   1.945  0.00  0.00    +0.000 C 
BRANCH  16  17
ATOM     17  C   UNL     1       3.163  -1.445   3.078  0.00  0.00    +0.000 C 
ATOM     18  C   UNL     1       4.463  -0.641   3.183  0.00  0.00    +0.000 C 
ATOM     19  C   UNL     1       5.405  -0.894   2.004  0.00  0.00    +0.000 C 
ATOM     20  N   UNL     1       5.681  -2.324   1.776  0.00  0.00    +0.000 NA
ATOM     21  C   UNL     1       4.446  -3.122   1.677  0.00  0.00    +0.000 C 
ATOM     22  C   UNL     1       3.529  -2.920   2.884  0.00  0.00    +0.000 C 
BRANCH  20  23
ATOM     23  C   UNL     1       6.483  -2.524   0.553  0.00  0.00    +0.000 C 
BRANCH  23  24
ATOM     24  C   UNL     1       7.885  -1.913   0.618  0.00  0.00    +0.000 C 
BRANCH  24  25
ATOM     25  C   UNL     1       8.711  -2.488   1.765  0.00  0.00    +0.000 C 
BRANCH  25  26
ATOM     26  N   UNL     1      10.014  -1.858   1.839  0.00  0.00    +0.000 N 
ATOM     27  C   UNL     1      11.144  -2.250   1.180  0.00  0.00    +0.000 A 
ATOM     28  C   UNL     1      12.096  -1.325   1.536  0.00  0.00    +0.000 A 
ATOM     29  N   UNL     1      11.575  -0.395   2.400  0.00  0.00    +0.000 NA
ATOM     30  C   UNL     1      10.320  -0.744   2.568  0.00  0.00    +0.000 A 
ENDBRANCH  25  26
ENDBRANCH  24  25
ENDBRANCH  23  24
ENDBRANCH  20  23
ENDBRANCH  16  17
ENDBRANCH   3  16
TORSDOF 7
