REMARK  Name = 
REMARK  9 active torsions:
REMARK  status: ('A' for Active; 'I' for Inactive)
REMARK    1  A    between atoms: C_1  and  O_2
REMARK    2  A    between atoms: O_2  and  C_3
REMARK    3  A    between atoms: C_10  and  C_11
REMARK    4  A    between atoms: N_13  and  C_14
REMARK    5  A    between atoms: C_14  and  C_15
REMARK    6  A    between atoms: C_18  and  C_19
REMARK    7  A    between atoms: C_19  and  O_20
REMARK    8  A    between atoms: O_20  and  C_21
REMARK    9  A    between atoms: C_21  and  C_22
REMARK                            x       y       z     vdW  Elec       q    Type
REMARK                         _______ _______ _______ _____ _____    ______ ____
ROOT
ATOM      1  C   UNL     1       3.239  -3.238  -0.587  0.00  0.00    +0.000 C 
ENDROOT
BRANCH   1   2
ATOM      2  C   UNL     1       2.194  -3.346   0.497  0.00  0.00    +0.000 A 
ATOM      3  C   UNL     1       1.561  -4.568   0.760  0.00  0.00    +0.000 A 
ATOM      4  C   UNL     1       0.539  -4.651   1.713  0.00  0.00    +0.000 A 
ATOM      5  C   UNL     1       0.118  -3.512   2.413  0.00  0.00    +0.000 A 
ATOM      6  C   UNL     1       0.765  -2.295   2.162  0.00  0.00    +0.000 A 
ATOM      7  C   UNL     1       1.790  -2.212   1.214  0.00  0.00    +0.000 A 
BRANCH   5   8
ATOM      8  C   UNL     1      -1.034  -3.585   3.384  0.00  0.00    +0.000 C 
BRANCH   8   9
ATOM      9  O   UNL     1      -0.709  -4.472   4.449  0.00  0.00    +0.000 OA
BRANCH   9  10
ATOM     10  C   UNL     1      -1.751  -4.532   5.420  0.00  0.00    +0.000 C 
BRANCH  10  11
ATOM     11  C   UNL     1      -1.319  -5.458   6.518  0.00  0.00    +0.000 A 
ATOM     12  C   UNL     1      -2.054  -6.595   6.840  0.00  0.00    +0.000 A 
ATOM     13  N   UNL     1      -1.715  -7.468   7.817  0.00  0.00    +0.000 NA
ATOM     14  C   UNL     1      -0.577  -7.197   8.502  0.00  0.00    +0.000 A 
ATOM     15  C   UNL     1       0.222  -6.090   8.263  0.00  0.00    +0.000 A 
ATOM     16 CL   UNL     1       1.646  -5.813   9.179  0.00  0.00    +0.000 Cl
ATOM     17  C   UNL     1      -0.158  -5.207   7.260  0.00  0.00    +0.000 A 
ENDBRANCH  10  11
ENDBRANCH   9  10
ENDBRANCH   8   9
ENDBRANCH   5   8
ENDBRANCH   1   2
BRANCH   1  20
ATOM     18  C   UNL     1       3.361  -2.719  -2.995  0.00  0.00    +0.000 C 
ATOM     19  O   UNL     1       4.582  -2.851  -2.995  0.00  0.00    +0.000 OA
ATOM     20  N   UNL     1       2.630  -2.902  -1.853  0.00  0.00    +0.000 N 
ATOM     21  H   UNL     1       1.621  -2.852  -1.884  0.00  0.00    +0.000 HD
BRANCH  18  29
ATOM     22  C   UNL     1       0.026  -2.224  -3.717  0.00  0.00    +0.000 A 
ATOM     23  N   UNL     1      -1.169  -1.877  -4.236  0.00  0.00    +0.000 NA
ATOM     24  C   UNL     1      -1.203  -1.432  -5.495  0.00  0.00    +0.000 A 
ATOM     25  N   UNL     1      -0.173  -1.302  -6.326  0.00  0.00    +0.000 NA
ATOM     26  C   UNL     1       0.999  -1.650  -5.768  0.00  0.00    +0.000 A 
ATOM     27  S   UNL     1       2.422  -1.564  -6.690  0.00  0.00    +0.000 S 
ATOM     28  C   UNL     1       3.364  -2.086  -5.375  0.00  0.00    +0.000 A 
ATOM     29  C   UNL     1       2.632  -2.325  -4.216  0.00  0.00    +0.000 A 
ATOM     30  C   UNL     1       1.209  -2.100  -4.468  0.00  0.00    +0.000 A 
BRANCH  22  32
ATOM     31  C   UNL     1      -1.206  -2.803  -1.799  0.00  0.00    +0.000 C 
ATOM     32  O   UNL     1       0.067  -2.725  -2.433  0.00  0.00    +0.000 OA
ENDBRANCH  22  32
ENDBRANCH  18  29
ENDBRANCH   1  20
TORSDOF 8
