REMARK  Name = 
REMARK  8 active torsions:
REMARK  status: ('A' for Active; 'I' for Inactive)
REMARK    1  A    between atoms: C_1  and  O_2
REMARK    2  A    between atoms: O_2  and  C_3
REMARK    3  A    between atoms: C_3  and  C_5
REMARK    4  A    between atoms: N_9  and  C_10
REMARK    5  A    between atoms: C_10  and  C_11
REMARK    6  A    between atoms: C_11  and  O_12
REMARK    7  A    between atoms: C_11  and  C_13
REMARK    8  A    between atoms: C_17  and  C_18
REMARK                            x       y       z     vdW  Elec       q    Type
REMARK                         _______ _______ _______ _____ _____    ______ ____
ROOT
ATOM      1  C   UNL     1       4.649   1.088   0.021  0.00  0.00    +0.000 A 
ATOM      2  C   UNL     1       5.197   2.293   0.453  0.00  0.00    +0.000 A 
ATOM      3  C   UNL     1       6.584   2.455   0.447  0.00  0.00    +0.000 A 
ATOM      4  C   UNL     1       7.398   1.430  -0.031  0.00  0.00    +0.000 A 
ATOM      5  N   UNL     1       8.779   1.662  -0.073  0.00  0.00    +0.000 N 
ATOM      6  N   UNL     1       6.880   0.260  -0.455  0.00  0.00    +0.000 NA
ATOM      7  C   UNL     1       5.529   0.105  -0.407  0.00  0.00    +0.000 A 
ATOM      8  H   UNL     1       9.144   1.751   0.875  0.00  0.00    +0.000 HD
ENDROOT
BRANCH   1   9
ATOM      9  C   UNL     1       3.196   0.810  -0.008  0.00  0.00    +0.000 C 
ATOM     10  O   UNL     1       2.720  -0.260  -0.348  0.00  0.00    +0.000 OA
BRANCH   9  12
ATOM     11  C   UNL     1       1.083   1.732   0.402  0.00  0.00    +0.000 C 
ATOM     12  O   UNL     1       2.501   1.904   0.392  0.00  0.00    +0.000 OA
ENDBRANCH   9  12
ENDBRANCH   1   9
BRANCH   5  13
ATOM     13  C   UNL     1       9.546   0.705  -0.877  0.00  0.00    +0.000 C 
BRANCH  13  14
ATOM     14  C   UNL     1      11.064   0.927  -0.671  0.00  0.00    +0.000 C 
BRANCH  14  15
ATOM     15  C   UNL     1      11.914   0.122  -1.634  0.00  0.00    +0.000 A 
ATOM     16  C   UNL     1      11.802  -1.275  -1.726  0.00  0.00    +0.000 A 
ATOM     17  C   UNL     1      12.587  -2.001  -2.623  0.00  0.00    +0.000 A 
ATOM     18  C   UNL     1      13.505  -1.342  -3.440  0.00  0.00    +0.000 A 
ATOM     19  C   UNL     1      13.632   0.046  -3.367  0.00  0.00    +0.000 A 
ATOM     20  C   UNL     1      12.842   0.773  -2.466  0.00  0.00    +0.000 A 
BRANCH  19  21
ATOM     21  C   UNL     1      14.573   0.727  -4.209  0.00  0.00    +0.000 C 
ATOM     22  N   UNL     1      15.332   1.277  -4.898  0.00  0.00    +0.000 NA
ENDBRANCH  19  21
ENDBRANCH  14  15
BRANCH  14  23
ATOM     23  O   UNL     1      11.426   0.592   0.677  0.00  0.00    +0.000 OA
ATOM     24  H   UNL     1      11.291  -0.364   0.787  0.00  0.00    +0.000 HD
ENDBRANCH  14  23
ENDBRANCH  13  14
ENDBRANCH   5  13
TORSDOF 7
