REMARK  Name = 
REMARK  6 active torsions:
REMARK  status: ('A' for Active; 'I' for Inactive)
REMARK    1  A    between atoms: C_2  and  C_4
REMARK    2  A    between atoms: N_8  and  C_9
REMARK    3  A    between atoms: C_9  and  C_10
REMARK    4  A    between atoms: C_10  and  C_13
REMARK    5  A    between atoms: C_17  and  O_18
REMARK    6  A    between atoms: O_18  and  C_19
REMARK                            x       y       z     vdW  Elec       q    Type
REMARK                         _______ _______ _______ _____ _____    ______ ____
ROOT
ATOM      1  C   UNL     1       6.015   7.143  -0.679  0.00  0.00    +0.000 C 
ATOM      2  F   UNL     1       7.255   6.657  -0.371  0.00  0.00    +0.000 F 
ATOM      3  F   UNL     1       6.017   7.284  -2.039  0.00  0.00    +0.000 F 
ENDROOT
BRANCH   1   4
ATOM      4  C   UNL     1       5.742   8.461   0.001  0.00  0.00    +0.000 A 
ATOM      5  C   UNL     1       6.304   8.760   1.235  0.00  0.00    +0.000 A 
ATOM      6  N   UNL     1       6.089   9.918   1.898  0.00  0.00    +0.000 NA
ATOM      7  C   UNL     1       5.297  10.834   1.289  0.00  0.00    +0.000 A 
ATOM      8  C   UNL     1       4.707  10.647   0.047  0.00  0.00    +0.000 A 
ATOM      9  C   UNL     1       4.918   9.430  -0.592  0.00  0.00    +0.000 A 
BRANCH   8  10
ATOM     10  O   UNL     1       3.916  11.653  -0.438  0.00  0.00    +0.000 OA
BRANCH  10  11
ATOM     11  C   UNL     1       3.940  11.911  -1.865  0.00  0.00    +0.000 C 
ATOM     12  C   UNL     1       3.105  13.140  -2.297  0.00  0.00    +0.000 C 
ATOM     13  C   UNL     1       2.579  12.341  -3.492  0.00  0.00    +0.000 C 
ATOM     14  C   UNL     1       3.023  11.048  -2.787  0.00  0.00    +0.000 C 
ATOM     15  F   UNL     1       3.670  10.160  -3.578  0.00  0.00    +0.000 F 
ATOM     16  F   UNL     1       2.040  10.359  -2.163  0.00  0.00    +0.000 F 
ENDBRANCH  10  11
ENDBRANCH   8  10
ENDBRANCH   1   4
BRANCH   1  17
ATOM     17  C   UNL     1       4.965   6.067  -0.289  0.00  0.00    +0.000 C 
BRANCH  17  22
ATOM     18  C   UNL     1       2.810   1.430  -0.526  0.00  0.00    +0.000 A 
ATOM     19  C   UNL     1       2.221   2.666  -0.278  0.00  0.00    +0.000 A 
ATOM     20  C   UNL     1       2.985   3.825  -0.427  0.00  0.00    +0.000 A 
ATOM     21  C   UNL     1       4.321   3.730  -0.802  0.00  0.00    +0.000 A 
ATOM     22  N   UNL     1       5.113   4.828  -1.063  0.00  0.00    +0.000 N 
ATOM     23  N   UNL     1       4.909   2.536  -1.010  0.00  0.00    +0.000 NA
ATOM     24  C   UNL     1       4.153   1.414  -0.864  0.00  0.00    +0.000 A 
ATOM     25  H   UNL     1       6.071   4.508  -1.209  0.00  0.00    +0.000 HD
BRANCH  18  27
ATOM     26  N   UNL     1       0.717   0.210  -0.683  0.00  0.00    +0.000 N 
ATOM     27  C   UNL     1       2.065   0.157  -0.448  0.00  0.00    +0.000 C 
ATOM     28  O   UNL     1       2.630  -0.906  -0.223  0.00  0.00    +0.000 OA
ATOM     29  H   UNL     1       0.238  -0.680  -0.743  0.00  0.00    +0.000 HD
ATOM     30  H   UNL     1       0.271   1.006  -1.119  0.00  0.00    +0.000 HD
ENDBRANCH  18  27
ENDBRANCH  17  22
ENDBRANCH   1  17
TORSDOF 6
