REMARK  Name = 
REMARK  6 active torsions:
REMARK  status: ('A' for Active; 'I' for Inactive)
REMARK    1  A    between atoms: C_1  and  C_2
REMARK    2  A    between atoms: C_2  and  C_3
REMARK    3  A    between atoms: C_7  and  C_8
REMARK    4  A    between atoms: C_8  and  C_9
REMARK    5  A    between atoms: C_9  and  N_10
REMARK    6  A    between atoms: C_14  and  C_15
REMARK                            x       y       z     vdW  Elec       q    Type
REMARK                         _______ _______ _______ _____ _____    ______ ____
ROOT
ATOM      1  C   UNL     1       4.441   2.686  -3.855  0.00  0.00    +0.000 C 
ENDROOT
BRANCH   1   6
ATOM      2  C   UNL     1       3.043   0.086  -1.411  0.00  0.00    +0.000 A 
ATOM      3  C   UNL     1       2.741  -0.953  -2.314  0.00  0.00    +0.000 A 
ATOM      4  C   UNL     1       3.013  -0.837  -3.679  0.00  0.00    +0.000 A 
ATOM      5  C   UNL     1       3.594   0.324  -4.180  0.00  0.00    +0.000 A 
ATOM      6  C   UNL     1       3.915   1.374  -3.316  0.00  0.00    +0.000 A 
ATOM      7  C   UNL     1       3.641   1.243  -1.943  0.00  0.00    +0.000 A 
BRANCH   2   9
ATOM      8  C   UNL     1       1.096  -0.108   0.150  0.00  0.00    +0.000 C 
ATOM      9  C   UNL     1       2.631  -0.050   0.065  0.00  0.00    +0.000 C 
ATOM     10  C   UNL     1       3.278  -1.271   0.749  0.00  0.00    +0.000 C 
ATOM     11  C   UNL     1       4.485  -0.732   1.516  0.00  0.00    +0.000 C 
ATOM     12  C   UNL     1       4.457   0.769   1.311  0.00  0.00    +0.000 C 
ATOM     13  N   UNL     1       3.074   1.041   0.952  0.00  0.00    +0.000 NA
ATOM     14  H   UNL     1       2.940   1.956   0.535  0.00  0.00    +0.000 HD
ENDBRANCH   2   9
ENDBRANCH   1   6
BRANCH   1  15
ATOM     15  C   UNL     1       3.274   3.644  -4.113  0.00  0.00    +0.000 C 
BRANCH  15  16
ATOM     16  N   UNL     1       3.740   4.947  -4.601  0.00  0.00    +0.000 N 
ATOM     17  C   UNL     1       2.669   5.826  -4.862  0.00  0.00    +0.000 A 
ATOM     18  C   UNL     1       2.943   7.100  -5.349  0.00  0.00    +0.000 A 
ATOM     19  C   UNL     1       1.885   7.977  -5.613  0.00  0.00    +0.000 A 
ATOM     20  C   UNL     1       0.570   7.568  -5.384  0.00  0.00    +0.000 A 
ATOM     21  C   UNL     1       0.392   6.293  -4.879  0.00  0.00    +0.000 A 
ATOM     22  N   UNL     1       1.403   5.432  -4.615  0.00  0.00    +0.000 NA
ATOM     23  H   UNL     1       4.303   4.866  -5.444  0.00  0.00    +0.000 HD
BRANCH  20  24
ATOM     24  C   UNL     1      -0.554   8.488  -5.686  0.00  0.00    +0.000 C 
ATOM     25  N   UNL     1      -1.837   8.061  -5.478  0.00  0.00    +0.000 N 
ATOM     26  O   UNL     1      -0.346   9.611  -6.125  0.00  0.00    +0.000 OA
ATOM     27  H   UNL     1      -2.118   7.159  -5.129  0.00  0.00    +0.000 HD
ATOM     28  H   UNL     1      -2.572   8.717  -5.710  0.00  0.00    +0.000 HD
ENDBRANCH  20  24
ENDBRANCH  15  16
ENDBRANCH   1  15
TORSDOF 5
