REMARK  Name = 
REMARK  5 active torsions:
REMARK  status: ('A' for Active; 'I' for Inactive)
REMARK    1  A    between atoms: C_2  and  C_4
REMARK    2  A    between atoms: C_7  and  O_8
REMARK    3  A    between atoms: O_8  and  C_9
REMARK    4  A    between atoms: C_9  and  C_10
REMARK    5  A    between atoms: C_15  and  C_16
REMARK                            x       y       z     vdW  Elec       q    Type
REMARK                         _______ _______ _______ _____ _____    ______ ____
ROOT
ATOM      1  C   UNL     1       5.085   3.956   4.260  0.00  0.00    +0.000 C 
ENDROOT
BRANCH   1   2
ATOM      2  C   UNL     1       6.036   4.944   4.897  0.00  0.00    +0.000 A 
ATOM      3  C   UNL     1       5.762   6.314   4.829  0.00  0.00    +0.000 A 
ATOM      4  C   UNL     1       6.602   7.216   5.465  0.00  0.00    +0.000 A 
ATOM      5  F   UNL     1       6.333   8.527   5.400  0.00  0.00    +0.000 F 
ATOM      6  C   UNL     1       7.717   6.784   6.177  0.00  0.00    +0.000 A 
ATOM      7  C   UNL     1       8.017   5.416   6.286  0.00  0.00    +0.000 A 
ATOM      8  C   UNL     1       7.147   4.513   5.641  0.00  0.00    +0.000 A 
BRANCH   7   9
ATOM      9  C   UNL     1       9.185   4.936   7.054  0.00  0.00    +0.000 A 
ATOM     10  C   UNL     1       9.670   5.616   8.181  0.00  0.00    +0.000 A 
ATOM     11  C   UNL     1      10.768   5.127   8.891  0.00  0.00    +0.000 A 
ATOM     12  C   UNL     1      11.359   3.955   8.459  0.00  0.00    +0.000 A 
ATOM     13  N   UNL     1      10.941   3.261   7.384  0.00  0.00    +0.000 NA
ATOM     14  C   UNL     1       9.877   3.770   6.712  0.00  0.00    +0.000 A 
ENDBRANCH   7   9
ENDBRANCH   1   2
BRANCH   1  15
ATOM     15  O   UNL     1       5.776   2.773   3.838  0.00  0.00    +0.000 OA
BRANCH  15  19
ATOM     16  C   UNL     1       3.249   0.042   2.074  0.00  0.00    +0.000 A 
ATOM     17  C   UNL     1       4.607  -0.261   2.200  0.00  0.00    +0.000 A 
ATOM     18  C   UNL     1       5.458   0.667   2.804  0.00  0.00    +0.000 A 
ATOM     19  C   UNL     1       4.916   1.862   3.258  0.00  0.00    +0.000 A 
ATOM     20  N   UNL     1       3.606   2.172   3.154  0.00  0.00    +0.000 NA
ATOM     21  C   UNL     1       2.804   1.264   2.553  0.00  0.00    +0.000 A 
BRANCH  16  23
ATOM     22  N   UNL     1       2.524  -2.193   1.465  0.00  0.00    +0.000 N 
ATOM     23  C   UNL     1       2.269  -0.852   1.427  0.00  0.00    +0.000 C 
ATOM     24  O   UNL     1       1.251  -0.413   0.909  0.00  0.00    +0.000 OA
ATOM     25  H   UNL     1       1.790  -2.796   1.113  0.00  0.00    +0.000 HD
ATOM     26  H   UNL     1       3.202  -2.602   2.093  0.00  0.00    +0.000 HD
ENDBRANCH  16  23
ENDBRANCH  15  19
ENDBRANCH   1  15
TORSDOF 5
