REMARK  Name = 
REMARK  5 active torsions:
REMARK  status: ('A' for Active; 'I' for Inactive)
REMARK    1  A    between atoms: N_1  and  C_2
REMARK    2  A    between atoms: C_2  and  C_3
REMARK    3  A    between atoms: N_6  and  C_7
REMARK    4  A    between atoms: C_7  and  N_8
REMARK    5  A    between atoms: C_13  and  C_14
REMARK                            x       y       z     vdW  Elec       q    Type
REMARK                         _______ _______ _______ _____ _____    ______ ____
ROOT
ATOM      1  N   UNL     1       0.442  -5.454   0.021  0.00  0.00    +0.000 N 
ATOM      2  C   UNL     1       0.765  -6.466  -0.841  0.00  0.00    +0.000 A 
ATOM      3  N   UNL     1      -0.271  -7.233  -1.099  0.00  0.00    +0.000 NA
ATOM      4  C   UNL     1      -1.310  -6.696  -0.379  0.00  0.00    +0.000 A 
ATOM      5  C   UNL     1      -2.620  -7.153  -0.245  0.00  0.00    +0.000 A 
ATOM      6  C   UNL     1      -3.427  -6.399   0.594  0.00  0.00    +0.000 A 
ATOM      7  N   UNL     1      -3.046  -5.251   1.234  0.00  0.00    +0.000 NA
ATOM      8  C   UNL     1      -1.778  -4.810   1.081  0.00  0.00    +0.000 A 
ATOM      9  C   UNL     1      -0.902  -5.553   0.302  0.00  0.00    +0.000 A 
ENDROOT
BRANCH   6  10
ATOM     10  C   UNL     1      -4.816  -6.881   0.890  0.00  0.00    +0.000 C 
ATOM     11  N   UNL     1      -5.524  -6.122   1.781  0.00  0.00    +0.000 N 
ATOM     12  O   UNL     1      -5.289  -7.898   0.396  0.00  0.00    +0.000 OA
ATOM     13  H   UNL     1      -5.084  -5.313   2.208  0.00  0.00    +0.000 HD
ATOM     14  H   UNL     1      -6.439  -6.428   2.078  0.00  0.00    +0.000 HD
ENDBRANCH   6  10
BRANCH   1  15
ATOM     15  C   UNL     1       1.400  -4.578   0.682  0.00  0.00    +0.000 C 
BRANCH  15  19
ATOM     16  C   UNL     1       2.959  -1.016  -1.173  0.00  0.00    +0.000 C 
ATOM     17  C   UNL     1       1.878  -1.820  -1.908  0.00  0.00    +0.000 C 
ATOM     18  C   UNL     1       1.163  -2.822  -0.995  0.00  0.00    +0.000 C 
ATOM     19  N   UNL     1       2.093  -3.727  -0.300  0.00  0.00    +0.000 NA
ATOM     20  C   UNL     1       3.158  -2.990   0.408  0.00  0.00    +0.000 C 
ATOM     21  C   UNL     1       3.908  -2.015  -0.499  0.00  0.00    +0.000 C 
BRANCH  16  22
ATOM     22  C   UNL     1       2.333  -0.007  -0.188  0.00  0.00    +0.000 C 
BRANCH  22  23
ATOM     23  N   UNL     1       3.351   0.796   0.481  0.00  0.00    +0.000 NA
ATOM     24  H   UNL     1       2.907   1.425   1.149  0.00  0.00    +0.000 HD
ATOM     25  H   UNL     1       3.813   1.396  -0.203  0.00  0.00    +0.000 HD
ENDBRANCH  22  23
ENDBRANCH  16  22
ENDBRANCH  15  19
ENDBRANCH   1  15
TORSDOF 5
