REMARK  Name = 
REMARK  5 active torsions:
REMARK  status: ('A' for Active; 'I' for Inactive)
REMARK    1  A    between atoms: C_2  and  C_3
REMARK    2  A    between atoms: C_6  and  N_7
REMARK    3  A    between atoms: N_7  and  C_8
REMARK    4  A    between atoms: C_8  and  C_9
REMARK    5  A    between atoms: C_14  and  C_15
REMARK                            x       y       z     vdW  Elec       q    Type
REMARK                         _______ _______ _______ _____ _____    ______ ____
ROOT
ATOM      1  C   UNL     1       4.567  -1.100   0.116  0.00  0.00    +0.000 C 
ATOM      2  C   UNL     1       4.812  -2.226  -0.875  0.00  0.00    +0.000 C 
ATOM      3  C   UNL     1       4.365  -2.568   0.500  0.00  0.00    +0.000 C 
ENDROOT
BRANCH   1   4
ATOM      4  C   UNL     1       5.689  -0.472   0.936  0.00  0.00    +0.000 A 
ATOM      5  C   UNL     1       5.542  -0.284   2.322  0.00  0.00    +0.000 A 
ATOM      6  C   UNL     1       6.640   0.017   3.125  0.00  0.00    +0.000 A 
ATOM      7  C   UNL     1       7.896   0.165   2.544  0.00  0.00    +0.000 A 
ATOM      8  F   UNL     1       8.938   0.337   3.374  0.00  0.00    +0.000 F 
ATOM      9  C   UNL     1       8.083   0.099   1.157  0.00  0.00    +0.000 A 
ATOM     10  C   UNL     1       6.947  -0.204   0.376  0.00  0.00    +0.000 A 
BRANCH   9  11
ATOM     11  C   UNL     1       9.396   0.276   0.505  0.00  0.00    +0.000 A 
ATOM     12  C   UNL     1      10.443   1.006   1.062  0.00  0.00    +0.000 A 
ATOM     13  C   UNL     1      11.641   1.131   0.363  0.00  0.00    +0.000 A 
ATOM     14  C   UNL     1      11.769   0.531  -0.882  0.00  0.00    +0.000 A 
ATOM     15  C   UNL     1      10.690  -0.174  -1.376  0.00  0.00    +0.000 A 
ATOM     16  N   UNL     1       9.521  -0.312  -0.717  0.00  0.00    +0.000 NA
ENDBRANCH   9  11
ENDBRANCH   1   4
BRANCH   1  17
ATOM     17  N   UNL     1       3.419  -0.216  -0.127  0.00  0.00    +0.000 N 
ATOM     18  H   UNL     1       2.535  -0.446   0.314  0.00  0.00    +0.000 HD
BRANCH  17  22
ATOM     19  C   UNL     1       3.024   2.460  -3.392  0.00  0.00    +0.000 A 
ATOM     20  C   UNL     1       4.077   1.543  -3.382  0.00  0.00    +0.000 A 
ATOM     21  C   UNL     1       4.221   0.651  -2.305  0.00  0.00    +0.000 A 
ATOM     22  C   UNL     1       3.296   0.626  -1.251  0.00  0.00    +0.000 A 
ATOM     23  C   UNL     1       2.260   1.569  -1.276  0.00  0.00    +0.000 A 
ATOM     24  C   UNL     1       2.122   2.479  -2.334  0.00  0.00    +0.000 A 
BRANCH  19  26
ATOM     25  N   UNL     1       2.777   4.138  -5.364  0.00  0.00    +0.000 NA
ATOM     26  C   UNL     1       2.891   3.389  -4.486  0.00  0.00    +0.000 C 
ENDBRANCH  19  26
ENDBRANCH  17  22
ENDBRANCH   1  17
TORSDOF 5
