REMARK  Name = 
REMARK  8 active torsions:
REMARK  status: ('A' for Active; 'I' for Inactive)
REMARK    1  A    between atoms: C_1  and  N_2
REMARK    2  A    between atoms: N_2  and  C_3
REMARK    3  A    between atoms: C_3  and  C_4
REMARK    4  A    between atoms: C_7  and  C_8
REMARK    5  A    between atoms: C_8  and  O_9
REMARK    6  A    between atoms: C_8  and  C_10
REMARK    7  A    between atoms: C_10  and  C_11
REMARK    8  A    between atoms: C_18  and  C_20
REMARK                            x       y       z     vdW  Elec       q    Type
REMARK                         _______ _______ _______ _____ _____    ______ ____
ROOT
ATOM      1  C   UNL     1       3.039   1.367  -0.142  0.00  0.00    +0.000 C 
ENDROOT
BRANCH   1   2
ATOM      2  C   UNL     1       2.190   2.525   0.311  0.00  0.00    +0.000 A 
ATOM      3  C   UNL     1       0.998   2.298   1.015  0.00  0.00    +0.000 A 
ATOM      4  C   UNL     1       0.138   3.356   1.302  0.00  0.00    +0.000 A 
ATOM      5  C   UNL     1       0.452   4.660   0.892  0.00  0.00    +0.000 A 
ATOM      6  C   UNL     1       1.684   4.890   0.261  0.00  0.00    +0.000 A 
ATOM      7  C   UNL     1       2.544   3.833  -0.031  0.00  0.00    +0.000 A 
BRANCH   5   8
ATOM      8  C   UNL     1      -0.578   5.762   1.055  0.00  0.00    +0.000 C 
BRANCH   8   9
ATOM      9  O   UNL     1      -0.058   6.792   1.903  0.00  0.00    +0.000 OA
ATOM     10  H   UNL     1       0.855   6.973   1.629  0.00  0.00    +0.000 HD
ENDBRANCH   8   9
BRANCH   8  11
ATOM     11  C   UNL     1      -0.983   6.391  -0.280  0.00  0.00    +0.000 C 
BRANCH  11  12
ATOM     12  C   UNL     1      -1.641   5.402  -1.203  0.00  0.00    +0.000 C 
ATOM     13  N   UNL     1      -2.761   4.802  -0.888  0.00  0.00    +0.000 NA
ATOM     14  C   UNL     1      -3.064   3.962  -2.086  0.00  0.00    +0.000 C 
ATOM     15  C   UNL     1      -2.175   4.495  -3.214  0.00  0.00    +0.000 C 
ATOM     16  N   UNL     1      -1.131   5.132  -2.449  0.00  0.00    +0.000 N 
ATOM     17  H   UNL     1      -0.559   5.831  -2.905  0.00  0.00    +0.000 HD
ENDBRANCH  11  12
ENDBRANCH   8  11
ENDBRANCH   5   8
ENDBRANCH   1   2
BRANCH   1  19
ATOM     18  C   UNL     1       1.603   1.215  -2.232  0.00  0.00    +0.000 C 
ATOM     19  N   UNL     1       2.839   0.894  -1.519  0.00  0.00    +0.000 N 
ATOM     20  C   UNL     1       3.647  -0.083  -2.135  0.00  0.00    +0.000 C 
ATOM     21  O   UNL     1       3.342  -0.552  -3.232  0.00  0.00    +0.000 OA
BRANCH  20  22
ATOM     22  C   UNL     1       4.858  -0.578  -1.460  0.00  0.00    +0.000 A 
ATOM     23  C   UNL     1       4.923  -0.994  -0.140  0.00  0.00    +0.000 A 
ATOM     24  S   UNL     1       6.464  -1.555   0.334  0.00  0.00    +0.000 S 
ATOM     25  C   UNL     1       7.050  -1.435  -1.256  0.00  0.00    +0.000 A 
ATOM     26  N   UNL     1       8.295  -1.878  -1.574  0.00  0.00    +0.000 NA
ATOM     27  C   UNL     1       8.577  -1.798  -2.833  0.00  0.00    +0.000 A 
ATOM     28  N   UNL     1       7.742  -1.284  -3.789  0.00  0.00    +0.000 N 
ATOM     29  C   UNL     1       6.527  -0.699  -3.492  0.00  0.00    +0.000 A 
ATOM     30  O   UNL     1       5.922  -0.049  -4.334  0.00  0.00    +0.000 OA
ATOM     31  C   UNL     1       6.118  -0.875  -2.109  0.00  0.00    +0.000 A 
ATOM     32  H   UNL     1       8.049  -1.196  -4.746  0.00  0.00    +0.000 HD
ENDBRANCH  20  22
ENDBRANCH   1  19
TORSDOF 7
