REMARK  Name = 
REMARK  7 active torsions:
REMARK  status: ('A' for Active; 'I' for Inactive)
REMARK    1  A    between atoms: C_1  and  C_2
REMARK    2  A    between atoms: C_2  and  N_3
REMARK    3  A    between atoms: C_2  and  C_18
REMARK    4  A    between atoms: C_7  and  C_8
REMARK    5  A    between atoms: C_8  and  N_9
REMARK    6  A    between atoms: N_9  and  C_10
REMARK    7  A    between atoms: C_13  and  N_14
REMARK                            x       y       z     vdW  Elec       q    Type
REMARK                         _______ _______ _______ _____ _____    ______ ____
ROOT
ATOM      1  N   UNL     1      -5.907  -5.427  -4.932  0.00  0.00    +0.000 N 
ATOM      2  C   UNL     1      -4.755  -5.661  -4.167  0.00  0.00    +0.000 A 
ATOM      3  C   UNL     1      -4.446  -6.979  -3.821  0.00  0.00    +0.000 A 
ATOM      4  C   UNL     1      -3.333  -7.242  -3.021  0.00  0.00    +0.000 A 
ATOM      5  C   UNL     1      -2.484  -6.198  -2.663  0.00  0.00    +0.000 A 
ATOM      6  C   UNL     1      -2.829  -4.931  -3.119  0.00  0.00    +0.000 A 
ATOM      7  N   UNL     1      -3.941  -4.645  -3.840  0.00  0.00    +0.000 NA
ATOM      8  H   UNL     1      -5.635  -5.590  -5.899  0.00  0.00    +0.000 HD
ENDROOT
BRANCH   1  10
ATOM      9  C   UNL     1      -7.071  -3.908  -3.373  0.00  0.00    +0.000 C 
ATOM     10  C   UNL     1      -6.546  -4.090  -4.813  0.00  0.00    +0.000 C 
BRANCH  10  11
ATOM     11  C   UNL     1      -7.715  -3.929  -5.805  0.00  0.00    +0.000 A 
ATOM     12  C   UNL     1      -8.558  -4.984  -6.140  0.00  0.00    +0.000 A 
ATOM     13  S   UNL     1      -9.739  -4.578  -7.297  0.00  0.00    +0.000 S 
ATOM     14  C   UNL     1      -9.182  -2.973  -7.392  0.00  0.00    +0.000 A 
ATOM     15  N   UNL     1      -9.771  -2.090  -8.244  0.00  0.00    +0.000 NA
ATOM     16  C   UNL     1      -9.247  -0.908  -8.223  0.00  0.00    +0.000 A 
ATOM     17  N   UNL     1      -8.206  -0.533  -7.420  0.00  0.00    +0.000 N 
ATOM     18  C   UNL     1      -7.608  -1.373  -6.508  0.00  0.00    +0.000 A 
ATOM     19  O   UNL     1      -6.732  -0.979  -5.740  0.00  0.00    +0.000 OA
ATOM     20  C   UNL     1      -8.123  -2.736  -6.529  0.00  0.00    +0.000 A 
ATOM     21  H   UNL     1      -7.867   0.421  -7.439  0.00  0.00    +0.000 HD
ENDBRANCH  10  11
ENDBRANCH   1  10
BRANCH   5  22
ATOM     22  C   UNL     1      -1.247  -6.425  -1.835  0.00  0.00    +0.000 C 
BRANCH  22  23
ATOM     23  N   UNL     1      -0.314  -7.325  -2.518  0.00  0.00    +0.000 NA
ATOM     24  H   UNL     1      -0.118  -6.959  -3.448  0.00  0.00    +0.000 HD
BRANCH  23  25
ATOM     25  C   UNL     1       0.931  -7.552  -1.774  0.00  0.00    +0.000 C 
ATOM     26  C   UNL     1       1.819  -8.547  -2.551  0.00  0.00    +0.000 C 
ATOM     27  C   UNL     1       2.860  -7.719  -3.316  0.00  0.00    +0.000 C 
ATOM     28  C   UNL     1       2.506  -6.259  -3.041  0.00  0.00    +0.000 C 
ATOM     29  C   UNL     1       1.825  -6.310  -1.679  0.00  0.00    +0.000 C 
BRANCH  28  30
ATOM     30  N   UNL     1       3.656  -5.371  -3.067  0.00  0.00    +0.000 NA
ATOM     31  H   UNL     1       4.321  -5.641  -2.343  0.00  0.00    +0.000 HD
ATOM     32  H   UNL     1       3.359  -4.424  -2.833  0.00  0.00    +0.000 HD
ENDBRANCH  28  30
ENDBRANCH  23  25
ENDBRANCH  22  23
ENDBRANCH   5  22
TORSDOF 6
