REMARK  Name = 
REMARK  12 active torsions:
REMARK  status: ('A' for Active; 'I' for Inactive)
REMARK    1  A    between atoms: C_1  and  N_2
REMARK    2  A    between atoms: N_2  and  C_3
REMARK    3  A    between atoms: N_2  and  C_4
REMARK    4  A    between atoms: C_4  and  C_5
REMARK    5  A    between atoms: C_5  and  O_6
REMARK    6  A    between atoms: O_6  and  C_7
REMARK    7  A    between atoms: C_10  and  C_11
REMARK    8  A    between atoms: C_11  and  N_12
REMARK    9  A    between atoms: C_16  and  C_17
REMARK   10  A    between atoms: C_17  and  C_18
REMARK   11  A    between atoms: C_17  and  C_19
REMARK   12  A    between atoms: C_17  and  O_20
REMARK                            x       y       z     vdW  Elec       q    Type
REMARK                         _______ _______ _______ _____ _____    ______ ____
ROOT
ATOM      1  C   UNL     1      10.586   1.731   3.444  0.00  0.00    +0.000 C 
ENDROOT
BRANCH   1   2
ATOM      2  N   UNL     1      11.316   0.498   3.132  0.00  0.00    +0.000 N 
ATOM      3  C   UNL     1      12.693   0.616   3.370  0.00  0.00    +0.000 A 
ATOM      4  C   UNL     1      13.512  -0.486   3.170  0.00  0.00    +0.000 A 
ATOM      5  C   UNL     1      14.891  -0.367   3.374  0.00  0.00    +0.000 A 
ATOM      6  C   UNL     1      15.436   0.862   3.765  0.00  0.00    +0.000 A 
ATOM      7  C   UNL     1      14.524   1.892   3.970  0.00  0.00    +0.000 A 
ATOM      8  N   UNL     1      13.195   1.797   3.783  0.00  0.00    +0.000 NA
ATOM      9  H   UNL     1      11.169   0.195   2.176  0.00  0.00    +0.000 HD
BRANCH   6  10
ATOM     10  C   UNL     1      16.920   1.094   3.966  0.00  0.00    +0.000 C 
ATOM     11  C   UNL     1      17.433   2.199   3.029  0.00  0.00    +0.000 C 
ATOM     12  C   UNL     1      17.226   1.447   5.425  0.00  0.00    +0.000 C 
BRANCH  10  13
ATOM     13  O   UNL     1      17.668  -0.089   3.663  0.00  0.00    +0.000 OA
ATOM     14  H   UNL     1      17.547  -0.272   2.716  0.00  0.00    +0.000 HD
ENDBRANCH  10  13
ENDBRANCH   6  10
ENDBRANCH   1   2
BRANCH   1  18
ATOM     15  C   UNL     1       6.389   1.336   2.701  0.00  0.00    +0.000 A 
ATOM     16  C   UNL     1       7.232   1.768   1.680  0.00  0.00    +0.000 A 
ATOM     17  C   UNL     1       8.601   1.885   1.909  0.00  0.00    +0.000 A 
ATOM     18  C   UNL     1       9.101   1.583   3.171  0.00  0.00    +0.000 A 
ATOM     19  N   UNL     1       8.298   1.172   4.186  0.00  0.00    +0.000 NA
ATOM     20  C   UNL     1       6.973   1.056   3.929  0.00  0.00    +0.000 A 
BRANCH  15  21
ATOM     21  O   UNL     1       5.034   1.161   2.598  0.00  0.00    +0.000 OA
BRANCH  21  22
ATOM     22  C   UNL     1       4.491   1.500   1.317  0.00  0.00    +0.000 C 
BRANCH  22  23
ATOM     23  C   UNL     1       2.973   1.297   1.304  0.00  0.00    +0.000 C 
BRANCH  23  25
ATOM     24  C   UNL     1       0.908   1.362   0.071  0.00  0.00    +0.000 C 
ATOM     25  N   UNL     1       2.350   1.611   0.000  0.00  0.00    +0.000 NA
ATOM     26  C   UNL     1       2.589   2.994  -0.420  0.00  0.00    +0.000 C 
ENDBRANCH  23  25
ENDBRANCH  22  23
ENDBRANCH  21  22
ENDBRANCH  15  21
ENDBRANCH   1  18
TORSDOF 8
