REMARK  Name = 
REMARK  6 active torsions:
REMARK  status: ('A' for Active; 'I' for Inactive)
REMARK    1  A    between atoms: C_2  and  C_4
REMARK    2  A    between atoms: N_8  and  C_9
REMARK    3  A    between atoms: C_9  and  C_10
REMARK    4  A    between atoms: C_10  and  C_13
REMARK    5  A    between atoms: C_17  and  O_18
REMARK    6  A    between atoms: O_18  and  C_19
REMARK                            x       y       z     vdW  Elec       q    Type
REMARK                         _______ _______ _______ _____ _____    ______ ____
ROOT
ATOM      1  C   UNL     1       5.710   4.192  -5.980  0.00  0.00    +0.000 C 
ATOM      2  F   UNL     1       7.031   4.167  -5.639  0.00  0.00    +0.000 F 
ATOM      3  F   UNL     1       5.567   3.257  -6.964  0.00  0.00    +0.000 F 
ENDROOT
BRANCH   1   4
ATOM      4  C   UNL     1       5.247   5.571  -6.415  0.00  0.00    +0.000 A 
ATOM      5  C   UNL     1       4.218   5.714  -7.354  0.00  0.00    +0.000 A 
ATOM      6  C   UNL     1       3.680   6.975  -7.618  0.00  0.00    +0.000 A 
ATOM      7  C   UNL     1       4.172   8.107  -6.959  0.00  0.00    +0.000 A 
ATOM      8  C   UNL     1       5.224   7.984  -6.053  0.00  0.00    +0.000 A 
ATOM      9  C   UNL     1       5.754   6.719  -5.783  0.00  0.00    +0.000 A 
BRANCH   8  10
ATOM     10  O   UNL     1       5.770   9.007  -5.321  0.00  0.00    +0.000 OA
BRANCH  10  11
ATOM     11  C   UNL     1       5.646  10.366  -5.791  0.00  0.00    +0.000 C 
ATOM     12  C   UNL     1       6.445  10.747  -7.054  0.00  0.00    +0.000 C 
ATOM     13  C   UNL     1       6.877  12.045  -6.350  0.00  0.00    +0.000 C 
ATOM     14  F   UNL     1       8.177  12.385  -6.496  0.00  0.00    +0.000 F 
ATOM     15  F   UNL     1       6.151  13.141  -6.669  0.00  0.00    +0.000 F 
ATOM     16  C   UNL     1       6.508  11.387  -5.011  0.00  0.00    +0.000 C 
ENDBRANCH  10  11
ENDBRANCH   8  10
ENDBRANCH   1   4
BRANCH   1  17
ATOM     17  C   UNL     1       4.860   3.773  -4.756  0.00  0.00    +0.000 C 
BRANCH  17  22
ATOM     18  C   UNL     1       3.147   0.627  -1.099  0.00  0.00    +0.000 A 
ATOM     19  C   UNL     1       2.799   1.931  -1.427  0.00  0.00    +0.000 A 
ATOM     20  C   UNL     1       3.465   2.562  -2.476  0.00  0.00    +0.000 A 
ATOM     21  C   UNL     1       4.464   1.889  -3.178  0.00  0.00    +0.000 A 
ATOM     22  N   UNL     1       5.147   2.448  -4.224  0.00  0.00    +0.000 N 
ATOM     23  N   UNL     1       4.820   0.633  -2.850  0.00  0.00    +0.000 NA
ATOM     24  C   UNL     1       4.171   0.031  -1.818  0.00  0.00    +0.000 A 
ATOM     25  H   UNL     1       5.843   1.853  -4.660  0.00  0.00    +0.000 HD
BRANCH  18  27
ATOM     26  N   UNL     1       1.176   0.202   0.250  0.00  0.00    +0.000 N 
ATOM     27  C   UNL     1       2.481  -0.126  -0.019  0.00  0.00    +0.000 C 
ATOM     28  O   UNL     1       3.047  -1.028   0.580  0.00  0.00    +0.000 OA
ATOM     29  H   UNL     1       0.696  -0.394   0.910  0.00  0.00    +0.000 HD
ATOM     30  H   UNL     1       0.613   0.745  -0.388  0.00  0.00    +0.000 HD
ENDBRANCH  18  27
ENDBRANCH  17  22
ENDBRANCH   1  17
TORSDOF 6
