REMARK  Name = 
REMARK  8 active torsions:
REMARK  status: ('A' for Active; 'I' for Inactive)
REMARK    1  A    between atoms: C_1  and  C_2
REMARK    2  A    between atoms: C_12  and  C_13
REMARK    3  A    between atoms: C_13  and  C_14
REMARK    4  A    between atoms: C_13  and  C_15
REMARK    5  A    between atoms: C_13  and  C_16
REMARK    6  A    between atoms: C_16  and  N_17
REMARK    7  A    between atoms: N_17  and  C_18
REMARK    8  A    between atoms: C_21  and  C_22
REMARK                            x       y       z     vdW  Elec       q    Type
REMARK                         _______ _______ _______ _____ _____    ______ ____
ROOT
ATOM      1  C   UNL     1       7.055  -4.115  -0.109  0.00  0.00    +0.000 C 
ATOM      2  C   UNL     1       6.736  -4.767  -1.472  0.00  0.00    +0.000 C 
ATOM      3  C   UNL     1       7.967  -2.888  -0.312  0.00  0.00    +0.000 C 
ENDROOT
BRANCH   1  15
ATOM      4  C   UNL     1       1.967  -4.025   5.098  0.00  0.00    +0.000 C 
ATOM      5  C   UNL     1       2.577  -4.807   3.932  0.00  0.00    +0.000 C 
ATOM      6  C   UNL     1       2.686  -6.310   4.278  0.00  0.00    +0.000 C 
ATOM      7  O   UNL     1       3.660  -6.557   5.305  0.00  0.00    +0.000 OA
ATOM      8  C   UNL     1       4.960  -6.135   4.862  0.00  0.00    +0.000 C 
ATOM      9  C   UNL     1       4.997  -4.640   4.533  0.00  0.00    +0.000 C 
ATOM     10  N   UNL     1       3.913  -4.262   3.624  0.00  0.00    +0.000 N 
ATOM     11  C   UNL     1       4.223  -3.809   2.355  0.00  0.00    +0.000 A 
ATOM     12  C   UNL     1       3.368  -2.901   1.736  0.00  0.00    +0.000 A 
ATOM     13  C   UNL     1       3.724  -2.332   0.520  0.00  0.00    +0.000 A 
ATOM     14  C   UNL     1       4.915  -2.711  -0.077  0.00  0.00    +0.000 A 
ATOM     15  C   UNL     1       5.731  -3.653   0.554  0.00  0.00    +0.000 A 
ATOM     16  N   UNL     1       5.391  -4.178   1.764  0.00  0.00    +0.000 NA
ENDBRANCH   1  15
BRANCH   1  17
ATOM     17  C   UNL     1       7.782  -5.164   0.785  0.00  0.00    +0.000 C 
BRANCH  17  18
ATOM     18  N   UNL     1       9.054  -5.671   0.223  0.00  0.00    +0.000 N 
ATOM     19  H   UNL     1       9.679  -4.933  -0.099  0.00  0.00    +0.000 HD
BRANCH  18  20
ATOM     20  C   UNL     1       9.747  -6.597   1.025  0.00  0.00    +0.000 A 
ATOM     21  C   UNL     1       9.129  -7.526   1.849  0.00  0.00    +0.000 A 
ATOM     22  N   UNL     1       9.765  -8.453   2.598  0.00  0.00    +0.000 NA
ATOM     23  C   UNL     1      11.110  -8.465   2.474  0.00  0.00    +0.000 A 
ATOM     24  N   UNL     1      11.836  -7.658   1.678  0.00  0.00    +0.000 NA
ATOM     25  C   UNL     1      11.126  -6.758   0.956  0.00  0.00    +0.000 A 
BRANCH  23  26
ATOM     26  C   UNL     1      11.836  -9.491   3.312  0.00  0.00    +0.000 C 
ATOM     27  N   UNL     1      11.029 -10.288   4.098  0.00  0.00    +0.000 N 
ATOM     28  O   UNL     1      13.051  -9.640   3.321  0.00  0.00    +0.000 OA
ATOM     29  H   UNL     1      10.025 -10.175   4.072  0.00  0.00    +0.000 HD
ATOM     30  H   UNL     1      11.460 -11.003   4.663  0.00  0.00    +0.000 HD
ENDBRANCH  23  26
ENDBRANCH  18  20
ENDBRANCH  17  18
ENDBRANCH   1  17
TORSDOF 5
