REMARK  Name = 
REMARK  5 active torsions:
REMARK  status: ('A' for Active; 'I' for Inactive)
REMARK    1  A    between atoms: C_1  and  C_2
REMARK    2  A    between atoms: C_2  and  O_3
REMARK    3  A    between atoms: C_2  and  C_14
REMARK    4  A    between atoms: O_3  and  C_4
REMARK    5  A    between atoms: C_7  and  C_8
REMARK                            x       y       z     vdW  Elec       q    Type
REMARK                         _______ _______ _______ _____ _____    ______ ____
ROOT
ATOM      1  C   UNL     1       0.513   0.777  -1.099  0.00  0.00    +0.000 A 
ATOM      2  C   UNL     1       0.930   2.061  -1.438  0.00  0.00    +0.000 A 
ATOM      3  C   UNL     1       0.192   2.816  -2.361  0.00  0.00    +0.000 A 
ATOM      4  C   UNL     1      -0.980   2.302  -2.939  0.00  0.00    +0.000 A 
ATOM      5  C   UNL     1      -1.399   1.026  -2.570  0.00  0.00    +0.000 A 
ATOM      6  F   UNL     1      -2.515   0.484  -3.080  0.00  0.00    +0.000 F 
ATOM      7  C   UNL     1      -0.665   0.272  -1.655  0.00  0.00    +0.000 A 
ENDROOT
BRANCH   4   8
ATOM      8  C   UNL     1      -1.723   3.149  -3.909  0.00  0.00    +0.000 C 
ATOM      9  N   UNL     1      -2.863   2.657  -4.469  0.00  0.00    +0.000 N 
ATOM     10  O   UNL     1      -1.322   4.267  -4.209  0.00  0.00    +0.000 OA
ATOM     11  H   UNL     1      -3.236   1.741  -4.251  0.00  0.00    +0.000 HD
ATOM     12  H   UNL     1      -3.362   3.243  -5.124  0.00  0.00    +0.000 HD
ENDBRANCH   4   8
BRANCH   1  13
ATOM     13  O   UNL     1       1.129  -0.053  -0.213  0.00  0.00    +0.000 OA
BRANCH  13  15
ATOM     14  C   UNL     1       3.354  -0.066  -1.314  0.00  0.00    +0.000 C 
ATOM     15  C   UNL     1       2.555  -0.009  -0.005  0.00  0.00    +0.000 C 
BRANCH  15  16
ATOM     16  C   UNL     1       3.011   0.998   1.048  0.00  0.00    +0.000 A 
ATOM     17  C   UNL     1       2.187   1.279   2.153  0.00  0.00    +0.000 A 
ATOM     18  C   UNL     1       2.638   2.086   3.200  0.00  0.00    +0.000 A 
ATOM     19  C   UNL     1       3.921   2.626   3.166  0.00  0.00    +0.000 A 
ATOM     20  C   UNL     1       4.747   2.371   2.076  0.00  0.00    +0.000 A 
ATOM     21  C   UNL     1       4.297   1.564   1.027  0.00  0.00    +0.000 A 
ENDBRANCH  15  16
ENDBRANCH  13  15
ENDBRANCH   1  13
TORSDOF 4
