REMARK  Name = 
REMARK  4 active torsions:
REMARK  status: ('A' for Active; 'I' for Inactive)
REMARK    1  A    between atoms: C_2  and  C_4
REMARK    2  A    between atoms: C_7  and  C_8
REMARK    3  A    between atoms: C_8  and  N_9
REMARK    4  A    between atoms: C_12  and  C_13
REMARK                            x       y       z     vdW  Elec       q    Type
REMARK                         _______ _______ _______ _____ _____    ______ ____
ROOT
ATOM      1  N   UNL     1       4.283   4.036  -4.674  0.00  0.00    +0.000 N 
ATOM      2  C   UNL     1       4.879   4.724  -5.748  0.00  0.00    +0.000 A 
ATOM      3  C   UNL     1       4.264   5.868  -6.210  0.00  0.00    +0.000 A 
ATOM      4  C   UNL     1       4.844   6.518  -7.287  0.00  0.00    +0.000 A 
ATOM      5  N   UNL     1       5.972   6.060  -7.869  0.00  0.00    +0.000 NA
ATOM      6  C   UNL     1       6.491   4.944  -7.347  0.00  0.00    +0.000 A 
ATOM      7  N   UNL     1       5.993   4.248  -6.320  0.00  0.00    +0.000 NA
ATOM      8  H   UNL     1       4.195   4.664  -3.878  0.00  0.00    +0.000 HD
ENDROOT
BRANCH   4   9
ATOM      9  C   UNL     1       4.247   7.729  -7.881  0.00  0.00    +0.000 A 
ATOM     10  C   UNL     1       3.529   8.652  -7.097  0.00  0.00    +0.000 A 
ATOM     11  C   UNL     1       2.904   9.762  -7.671  0.00  0.00    +0.000 A 
ATOM     12  C   UNL     1       2.999   9.981  -9.042  0.00  0.00    +0.000 A 
ATOM     13  C   UNL     1       3.729   9.101  -9.836  0.00  0.00    +0.000 A 
ATOM     14  C   UNL     1       4.351   7.990  -9.260  0.00  0.00    +0.000 A 
ENDBRANCH   4   9
BRANCH   1  15
ATOM     15  C   UNL     1       5.016   2.825  -4.317  0.00  0.00    +0.000 C 
BRANCH  15  19
ATOM     16  C   UNL     1       3.237   0.710  -1.005  0.00  0.00    +0.000 A 
ATOM     17  C   UNL     1       2.492   0.939  -2.167  0.00  0.00    +0.000 A 
ATOM     18  C   UNL     1       3.055   1.645  -3.232  0.00  0.00    +0.000 A 
ATOM     19  C   UNL     1       4.367   2.136  -3.141  0.00  0.00    +0.000 A 
ATOM     20  C   UNL     1       5.095   1.930  -1.960  0.00  0.00    +0.000 A 
ATOM     21  C   UNL     1       4.532   1.226  -0.894  0.00  0.00    +0.000 A 
BRANCH  16  23
ATOM     22  N   UNL     1       1.765  -1.043  -0.191  0.00  0.00    +0.000 N 
ATOM     23  C   UNL     1       2.684  -0.078   0.123  0.00  0.00    +0.000 C 
ATOM     24  O   UNL     1       3.061   0.089   1.277  0.00  0.00    +0.000 OA
ATOM     25  H   UNL     1       1.478  -1.652   0.563  0.00  0.00    +0.000 HD
ATOM     26  H   UNL     1       1.643  -1.376  -1.137  0.00  0.00    +0.000 HD
ENDBRANCH  16  23
ENDBRANCH  15  19
ENDBRANCH   1  15
TORSDOF 4
