REMARK  Name = 
REMARK  5 active torsions:
REMARK  status: ('A' for Active; 'I' for Inactive)
REMARK    1  A    between atoms: C_2  and  C_4
REMARK    2  A    between atoms: C_7  and  N_8
REMARK    3  A    between atoms: N_8  and  C_9
REMARK    4  A    between atoms: C_9  and  C_10
REMARK    5  A    between atoms: C_14  and  C_15
REMARK                            x       y       z     vdW  Elec       q    Type
REMARK                         _______ _______ _______ _____ _____    ______ ____
ROOT
ATOM      1  C   UNL     1       5.102   5.470   2.231  0.00  0.00    +0.000 C 
ATOM      2  C   UNL     1       5.014   5.126   3.708  0.00  0.00    +0.000 C 
ATOM      3  C   UNL     1       3.768   5.488   2.973  0.00  0.00    +0.000 C 
ENDROOT
BRANCH   1   4
ATOM      4  C   UNL     1       5.632   6.837   1.810  0.00  0.00    +0.000 A 
ATOM      5  C   UNL     1       4.940   7.626   0.877  0.00  0.00    +0.000 A 
ATOM      6  C   UNL     1       5.371   8.910   0.554  0.00  0.00    +0.000 A 
ATOM      7  C   UNL     1       6.510   9.434   1.166  0.00  0.00    +0.000 A 
ATOM      8  C   UNL     1       7.249   8.684   2.096  0.00  0.00    +0.000 A 
ATOM      9  C   UNL     1       6.803   7.379   2.376  0.00  0.00    +0.000 A 
BRANCH   8  10
ATOM     10  C   UNL     1       8.415   9.262   2.793  0.00  0.00    +0.000 A 
ATOM     11  C   UNL     1       8.437  10.602   3.207  0.00  0.00    +0.000 A 
ATOM     12  C   UNL     1       9.539  11.126   3.878  0.00  0.00    +0.000 A 
ATOM     13  C   UNL     1      10.609  10.286   4.134  0.00  0.00    +0.000 A 
ATOM     14  N   UNL     1      10.641   8.990   3.766  0.00  0.00    +0.000 NA
ATOM     15  C   UNL     1       9.553   8.514   3.110  0.00  0.00    +0.000 A 
ENDBRANCH   8  10
ENDBRANCH   1   4
BRANCH   1  16
ATOM     16  N   UNL     1       5.334   4.404   1.230  0.00  0.00    +0.000 N 
ATOM     17  H   UNL     1       4.536   3.804   1.051  0.00  0.00    +0.000 HD
BRANCH  16  21
ATOM     18  C   UNL     1       8.762   2.108   1.256  0.00  0.00    +0.000 A 
ATOM     19  C   UNL     1       8.511   3.005   2.279  0.00  0.00    +0.000 A 
ATOM     20  N   UNL     1       7.398   3.784   2.311  0.00  0.00    +0.000 NA
ATOM     21  C   UNL     1       6.517   3.630   1.296  0.00  0.00    +0.000 A 
ATOM     22  C   UNL     1       6.796   2.719   0.266  0.00  0.00    +0.000 A 
ATOM     23  N   UNL     1       7.906   1.936   0.211  0.00  0.00    +0.000 NA
BRANCH  18  25
ATOM     24  N   UNL     1      10.215   0.498   0.179  0.00  0.00    +0.000 N 
ATOM     25  C   UNL     1      10.012   1.296   1.271  0.00  0.00    +0.000 C 
ATOM     26  O   UNL     1      10.815   1.347   2.194  0.00  0.00    +0.000 OA
ATOM     27  H   UNL     1      11.058  -0.054   0.115  0.00  0.00    +0.000 HD
ATOM     28  H   UNL     1       9.545   0.500  -0.585  0.00  0.00    +0.000 HD
ENDBRANCH  18  25
ENDBRANCH  16  21
ENDBRANCH   1  16
TORSDOF 5
