REMARK  Name = 
REMARK  7 active torsions:
REMARK  status: ('A' for Active; 'I' for Inactive)
REMARK    1  A    between atoms: C_1  and  C_2
REMARK    2  A    between atoms: C_2  and  N_3
REMARK    3  A    between atoms: C_2  and  C_11
REMARK    4  A    between atoms: C_4  and  C_6
REMARK    5  A    between atoms: C_14  and  C_15
REMARK    6  A    between atoms: C_15  and  N_16
REMARK    7  A    between atoms: C_17  and  C_19
REMARK                            x       y       z     vdW  Elec       q    Type
REMARK                         _______ _______ _______ _____ _____    ______ ____
ROOT
ATOM      1  C   UNL     1       2.979   1.216  -0.783  0.00  0.00    +0.000 A 
ATOM      2  C   UNL     1       2.380   2.442  -0.452  0.00  0.00    +0.000 A 
ATOM      3  C   UNL     1       2.751   3.627  -1.097  0.00  0.00    +0.000 A 
ATOM      4  C   UNL     1       3.735   3.618  -2.091  0.00  0.00    +0.000 A 
ATOM      5  C   UNL     1       4.389   2.411  -2.374  0.00  0.00    +0.000 A 
ATOM      6  C   UNL     1       4.013   1.222  -1.732  0.00  0.00    +0.000 A 
ENDROOT
BRANCH   1   8
ATOM      7  C   UNL     1       1.936  -1.054  -1.189  0.00  0.00    +0.000 C 
ATOM      8  C   UNL     1       2.455  -0.061  -0.145  0.00  0.00    +0.000 C 
BRANCH   8   9
ATOM      9  N   UNL     1       3.451  -0.684   0.708  0.00  0.00    +0.000 N 
ATOM     10  C   UNL     1       3.098  -1.359   1.856  0.00  0.00    +0.000 C 
ATOM     11  O   UNL     1       1.940  -1.433   2.255  0.00  0.00    +0.000 OA
ATOM     12  H   UNL     1       4.403  -0.724   0.380  0.00  0.00    +0.000 HD
BRANCH  10  13
ATOM     13  C   UNL     1       4.185  -1.973   2.572  0.00  0.00    +0.000 A 
ATOM     14  C   UNL     1       5.541  -2.091   2.333  0.00  0.00    +0.000 A 
ATOM     15  C   UNL     1       6.052  -2.796   3.439  0.00  0.00    +0.000 A 
ATOM     16  N   UNL     1       5.103  -3.117   4.317  0.00  0.00    +0.000 NA
ATOM     17  N   UNL     1       3.983  -2.614   3.768  0.00  0.00    +0.000 N 
ATOM     18  H   UNL     1       3.099  -2.729   4.258  0.00  0.00    +0.000 HD
ENDBRANCH  10  13
ENDBRANCH   8   9
ENDBRANCH   1   8
BRANCH   4  19
ATOM     19  C   UNL     1       4.083   4.880  -2.840  0.00  0.00    +0.000 C 
BRANCH  19  20
ATOM     20  N   UNL     1       5.138   5.617  -2.192  0.00  0.00    +0.000 N 
ATOM     21  C   UNL     1       5.536   6.843  -2.664  0.00  0.00    +0.000 C 
ATOM     22  O   UNL     1       4.988   7.380  -3.622  0.00  0.00    +0.000 OA
ATOM     23  H   UNL     1       5.738   5.104  -1.555  0.00  0.00    +0.000 HD
BRANCH  21  24
ATOM     24  C   UNL     1       6.614   7.513  -1.925  0.00  0.00    +0.000 A 
ATOM     25  C   UNL     1       6.744   8.894  -2.000  0.00  0.00    +0.000 A 
ATOM     26  S   UNL     1       8.017   9.515  -1.050  0.00  0.00    +0.000 S 
ATOM     27  C   UNL     1       8.476   7.956  -0.548  0.00  0.00    +0.000 A 
ATOM     28  N   UNL     1       9.543   7.772   0.276  0.00  0.00    +0.000 NA
ATOM     29  C   UNL     1       9.796   6.538   0.555  0.00  0.00    +0.000 A 
ATOM     30  N   UNL     1       9.073   5.469   0.089  0.00  0.00    +0.000 N 
ATOM     31  C   UNL     1       7.970   5.607  -0.718  0.00  0.00    +0.000 A 
ATOM     32  O   UNL     1       7.318   4.632  -1.078  0.00  0.00    +0.000 OA
ATOM     33  C   UNL     1       7.652   6.977  -1.077  0.00  0.00    +0.000 A 
ATOM     34  H   UNL     1       9.316   4.527   0.355  0.00  0.00    +0.000 HD
ENDBRANCH  21  24
ENDBRANCH  19  20
ENDBRANCH   4  19
TORSDOF 6
