REMARK  Name = 
REMARK  7 active torsions:
REMARK  status: ('A' for Active; 'I' for Inactive)
REMARK    1  A    between atoms: N_1  and  C_2
REMARK    2  A    between atoms: C_2  and  C_3
REMARK    3  A    between atoms: C_3  and  N_4
REMARK    4  A    between atoms: C_3  and  C_17
REMARK    5  A    between atoms: C_5  and  C_7
REMARK    6  A    between atoms: C_20  and  C_21
REMARK    7  A    between atoms: C_21  and  N_22
REMARK                            x       y       z     vdW  Elec       q    Type
REMARK                         _______ _______ _______ _____ _____    ______ ____
ROOT
ATOM      1  C   UNL     1       3.062  -0.914  -0.984  0.00  0.00    +0.000 C 
ENDROOT
BRANCH   1   2
ATOM      2  C   UNL     1       4.574  -1.059  -1.141  0.00  0.00    +0.000 A 
ATOM      3  C   UNL     1       5.188  -2.298  -0.915  0.00  0.00    +0.000 A 
ATOM      4  C   UNL     1       6.531  -2.498  -1.247  0.00  0.00    +0.000 A 
ATOM      5  C   UNL     1       7.301  -1.457  -1.783  0.00  0.00    +0.000 A 
ATOM      6  C   UNL     1       6.711  -0.198  -1.945  0.00  0.00    +0.000 A 
ATOM      7  C   UNL     1       5.365  -0.002  -1.626  0.00  0.00    +0.000 A 
BRANCH   5   8
ATOM      8  C   UNL     1       8.721  -1.706  -2.243  0.00  0.00    +0.000 C 
BRANCH   8   9
ATOM      9  N   UNL     1       8.708  -2.143  -3.635  0.00  0.00    +0.000 N 
ATOM     10  C   UNL     1       9.984  -2.344  -4.184  0.00  0.00    +0.000 A 
ATOM     11  C   UNL     1      10.078  -2.759  -5.512  0.00  0.00    +0.000 A 
ATOM     12  C   UNL     1      11.332  -2.994  -6.075  0.00  0.00    +0.000 A 
ATOM     13  C   UNL     1      12.465  -2.810  -5.297  0.00  0.00    +0.000 A 
ATOM     14  C   UNL     1      12.291  -2.405  -3.988  0.00  0.00    +0.000 A 
ATOM     15  N   UNL     1      11.084  -2.176  -3.422  0.00  0.00    +0.000 NA
ATOM     16  H   UNL     1       8.173  -1.513  -4.225  0.00  0.00    +0.000 HD
ENDBRANCH   8   9
ENDBRANCH   5   8
ENDBRANCH   1   2
BRANCH   1  17
ATOM     17  N   UNL     1       2.751   0.092   0.019  0.00  0.00    +0.000 N 
ATOM     18  C   UNL     1       1.484   0.333   0.485  0.00  0.00    +0.000 C 
ATOM     19  O   UNL     1       0.517  -0.348   0.157  0.00  0.00    +0.000 OA
ATOM     20  H   UNL     1       3.492   0.747   0.235  0.00  0.00    +0.000 HD
BRANCH  18  21
ATOM     21  C   UNL     1       1.350   1.448   1.432  0.00  0.00    +0.000 A 
ATOM     22  C   UNL     1       0.295   1.485   2.332  0.00  0.00    +0.000 A 
ATOM     23  S   UNL     1       0.327   2.844   3.364  0.00  0.00    +0.000 S 
ATOM     24  C   UNL     1       1.715   3.464   2.599  0.00  0.00    +0.000 A 
ATOM     25  N   UNL     1       2.255   4.656   2.976  0.00  0.00    +0.000 NA
ATOM     26  C   UNL     1       3.279   5.022   2.281  0.00  0.00    +0.000 A 
ATOM     27  N   UNL     1       3.823   4.302   1.251  0.00  0.00    +0.000 N 
ATOM     28  C   UNL     1       3.336   3.079   0.864  0.00  0.00    +0.000 A 
ATOM     29  O   UNL     1       3.889   2.434  -0.020  0.00  0.00    +0.000 OA
ATOM     30  C   UNL     1       2.167   2.630   1.594  0.00  0.00    +0.000 A 
ATOM     31  H   UNL     1       4.637   4.632   0.754  0.00  0.00    +0.000 HD
ENDBRANCH  18  21
ENDBRANCH   1  17
BRANCH   1  32
ATOM     32  C   UNL     1       2.395  -0.603  -2.362  0.00  0.00    +0.000 C 
BRANCH  32  33
ATOM     33  N   UNL     1       2.643  -1.624  -3.390  0.00  0.00    +0.000 NA
ATOM     34  H   UNL     1       2.111  -1.398  -4.228  0.00  0.00    +0.000 HD
ATOM     35  H   UNL     1       2.303  -2.526  -3.059  0.00  0.00    +0.000 HD
ENDBRANCH  32  33
ENDBRANCH   1  32
TORSDOF 7
