REMARK  Name = 
REMARK  5 active torsions:
REMARK  status: ('A' for Active; 'I' for Inactive)
REMARK    1  A    between atoms: C_2  and  C_4
REMARK    2  A    between atoms: C_8  and  N_9
REMARK    3  A    between atoms: N_9  and  C_10
REMARK    4  A    between atoms: C_10  and  C_11
REMARK    5  A    between atoms: C_15  and  C_16
REMARK                            x       y       z     vdW  Elec       q    Type
REMARK                         _______ _______ _______ _____ _____    ______ ____
ROOT
ATOM      1  N   UNL     1       2.741  -4.435   1.757  0.00  0.00    +0.000 N 
ATOM      2  H   UNL     1       3.118  -4.212   0.844  0.00  0.00    +0.000 HD
ENDROOT
BRANCH   1   7
ATOM      3  C   UNL     1       0.273  -1.940   1.573  0.00  0.00    +0.000 A 
ATOM      4  N   UNL     1      -0.471  -2.033   2.700  0.00  0.00    +0.000 NA
ATOM      5  C   UNL     1      -0.104  -3.015   3.532  0.00  0.00    +0.000 A 
ATOM      6  C   UNL     1       0.948  -3.867   3.284  0.00  0.00    +0.000 A 
ATOM      7  C   UNL     1       1.652  -3.684   2.110  0.00  0.00    +0.000 A 
ATOM      8  N   UNL     1       1.319  -2.722   1.241  0.00  0.00    +0.000 NA
BRANCH   3  10
ATOM      9  N   UNL     1      -1.207  -0.081   1.009  0.00  0.00    +0.000 N 
ATOM     10  C   UNL     1      -0.127  -0.841   0.613  0.00  0.00    +0.000 C 
ATOM     11  O   UNL     1       0.440  -0.610  -0.448  0.00  0.00    +0.000 OA
ATOM     12  H   UNL     1      -1.532   0.664   0.411  0.00  0.00    +0.000 HD
ATOM     13  H   UNL     1      -1.673  -0.284   1.885  0.00  0.00    +0.000 HD
ENDBRANCH   3  10
ENDBRANCH   1   7
BRANCH   1  14
ATOM     14  C   UNL     1       3.356  -5.481   2.547  0.00  0.00    +0.000 C 
BRANCH  14  15
ATOM     15  C   UNL     1       2.771  -6.849   2.250  0.00  0.00    +0.000 A 
ATOM     16  C   UNL     1       3.331  -7.633   1.246  0.00  0.00    +0.000 A 
ATOM     17  C   UNL     1       2.803  -8.894   1.008  0.00  0.00    +0.000 A 
ATOM     18  C   UNL     1       1.725  -9.335   1.768  0.00  0.00    +0.000 A 
ATOM     19  C   UNL     1       1.195  -8.508   2.759  0.00  0.00    +0.000 A 
ATOM     20  N   UNL     1       1.715  -7.270   3.002  0.00  0.00    +0.000 NA
BRANCH  19  21
ATOM     21  C   UNL     1       0.070  -8.943   3.616  0.00  0.00    +0.000 A 
ATOM     22  C   UNL     1      -0.505  -8.114   4.578  0.00  0.00    +0.000 A 
ATOM     23  N   UNL     1      -1.515  -8.501   5.403  0.00  0.00    +0.000 NA
ATOM     24  C   UNL     1      -1.942  -9.770   5.230  0.00  0.00    +0.000 A 
ATOM     25  C   UNL     1      -1.394 -10.607   4.276  0.00  0.00    +0.000 A 
ATOM     26  N   UNL     1      -0.389 -10.219   3.456  0.00  0.00    +0.000 NA
ENDBRANCH  19  21
ENDBRANCH  14  15
ENDBRANCH   1  14
TORSDOF 5
