REMARK  Name = 
REMARK  8 active torsions:
REMARK  status: ('A' for Active; 'I' for Inactive)
REMARK    1  A    between atoms: N_1  and  C_2
REMARK    2  A    between atoms: C_2  and  C_3
REMARK    3  A    between atoms: C_7  and  O_8
REMARK    4  A    between atoms: O_8  and  C_9
REMARK    5  A    between atoms: C_9  and  C_10
REMARK    6  A    between atoms: C_10  and  O_11
REMARK    7  A    between atoms: C_10  and  C_12
REMARK    8  A    between atoms: C_15  and  C_16
REMARK                            x       y       z     vdW  Elec       q    Type
REMARK                         _______ _______ _______ _____ _____    ______ ____
ROOT
ATOM      1  C   UNL     1       3.324   1.583   7.140  0.00  0.00    +0.000 C 
ENDROOT
BRANCH   1   2
ATOM      2  C   UNL     1       2.276   1.000   8.072  0.00  0.00    +0.000 A 
ATOM      3  C   UNL     1       1.791   1.719   9.179  0.00  0.00    +0.000 A 
ATOM      4  C   UNL     1       0.805   1.187  10.016  0.00  0.00    +0.000 A 
ATOM      5  C   UNL     1       0.269  -0.079   9.762  0.00  0.00    +0.000 A 
ATOM      6  C   UNL     1       0.731  -0.789   8.652  0.00  0.00    +0.000 A 
ATOM      7  F   UNL     1       0.240  -2.000   8.349  0.00  0.00    +0.000 F 
ATOM      8  C   UNL     1       1.716  -0.259   7.816  0.00  0.00    +0.000 A 
BRANCH   5   9
ATOM      9  C   UNL     1      -0.768  -0.603  10.687  0.00  0.00    +0.000 C 
ATOM     10  N   UNL     1      -1.296  -1.837  10.432  0.00  0.00    +0.000 N 
ATOM     11  O   UNL     1      -1.144   0.043  11.659  0.00  0.00    +0.000 OA
ATOM     12  H   UNL     1      -1.019  -2.405   9.642  0.00  0.00    +0.000 HD
ATOM     13  H   UNL     1      -2.000  -2.190  11.066  0.00  0.00    +0.000 HD
ENDBRANCH   5   9
ENDBRANCH   1   2
BRANCH   1  14
ATOM     14  O   UNL     1       3.714   2.880   7.616  0.00  0.00    +0.000 OA
ATOM     15  H   UNL     1       4.485   2.761   8.194  0.00  0.00    +0.000 HD
ENDBRANCH   1  14
BRANCH   1  16
ATOM     16  C   UNL     1       4.572   0.692   6.939  0.00  0.00    +0.000 C 
BRANCH  16  17
ATOM     17  O   UNL     1       5.423   1.358   6.001  0.00  0.00    +0.000 OA
BRANCH  17  22
ATOM     18  C   UNL     1       8.720   1.184   4.491  0.00  0.00    +0.000 A 
ATOM     19  C   UNL     1       9.204  -0.035   4.981  0.00  0.00    +0.000 A 
ATOM     20  C   UNL     1       8.418  -0.820   5.827  0.00  0.00    +0.000 A 
ATOM     21  C   UNL     1       7.139  -0.396   6.201  0.00  0.00    +0.000 A 
ATOM     22  C   UNL     1       6.642   0.813   5.722  0.00  0.00    +0.000 A 
ATOM     23  C   UNL     1       7.432   1.591   4.867  0.00  0.00    +0.000 A 
BRANCH  18  24
ATOM     24  C   UNL     1       9.575   2.065   3.617  0.00  0.00    +0.000 C 
BRANCH  24  25
ATOM     25  N   UNL     1      10.024   1.372   2.415  0.00  0.00    +0.000 NA
ATOM     26  H   UNL     1      10.490   2.040   1.804  0.00  0.00    +0.000 HD
ATOM     27  H   UNL     1       9.206   1.042   1.905  0.00  0.00    +0.000 HD
ENDBRANCH  24  25
ENDBRANCH  18  24
ENDBRANCH  17  22
ENDBRANCH  16  17
ENDBRANCH   1  16
TORSDOF 8
