REMARK  Name = 
REMARK  6 active torsions:
REMARK  status: ('A' for Active; 'I' for Inactive)
REMARK    1  A    between atoms: C_2  and  C_3
REMARK    2  A    between atoms: C_6  and  O_7
REMARK    3  A    between atoms: O_7  and  C_8
REMARK    4  A    between atoms: C_8  and  C_9
REMARK    5  A    between atoms: C_13  and  N_14
REMARK    6  A    between atoms: C_17  and  O_18
REMARK                            x       y       z     vdW  Elec       q    Type
REMARK                         _______ _______ _______ _____ _____    ______ ____
ROOT
ATOM      1  C   UNL     1       9.650   0.041   0.758  0.00  0.00    +0.000 A 
ATOM      2  C   UNL     1      10.268  -0.209   1.984  0.00  0.00    +0.000 A 
ATOM      3  C   UNL     1      11.102   0.742   2.565  0.00  0.00    +0.000 A 
ATOM      4  C   UNL     1      11.309   1.972   1.939  0.00  0.00    +0.000 A 
ATOM      5  C   UNL     1      10.704   2.280   0.721  0.00  0.00    +0.000 A 
ATOM      6  C   UNL     1       9.914   1.283   0.147  0.00  0.00    +0.000 A 
ENDROOT
BRANCH   5   7
ATOM      7  N   UNL     1      10.808   3.521   0.127  0.00  0.00    +0.000 N 
ATOM      8  C   UNL     1      10.902   4.727   0.942  0.00  0.00    +0.000 C 
ATOM      9  C   UNL     1      12.238   5.405   0.683  0.00  0.00    +0.000 C 
ATOM     10  C   UNL     1      12.485   5.619  -0.811  0.00  0.00    +0.000 C 
ATOM     11  C   UNL     1      12.289   4.338  -1.622  0.00  0.00    +0.000 C 
ATOM     12  C   UNL     1      10.948   3.674  -1.322  0.00  0.00    +0.000 C 
BRANCH  10  13
ATOM     13  O   UNL     1      11.647   6.661  -1.312  0.00  0.00    +0.000 OA
ATOM     14  H   UNL     1      10.717   6.399  -1.204  0.00  0.00    +0.000 HD
ENDBRANCH  10  13
ENDBRANCH   5   7
BRANCH   1  15
ATOM     15  C   UNL     1       8.708  -0.946   0.107  0.00  0.00    +0.000 C 
ATOM     16  C   UNL     1       7.589  -1.647   0.866  0.00  0.00    +0.000 C 
ATOM     17  C   UNL     1       7.257  -0.484   0.008  0.00  0.00    +0.000 C 
BRANCH  15  18
ATOM     18  O   UNL     1       9.327  -1.934  -0.748  0.00  0.00    +0.000 OA
BRANCH  18  22
ATOM     19  C   UNL     1       9.354  -1.628  -4.768  0.00  0.00    +0.000 A 
ATOM     20  N   UNL     1       9.099  -0.485  -4.108  0.00  0.00    +0.000 NA
ATOM     21  C   UNL     1       9.136  -0.575  -2.766  0.00  0.00    +0.000 A 
ATOM     22  C   UNL     1       9.402  -1.735  -2.083  0.00  0.00    +0.000 A 
ATOM     23  C   UNL     1       9.735  -2.818  -2.870  0.00  0.00    +0.000 A 
ATOM     24  N   UNL     1       9.712  -2.802  -4.217  0.00  0.00    +0.000 NA
BRANCH  19  26
ATOM     25  N   UNL     1       8.752  -1.628  -7.292  0.00  0.00    +0.000 NA
ATOM     26  C   UNL     1       9.052  -1.634  -6.162  0.00  0.00    +0.000 C 
ENDBRANCH  19  26
ENDBRANCH  18  22
ENDBRANCH  15  18
ENDBRANCH   1  15
TORSDOF 6
