REMARK  Name = 
REMARK  8 active torsions:
REMARK  status: ('A' for Active; 'I' for Inactive)
REMARK    1  A    between atoms: C_1  and  C_2
REMARK    2  A    between atoms: C_3  and  C_4
REMARK    3  A    between atoms: C_4  and  C_5
REMARK    4  A    between atoms: C_4  and  C_16
REMARK    5  A    between atoms: C_5  and  O_6
REMARK    6  A    between atoms: O_6  and  C_7
REMARK    7  A    between atoms: C_10  and  C_11
REMARK    8  A    between atoms: C_20  and  O_21
REMARK                            x       y       z     vdW  Elec       q    Type
REMARK                         _______ _______ _______ _____ _____    ______ ____
ROOT
ATOM      1  C   UNL     1       5.753  -1.425   0.223  0.00  0.00    +0.000 C 
ENDROOT
BRANCH   1   2
ATOM      2  C   UNL     1       5.250   0.011  -0.034  0.00  0.00    +0.000 C 
BRANCH   2   3
ATOM      3  C   UNL     1       5.746   0.617  -1.343  0.00  0.00    +0.000 A 
ATOM      4  C   UNL     1       5.431   0.051  -2.593  0.00  0.00    +0.000 A 
ATOM      5  C   UNL     1       5.833   0.662  -3.785  0.00  0.00    +0.000 A 
ATOM      6  C   UNL     1       6.547   1.857  -3.748  0.00  0.00    +0.000 A 
ATOM      7  C   UNL     1       6.860   2.423  -2.518  0.00  0.00    +0.000 A 
ATOM      8  C   UNL     1       6.474   1.816  -1.325  0.00  0.00    +0.000 A 
BRANCH   7   9
ATOM      9  O   UNL     1       7.540   3.602  -2.435  0.00  0.00    +0.000 OA
ATOM     10  H   UNL     1       7.675   3.942  -3.334  0.00  0.00    +0.000 HD
ENDBRANCH   7   9
ENDBRANCH   2   3
BRANCH   2  13
ATOM     11  C   UNL     1       0.906   0.011  -0.034  0.00  0.00    +0.000 C 
ATOM     12  C   UNL     1       2.426   0.011  -0.034  0.00  0.00    +0.000 C 
ATOM     13  C   UNL     1       3.730   0.011  -0.034  0.00  0.00    +0.000 C 
ENDBRANCH   2  13
ENDBRANCH   1   2
BRANCH   1  14
ATOM     14  O   UNL     1       5.255  -2.368  -0.752  0.00  0.00    +0.000 OA
BRANCH  14  15
ATOM     15  C   UNL     1       5.766  -3.633  -0.567  0.00  0.00    +0.000 A 
ATOM     16  C   UNL     1       5.388  -4.627  -1.456  0.00  0.00    +0.000 A 
ATOM     17  C   UNL     1       5.946  -5.898  -1.300  0.00  0.00    +0.000 A 
ATOM     18  C   UNL     1       6.861  -6.136  -0.270  0.00  0.00    +0.000 A 
ATOM     19  C   UNL     1       7.152  -5.075   0.575  0.00  0.00    +0.000 A 
ATOM     20  N   UNL     1       6.627  -3.839   0.452  0.00  0.00    +0.000 NA
BRANCH  18  21
ATOM     21  C   UNL     1       7.487  -7.470  -0.130  0.00  0.00    +0.000 C 
ATOM     22  N   UNL     1       8.392  -7.680   0.873  0.00  0.00    +0.000 N 
ATOM     23  O   UNL     1       7.211  -8.381  -0.905  0.00  0.00    +0.000 OA
ATOM     24  H   UNL     1       8.702  -7.001   1.551  0.00  0.00    +0.000 HD
ATOM     25  H   UNL     1       8.811  -8.599   0.918  0.00  0.00    +0.000 HD
ENDBRANCH  18  21
ENDBRANCH  14  15
ENDBRANCH   1  14
TORSDOF 7
