REMARK  Name = 
REMARK  8 active torsions:
REMARK  status: ('A' for Active; 'I' for Inactive)
REMARK    1  A    between atoms: N_1  and  C_2
REMARK    2  A    between atoms: C_2  and  C_3
REMARK    3  A    between atoms: C_3  and  N_4
REMARK    4  A    between atoms: C_3  and  C_17
REMARK    5  A    between atoms: C_5  and  C_7
REMARK    6  A    between atoms: C_20  and  C_21
REMARK    7  A    between atoms: C_21  and  N_22
REMARK    8  A    between atoms: C_23  and  C_25
REMARK                            x       y       z     vdW  Elec       q    Type
REMARK                         _______ _______ _______ _____ _____    ______ ____
ROOT
ATOM      1  C   UNL     1       2.829  -0.975  -0.908  0.00  0.00    +0.000 C 
ENDROOT
BRANCH   1   2
ATOM      2  C   UNL     1       4.361  -0.972  -0.840  0.00  0.00    +0.000 A 
ATOM      3  C   UNL     1       5.068   0.238  -0.830  0.00  0.00    +0.000 A 
ATOM      4  C   UNL     1       6.468   0.251  -0.758  0.00  0.00    +0.000 A 
ATOM      5  C   UNL     1       7.198  -0.945  -0.697  0.00  0.00    +0.000 A 
ATOM      6  C   UNL     1       6.495  -2.155  -0.682  0.00  0.00    +0.000 A 
ATOM      7  C   UNL     1       5.097  -2.167  -0.760  0.00  0.00    +0.000 A 
BRANCH   5   8
ATOM      8  C   UNL     1       8.705  -0.929  -0.635  0.00  0.00    +0.000 C 
BRANCH   8   9
ATOM      9  N   UNL     1       9.184  -0.846   0.723  0.00  0.00    +0.000 N 
ATOM     10  C   UNL     1      10.530  -0.874   1.007  0.00  0.00    +0.000 C 
ATOM     11  O   UNL     1      11.383  -1.012   0.134  0.00  0.00    +0.000 OA
ATOM     12  H   UNL     1       8.524  -0.637   1.456  0.00  0.00    +0.000 HD
BRANCH  10  13
ATOM     13  C   UNL     1      10.875  -0.725   2.405  0.00  0.00    +0.000 A 
ATOM     14  C   UNL     1      10.100  -0.598   3.548  0.00  0.00    +0.000 A 
ATOM     15  C   UNL     1      10.967  -0.488   4.663  0.00  0.00    +0.000 A 
ATOM     16  C   UNL     1      12.254  -0.550   4.188  0.00  0.00    +0.000 A 
ATOM     17  N   UNL     1      12.190  -0.694   2.827  0.00  0.00    +0.000 N 
ATOM     18  H   UNL     1      12.983  -0.769   2.200  0.00  0.00    +0.000 HD
ENDBRANCH  10  13
ENDBRANCH   8   9
ENDBRANCH   5   8
ENDBRANCH   1   2
BRANCH   1  19
ATOM     19  N   UNL     1       2.312  -1.483   0.358  0.00  0.00    +0.000 N 
ATOM     20  C   UNL     1       0.986  -1.532   0.689  0.00  0.00    +0.000 C 
ATOM     21  O   UNL     1       0.101  -1.070  -0.020  0.00  0.00    +0.000 OA
ATOM     22  H   UNL     1       2.990  -1.923   0.964  0.00  0.00    +0.000 HD
BRANCH  20  23
ATOM     23  C   UNL     1       0.686  -2.138   1.995  0.00  0.00    +0.000 A 
ATOM     24  C   UNL     1      -0.484  -1.816   2.668  0.00  0.00    +0.000 A 
ATOM     25  S   UNL     1      -0.604  -2.544   4.208  0.00  0.00    +0.000 S 
ATOM     26  C   UNL     1       0.881  -3.351   4.006  0.00  0.00    +0.000 A 
ATOM     27  N   UNL     1       1.394  -4.143   4.987  0.00  0.00    +0.000 NA
ATOM     28  C   UNL     1       2.518  -4.705   4.688  0.00  0.00    +0.000 A 
ATOM     29  N   UNL     1       3.165  -4.563   3.490  0.00  0.00    +0.000 N 
ATOM     30  C   UNL     1       2.673  -3.798   2.461  0.00  0.00    +0.000 A 
ATOM     31  O   UNL     1       3.259  -3.729   1.389  0.00  0.00    +0.000 OA
ATOM     32  C   UNL     1       1.442  -3.094   2.769  0.00  0.00    +0.000 A 
ATOM     33  H   UNL     1       4.032  -5.047   3.307  0.00  0.00    +0.000 HD
ENDBRANCH  20  23
ENDBRANCH   1  19
BRANCH   1  34
ATOM     34  C   UNL     1       2.297  -1.790  -2.130  0.00  0.00    +0.000 C 
BRANCH  34  35
ATOM     35  N   UNL     1       2.767  -1.298  -3.432  0.00  0.00    +0.000 NA
ATOM     36  H   UNL     1       2.523  -1.979  -4.149  0.00  0.00    +0.000 HD
ATOM     37  H   UNL     1       3.785  -1.238  -3.424  0.00  0.00    +0.000 HD
ENDBRANCH  34  35
ENDBRANCH   1  34
TORSDOF 8
