REMARK  Name = 
REMARK  8 active torsions:
REMARK  status: ('A' for Active; 'I' for Inactive)
REMARK    1  A    between atoms: N_1  and  C_2
REMARK    2  A    between atoms: C_2  and  C_3
REMARK    3  A    between atoms: C_3  and  N_4
REMARK    4  A    between atoms: C_3  and  C_17
REMARK    5  A    between atoms: C_5  and  C_7
REMARK    6  A    between atoms: C_20  and  O_21
REMARK    7  A    between atoms: O_21  and  C_22
REMARK    8  A    between atoms: C_22  and  C_23
REMARK                            x       y       z     vdW  Elec       q    Type
REMARK                         _______ _______ _______ _____ _____    ______ ____
ROOT
ATOM      1  C   UNL     1       2.801  -0.664  -1.104  0.00  0.00    +0.000 C 
ENDROOT
BRANCH   1   2
ATOM      2  C   UNL     1       4.325  -0.629  -1.154  0.00  0.00    +0.000 A 
ATOM      3  C   UNL     1       5.063  -1.813  -1.294  0.00  0.00    +0.000 A 
ATOM      4  C   UNL     1       6.457  -1.769  -1.428  0.00  0.00    +0.000 A 
ATOM      5  C   UNL     1       7.126  -0.546  -1.442  0.00  0.00    +0.000 A 
ATOM      6  C   UNL     1       6.405   0.631  -1.246  0.00  0.00    +0.000 A 
ATOM      7  C   UNL     1       5.019   0.591  -1.118  0.00  0.00    +0.000 A 
BRANCH   5   8
ATOM      8  O   UNL     1       8.479  -0.597  -1.668  0.00  0.00    +0.000 OA
BRANCH   8   9
ATOM      9  C   UNL     1       9.020   0.599  -2.242  0.00  0.00    +0.000 C 
BRANCH   9  10
ATOM     10  C   UNL     1      10.328   0.321  -2.946  0.00  0.00    +0.000 A 
ATOM     11  C   UNL     1      11.437  -0.124  -2.232  0.00  0.00    +0.000 A 
ATOM     12  C   UNL     1      12.634  -0.328  -2.914  0.00  0.00    +0.000 A 
ATOM     13  C   UNL     1      12.689  -0.089  -4.281  0.00  0.00    +0.000 A 
ATOM     14  C   UNL     1      11.544   0.354  -4.916  0.00  0.00    +0.000 A 
ATOM     15  N   UNL     1      10.373   0.571  -4.282  0.00  0.00    +0.000 NA
ENDBRANCH   9  10
ENDBRANCH   8   9
ENDBRANCH   5   8
ENDBRANCH   1   2
BRANCH   1  16
ATOM     16  N   UNL     1       2.294  -0.020  -2.309  0.00  0.00    +0.000 N 
ATOM     17  C   UNL     1       1.093  -0.317  -2.893  0.00  0.00    +0.000 C 
ATOM     18  O   UNL     1       0.300  -1.111  -2.405  0.00  0.00    +0.000 OA
ATOM     19  H   UNL     1       2.950   0.570  -2.808  0.00  0.00    +0.000 HD
BRANCH  17  20
ATOM     20  C   UNL     1       0.793   0.422  -4.130  0.00  0.00    +0.000 A 
ATOM     21  C   UNL     1      -0.523   0.603  -4.528  0.00  0.00    +0.000 A 
ATOM     22  S   UNL     1      -0.681   1.490  -5.977  0.00  0.00    +0.000 S 
ATOM     23  C   UNL     1       1.006   1.616  -6.151  0.00  0.00    +0.000 A 
ATOM     24  N   UNL     1       1.559   2.240  -7.230  0.00  0.00    +0.000 NA
ATOM     25  C   UNL     1       2.849   2.212  -7.260  0.00  0.00    +0.000 A 
ATOM     26  N   UNL     1       3.642   1.634  -6.302  0.00  0.00    +0.000 N 
ATOM     27  C   UNL     1       3.132   1.089  -5.153  0.00  0.00    +0.000 A 
ATOM     28  O   UNL     1       3.869   0.745  -4.236  0.00  0.00    +0.000 OA
ATOM     29  C   UNL     1       1.681   1.024  -5.100  0.00  0.00    +0.000 A 
ATOM     30  H   UNL     1       4.648   1.687  -6.360  0.00  0.00    +0.000 HD
ENDBRANCH  17  20
ENDBRANCH   1  16
BRANCH   1  31
ATOM     31  C   UNL     1       2.241   0.032   0.171  0.00  0.00    +0.000 C 
BRANCH  31  32
ATOM     32  N   UNL     1       2.726  -0.538   1.436  0.00  0.00    +0.000 NA
ATOM     33  H   UNL     1       2.504   0.102   2.197  0.00  0.00    +0.000 HD
ATOM     34  H   UNL     1       3.744  -0.607   1.409  0.00  0.00    +0.000 HD
ENDBRANCH  31  32
ENDBRANCH   1  31
TORSDOF 8
