REMARK  Name = 
REMARK  9 active torsions:
REMARK  status: ('A' for Active; 'I' for Inactive)
REMARK    1  A    between atoms: C_1  and  O_2
REMARK    2  A    between atoms: O_2  and  C_3
REMARK    3  A    between atoms: C_10  and  C_11
REMARK    4  A    between atoms: N_13  and  C_14
REMARK    5  A    between atoms: C_14  and  C_15
REMARK    6  A    between atoms: C_18  and  C_19
REMARK    7  A    between atoms: C_19  and  O_20
REMARK    8  A    between atoms: O_20  and  C_21
REMARK    9  A    between atoms: C_21  and  C_22
REMARK                            x       y       z     vdW  Elec       q    Type
REMARK                         _______ _______ _______ _____ _____    ______ ____
ROOT
ATOM      1  C   UNL     1       2.966  -0.562   3.418  0.00  0.00    +0.000 C 
ENDROOT
BRANCH   1   2
ATOM      2  C   UNL     1       1.851   0.452   3.482  0.00  0.00    +0.000 A 
ATOM      3  C   UNL     1       0.518   0.049   3.638  0.00  0.00    +0.000 A 
ATOM      4  C   UNL     1      -0.513   0.997   3.691  0.00  0.00    +0.000 A 
ATOM      5  C   UNL     1      -0.234   2.366   3.575  0.00  0.00    +0.000 A 
ATOM      6  C   UNL     1       1.095   2.765   3.394  0.00  0.00    +0.000 A 
ATOM      7  C   UNL     1       2.126   1.819   3.342  0.00  0.00    +0.000 A 
BRANCH   5   8
ATOM      8  C   UNL     1      -1.344   3.387   3.631  0.00  0.00    +0.000 C 
BRANCH   8   9
ATOM      9  O   UNL     1      -2.013   3.279   4.884  0.00  0.00    +0.000 OA
BRANCH   9  10
ATOM     10  C   UNL     1      -3.053   4.254   5.023  0.00  0.00    +0.000 C 
BRANCH  10  11
ATOM     11  C   UNL     1      -3.731   4.129   6.364  0.00  0.00    +0.000 A 
ATOM     12  C   UNL     1      -3.024   3.708   7.487  0.00  0.00    +0.000 A 
ATOM     13  N   UNL     1      -3.580   3.607   8.720  0.00  0.00    +0.000 NA
ATOM     14  C   UNL     1      -4.884   3.947   8.791  0.00  0.00    +0.000 A 
ATOM     15  C   UNL     1      -5.597   4.382   7.687  0.00  0.00    +0.000 A 
ATOM     16  N   UNL     1      -5.041   4.490   6.457  0.00  0.00    +0.000 NA
ENDBRANCH  10  11
ENDBRANCH   9  10
ENDBRANCH   8   9
ENDBRANCH   5   8
ENDBRANCH   1   2
BRANCH   1  19
ATOM     17  C   UNL     1       4.153  -1.905   1.727  0.00  0.00    +0.000 C 
ATOM     18  O   UNL     1       4.847  -2.445   2.586  0.00  0.00    +0.000 OA
ATOM     19  N   UNL     1       3.215  -0.968   2.058  0.00  0.00    +0.000 N 
ATOM     20  H   UNL     1       2.689  -0.500   1.335  0.00  0.00    +0.000 HD
BRANCH  17  28
ATOM     21  C   UNL     1       2.508  -0.896  -1.124  0.00  0.00    +0.000 A 
ATOM     22  N   UNL     1       2.046  -0.680  -2.372  0.00  0.00    +0.000 NA
ATOM     23  C   UNL     1       2.621  -1.344  -3.378  0.00  0.00    +0.000 A 
ATOM     24  N   UNL     1       3.622  -2.216  -3.293  0.00  0.00    +0.000 NA
ATOM     25  C   UNL     1       4.058  -2.396  -2.034  0.00  0.00    +0.000 A 
ATOM     26  S   UNL     1       5.334  -3.475  -1.738  0.00  0.00    +0.000 S 
ATOM     27  C   UNL     1       5.277  -3.161  -0.069  0.00  0.00    +0.000 A 
ATOM     28  C   UNL     1       4.301  -2.240   0.299  0.00  0.00    +0.000 A 
ATOM     29  C   UNL     1       3.573  -1.782  -0.883  0.00  0.00    +0.000 A 
BRANCH  21  31
ATOM     30  C   UNL     1       0.602   0.231  -0.372  0.00  0.00    +0.000 C 
ATOM     31  O   UNL     1       1.937  -0.182  -0.092  0.00  0.00    +0.000 OA
ENDBRANCH  21  31
ENDBRANCH  17  28
ENDBRANCH   1  19
TORSDOF 8
