REMARK  Name = 
REMARK  6 active torsions:
REMARK  status: ('A' for Active; 'I' for Inactive)
REMARK    1  A    between atoms: N_1  and  C_2
REMARK    2  A    between atoms: C_2  and  C_3
REMARK    3  A    between atoms: C_6  and  O_7
REMARK    4  A    between atoms: O_7  and  C_8
REMARK    5  A    between atoms: C_8  and  C_9
REMARK    6  A    between atoms: C_12  and  C_13
REMARK                            x       y       z     vdW  Elec       q    Type
REMARK                         _______ _______ _______ _____ _____    ______ ____
ROOT
ATOM      1  C   UNL     1       2.355  -5.125   3.995  0.00  0.00    +0.000 C 
ENDROOT
BRANCH   1   2
ATOM      2  C   UNL     1       2.717  -6.003   5.159  0.00  0.00    +0.000 A 
ATOM      3  C   UNL     1       3.231  -5.519   6.364  0.00  0.00    +0.000 A 
ATOM      4  C   UNL     1       3.548  -6.411   7.386  0.00  0.00    +0.000 A 
ATOM      5  C   UNL     1       3.339  -7.766   7.162  0.00  0.00    +0.000 A 
ATOM      6  N   UNL     1       2.849  -8.279   5.997  0.00  0.00    +0.000 NA
ATOM      7  C   UNL     1       2.556  -7.382   5.032  0.00  0.00    +0.000 A 
BRANCH   5   8
ATOM      8  C   UNL     1       3.638  -8.755   8.240  0.00  0.00    +0.000 C 
ATOM      9  N   UNL     1       3.386 -10.063   7.918  0.00  0.00    +0.000 N 
ATOM     10  O   UNL     1       4.077  -8.437   9.338  0.00  0.00    +0.000 OA
ATOM     11  H   UNL     1       3.010 -10.282   7.001  0.00  0.00    +0.000 HD
ATOM     12  H   UNL     1       3.536 -10.786   8.604  0.00  0.00    +0.000 HD
ENDBRANCH   5   8
ENDBRANCH   1   2
BRANCH   1  13
ATOM     13  O   UNL     1       2.633  -3.749   4.251  0.00  0.00    +0.000 OA
BRANCH  13  17
ATOM     14  C   UNL     1       2.887  -0.733   1.216  0.00  0.00    +0.000 C 
ATOM     15  C   UNL     1       2.693  -2.195   0.792  0.00  0.00    +0.000 C 
ATOM     16  C   UNL     1       3.030  -3.170   1.906  0.00  0.00    +0.000 C 
ATOM     17  C   UNL     1       2.231  -2.886   3.181  0.00  0.00    +0.000 C 
ATOM     18  C   UNL     1       2.467  -1.441   3.630  0.00  0.00    +0.000 C 
ATOM     19  C   UNL     1       2.135  -0.437   2.526  0.00  0.00    +0.000 C 
BRANCH  14  20
ATOM     20  C   UNL     1       2.435   0.179   0.062  0.00  0.00    +0.000 C 
BRANCH  20  21
ATOM     21  N   UNL     1       2.611   1.591   0.371  0.00  0.00    +0.000 NA
ATOM     22  H   UNL     1       2.294   2.152  -0.419  0.00  0.00    +0.000 HD
ATOM     23  H   UNL     1       3.602   1.796   0.490  0.00  0.00    +0.000 HD
ENDBRANCH  20  21
ENDBRANCH  14  20
ENDBRANCH  13  17
ENDBRANCH   1  13
TORSDOF 6
