REMARK  Name = 
REMARK  5 active torsions:
REMARK  status: ('A' for Active; 'I' for Inactive)
REMARK    1  A    between atoms: C_2  and  C_4
REMARK    2  A    between atoms: C_7  and  N_8
REMARK    3  A    between atoms: N_8  and  C_9
REMARK    4  A    between atoms: C_9  and  C_10
REMARK    5  A    between atoms: C_14  and  C_15
REMARK                            x       y       z     vdW  Elec       q    Type
REMARK                         _______ _______ _______ _____ _____    ______ ____
ROOT
ATOM      1  C   UNL     1       4.862   3.931   4.676  0.00  0.00    +0.000 C 
ENDROOT
BRANCH   1   2
ATOM      2  C   UNL     1       5.656   5.103   5.248  0.00  0.00    +0.000 A 
ATOM      3  N   UNL     1       5.186   6.347   5.024  0.00  0.00    +0.000 NA
ATOM      4  C   UNL     1       5.881   7.359   5.562  0.00  0.00    +0.000 A 
ATOM      5  C   UNL     1       7.017   7.182   6.312  0.00  0.00    +0.000 A 
ATOM      6  C   UNL     1       7.435   5.877   6.514  0.00  0.00    +0.000 A 
ATOM      7  N   UNL     1       6.754   4.828   5.989  0.00  0.00    +0.000 NA
BRANCH   6   8
ATOM      8  C   UNL     1       8.656   5.551   7.284  0.00  0.00    +0.000 A 
ATOM      9  C   UNL     1       9.095   6.354   8.358  0.00  0.00    +0.000 A 
ATOM     10  C   UNL     1      10.276   6.065   9.051  0.00  0.00    +0.000 A 
ATOM     11  C   UNL     1      11.031   4.962   8.685  0.00  0.00    +0.000 A 
ATOM     12  F   UNL     1      12.166   4.691   9.342  0.00  0.00    +0.000 F 
ATOM     13  C   UNL     1      10.625   4.137   7.646  0.00  0.00    +0.000 A 
ATOM     14  C   UNL     1       9.443   4.429   6.954  0.00  0.00    +0.000 A 
ENDBRANCH   6   8
ENDBRANCH   1   2
BRANCH   1  15
ATOM     15  N   UNL     1       3.810   3.503   5.608  0.00  0.00    +0.000 N 
ATOM     16  H   UNL     1       4.195   3.291   6.523  0.00  0.00    +0.000 HD
BRANCH  15  20
ATOM     17  C   UNL     1       1.215   0.574   4.346  0.00  0.00    +0.000 A 
ATOM     18  C   UNL     1       2.278   0.966   3.547  0.00  0.00    +0.000 A 
ATOM     19  N   UNL     1       3.174   1.919   3.932  0.00  0.00    +0.000 NA
ATOM     20  C   UNL     1       2.985   2.469   5.151  0.00  0.00    +0.000 A 
ATOM     21  C   UNL     1       1.907   2.048   5.945  0.00  0.00    +0.000 A 
ATOM     22  N   UNL     1       1.000   1.103   5.580  0.00  0.00    +0.000 NA
BRANCH  17  24
ATOM     23  N   UNL     1      -0.825  -0.693   4.670  0.00  0.00    +0.000 N 
ATOM     24  C   UNL     1       0.241  -0.437   3.848  0.00  0.00    +0.000 C 
ATOM     25  O   UNL     1       0.370  -0.995   2.766  0.00  0.00    +0.000 OA
ATOM     26  H   UNL     1      -1.545  -1.332   4.365  0.00  0.00    +0.000 HD
ATOM     27  H   UNL     1      -0.932  -0.178   5.537  0.00  0.00    +0.000 HD
ENDBRANCH  17  24
ENDBRANCH  15  20
ENDBRANCH   1  15
TORSDOF 5
