REMARK  Name = 
REMARK  6 active torsions:
REMARK  status: ('A' for Active; 'I' for Inactive)
REMARK    1  A    between atoms: C_2  and  C_4
REMARK    2  A    between atoms: C_2  and  C_14
REMARK    3  A    between atoms: C_4  and  O_5
REMARK    4  A    between atoms: O_5  and  C_6
REMARK    5  A    between atoms: C_18  and  C_19
REMARK    6  A    between atoms: C_19  and  C_20
REMARK                            x       y       z     vdW  Elec       q    Type
REMARK                         _______ _______ _______ _____ _____    ______ ____
ROOT
ATOM      1  F   UNL     1       1.098   0.765  -0.230  0.00  0.00    +0.000 F 
ATOM      2  C   UNL     1       2.220   0.011  -0.047  0.00  0.00    +0.000 C 
ATOM      3  F   UNL     1       1.913  -1.231  -0.530  0.00  0.00    +0.000 F 
ENDROOT
BRANCH   2   4
ATOM      4  C   UNL     1       2.635  -0.028   1.419  0.00  0.00    +0.000 A 
ATOM      5  C   UNL     1       2.921   1.160   2.111  0.00  0.00    +0.000 A 
ATOM      6  C   UNL     1       3.306   1.127   3.451  0.00  0.00    +0.000 A 
ATOM      7  C   UNL     1       3.376  -0.088   4.131  0.00  0.00    +0.000 A 
ATOM      8  C   UNL     1       3.064  -1.286   3.478  0.00  0.00    +0.000 A 
ATOM      9  C   UNL     1       2.722  -1.248   2.114  0.00  0.00    +0.000 A 
BRANCH   8  10
ATOM     10  C   UNL     1       3.022  -2.590   4.241  0.00  0.00    +0.000 C 
BRANCH  10  11
ATOM     11  C   UNL     1       4.349  -3.327   4.187  0.00  0.00    +0.000 C 
ATOM     12  C   UNL     1       4.335  -4.660   4.950  0.00  0.00    +0.000 C 
ATOM     13  O   UNL     1       5.434  -4.251   5.791  0.00  0.00    +0.000 OA
ATOM     14  C   UNL     1       5.440  -2.934   5.194  0.00  0.00    +0.000 C 
ENDBRANCH  10  11
ENDBRANCH   8  10
ENDBRANCH   2   4
BRANCH   2  15
ATOM     15  C   UNL     1       3.360   0.592  -0.906  0.00  0.00    +0.000 C 
BRANCH  15  16
ATOM     16  O   UNL     1       3.034   0.625  -2.309  0.00  0.00    +0.000 OA
BRANCH  16  17
ATOM     17  C   UNL     1       4.015   1.146  -3.108  0.00  0.00    +0.000 A 
ATOM     18  C   UNL     1       5.381   1.131  -2.835  0.00  0.00    +0.000 A 
ATOM     19  N   UNL     1       6.328   1.665  -3.640  0.00  0.00    +0.000 NA
ATOM     20  C   UNL     1       5.892   2.230  -4.789  0.00  0.00    +0.000 A 
ATOM     21 CL   UNL     1       7.175   2.891  -5.725  0.00  0.00    +0.000 Cl
ATOM     22  C   UNL     1       4.556   2.279  -5.172  0.00  0.00    +0.000 A 
ATOM     23 CL   UNL     1       4.026   3.006  -6.642  0.00  0.00    +0.000 Cl
ATOM     24  C   UNL     1       3.607   1.717  -4.317  0.00  0.00    +0.000 A 
ENDBRANCH  16  17
ENDBRANCH  15  16
ENDBRANCH   2  15
TORSDOF 6
