REMARK  Name = 
REMARK  8 active torsions:
REMARK  status: ('A' for Active; 'I' for Inactive)
REMARK    1  A    between atoms: C_1  and  C_2
REMARK    2  A    between atoms: C_2  and  C_3
REMARK    3  A    between atoms: C_2  and  C_4
REMARK    4  A    between atoms: C_2  and  C_22
REMARK    5  A    between atoms: C_4  and  N_5
REMARK    6  A    between atoms: C_10  and  C_11
REMARK    7  A    between atoms: C_14  and  C_15
REMARK    8  A    between atoms: C_25  and  O_26
REMARK                            x       y       z     vdW  Elec       q    Type
REMARK                         _______ _______ _______ _____ _____    ______ ____
ROOT
ATOM      1  N   UNL     1       2.696   1.872  -1.572  0.00  0.00    +0.000 N 
ATOM      2  C   UNL     1       3.116   3.132  -1.956  0.00  0.00    +0.000 A 
ATOM      3  C   UNL     1       3.909   3.963  -1.160  0.00  0.00    +0.000 A 
ATOM      4  N   UNL     1       4.372   5.175  -1.544  0.00  0.00    +0.000 NA
ATOM      5  C   UNL     1       4.025   5.531  -2.797  0.00  0.00    +0.000 A 
ATOM      6  C   UNL     1       3.241   4.735  -3.633  0.00  0.00    +0.000 A 
ATOM      7  N   UNL     1       2.773   3.526  -3.203  0.00  0.00    +0.000 NA
ATOM      8  H   UNL     1       1.926   1.516  -2.130  0.00  0.00    +0.000 HD
ENDROOT
BRANCH   6   9
ATOM      9  C   UNL     1       2.912   5.131  -5.017  0.00  0.00    +0.000 A 
ATOM     10  C   UNL     1       2.808   4.174  -6.041  0.00  0.00    +0.000 A 
ATOM     11  C   UNL     1       2.521   4.546  -7.362  0.00  0.00    +0.000 A 
ATOM     12  C   UNL     1       2.321   5.890  -7.698  0.00  0.00    +0.000 A 
ATOM     13  C   UNL     1       2.424   6.854  -6.688  0.00  0.00    +0.000 A 
ATOM     14  C   UNL     1       2.711   6.479  -5.371  0.00  0.00    +0.000 A 
BRANCH  12  15
ATOM     15  C   UNL     1       1.984   6.315  -9.106  0.00  0.00    +0.000 C 
ATOM     16  F   UNL     1       1.927   5.281  -9.992  0.00  0.00    +0.000 F 
ATOM     17  F   UNL     1       0.777   6.940  -9.184  0.00  0.00    +0.000 F 
ATOM     18  F   UNL     1       2.891   7.194  -9.617  0.00  0.00    +0.000 F 
ENDBRANCH  12  15
ENDBRANCH   6   9
BRANCH   1  19
ATOM     19  C   UNL     1       2.946   1.346  -0.242  0.00  0.00    +0.000 C 
BRANCH  19  21
ATOM     20  C   UNL     1       3.316  -1.028  -1.039  0.00  0.00    +0.000 C 
ATOM     21  C   UNL     1       2.516  -0.139  -0.055  0.00  0.00    +0.000 C 
ATOM     22  C   UNL     1       2.962  -0.562   1.370  0.00  0.00    +0.000 C 
BRANCH  21  23
ATOM     23  C   UNL     1       0.991  -0.313  -0.170  0.00  0.00    +0.000 A 
ATOM     24  C   UNL     1       0.398  -1.173  -1.113  0.00  0.00    +0.000 A 
ATOM     25  C   UNL     1      -0.989  -1.351  -1.168  0.00  0.00    +0.000 A 
ATOM     26  C   UNL     1      -1.805  -0.666  -0.280  0.00  0.00    +0.000 A 
ATOM     27  C   UNL     1      -1.258   0.202   0.650  0.00  0.00    +0.000 A 
ATOM     28  C   UNL     1       0.128   0.379   0.703  0.00  0.00    +0.000 A 
BRANCH  26  29
ATOM     29  O   UNL     1      -3.158  -0.824  -0.290  0.00  0.00    +0.000 OA
ATOM     30  H   UNL     1      -3.389  -1.466  -0.981  0.00  0.00    +0.000 HD
ENDBRANCH  26  29
ENDBRANCH  21  23
ENDBRANCH  19  21
ENDBRANCH   1  19
TORSDOF 6
