REMARK  Name = 
REMARK  9 active torsions:
REMARK  status: ('A' for Active; 'I' for Inactive)
REMARK    1  A    between atoms: C_1  and  O_2
REMARK    2  A    between atoms: O_2  and  C_3
REMARK    3  A    between atoms: C_6  and  C_7
REMARK    4  A    between atoms: C_7  and  C_8
REMARK    5  A    between atoms: C_7  and  N_9
REMARK    6  A    between atoms: N_9  and  C_10
REMARK    7  A    between atoms: C_13  and  C_14
REMARK    8  A    between atoms: C_14  and  O_16
REMARK    9  A    between atoms: C_18  and  N_19
REMARK                            x       y       z     vdW  Elec       q    Type
REMARK                         _______ _______ _______ _____ _____    ______ ____
ROOT
ATOM      1  C   UNL     1       5.003   6.807  -2.556  0.00  0.00    +0.000 A 
ATOM      2  N   UNL     1       6.332   6.774  -2.781  0.00  0.00    +0.000 NA
ATOM      3  C   UNL     1       6.997   7.955  -2.821  0.00  0.00    +0.000 A 
ATOM      4  C   UNL     1       6.395   9.193  -2.654  0.00  0.00    +0.000 A 
ATOM      5  C   UNL     1       5.012   9.230  -2.474  0.00  0.00    +0.000 A 
ATOM      6  C   UNL     1       4.294   8.032  -2.446  0.00  0.00    +0.000 A 
ENDROOT
BRANCH   6   7
ATOM      7  N   UNL     1       2.920   8.057  -2.108  0.00  0.00    +0.000 N 
ATOM      8  H   UNL     1       2.418   8.834  -2.526  0.00  0.00    +0.000 HD
ATOM      9  H   UNL     1       2.484   7.163  -2.351  0.00  0.00    +0.000 HD
ENDBRANCH   6   7
BRANCH   1  10
ATOM     10  N   UNL     1       4.262   5.614  -2.522  0.00  0.00    +0.000 N 
ATOM     11  H   UNL     1       3.687   5.590  -1.673  0.00  0.00    +0.000 HD
BRANCH  10  12
ATOM     12  C   UNL     1       5.024   4.361  -2.622  0.00  0.00    +0.000 C 
ATOM     13  C   UNL     1       5.127   3.957  -4.097  0.00  0.00    +0.000 C 
BRANCH  12  17
ATOM     14  C   UNL     1       3.101   1.311  -0.269  0.00  0.00    +0.000 A 
ATOM     15  C   UNL     1       4.292   1.020  -0.923  0.00  0.00    +0.000 A 
ATOM     16  C   UNL     1       4.915   2.003  -1.692  0.00  0.00    +0.000 A 
ATOM     17  C   UNL     1       4.328   3.264  -1.803  0.00  0.00    +0.000 A 
ATOM     18  N   UNL     1       3.165   3.574  -1.164  0.00  0.00    +0.000 NA
ATOM     19  C   UNL     1       2.586   2.593  -0.427  0.00  0.00    +0.000 A 
BRANCH  14  21
ATOM     20  C   UNL     1       2.943  -0.831   0.735  0.00  0.00    +0.000 C 
ATOM     21  O   UNL     1       2.384   0.461   0.521  0.00  0.00    +0.000 OA
ENDBRANCH  14  21
ENDBRANCH  12  17
ENDBRANCH  10  12
ENDBRANCH   1  10
BRANCH   4  22
ATOM     22  C   UNL     1       7.256  10.392  -2.701  0.00  0.00    +0.000 C 
ATOM     23  O   UNL     1       8.340  10.397  -3.260  0.00  0.00    +0.000 OA
BRANCH  22  24
ATOM     24  O   UNL     1       6.767  11.465  -2.045  0.00  0.00    +0.000 OA
ATOM     25  H   UNL     1       5.992  11.306  -1.479  0.00  0.00    +0.000 HD
ENDBRANCH  22  24
ENDBRANCH   4  22
TORSDOF 7
