REMARK  Name = 
REMARK  10 active torsions:
REMARK  status: ('A' for Active; 'I' for Inactive)
REMARK    1  A    between atoms: C_1  and  O_2
REMARK    2  A    between atoms: O_2  and  C_3
REMARK    3  A    between atoms: C_5  and  C_6
REMARK    4  A    between atoms: C_6  and  N_7
REMARK    5  A    between atoms: C_13  and  C_14
REMARK    6  A    between atoms: C_14  and  O_16
REMARK    7  A    between atoms: C_20  and  O_21
REMARK    8  A    between atoms: O_21  and  C_22
REMARK    9  A    between atoms: C_23  and  O_24
REMARK   10  A    between atoms: O_24  and  C_25
REMARK                            x       y       z     vdW  Elec       q    Type
REMARK                         _______ _______ _______ _____ _____    ______ ____
ROOT
ATOM      1  C   UNL     1       2.873   1.907   4.305  0.00  0.00    +0.000 C 
ENDROOT
BRANCH   1   2
ATOM      2  N   UNL     1       3.293   0.776   5.131  0.00  0.00    +0.000 N 
ATOM      3  C   UNL     1       4.504   0.706   5.783  0.00  0.00    +0.000 A 
ATOM      4  C   UNL     1       4.501  -0.423   6.574  0.00  0.00    +0.000 A 
ATOM      5  C   UNL     1       3.249  -1.054   6.404  0.00  0.00    +0.000 A 
ATOM      6  N   UNL     1       2.774  -2.169   7.013  0.00  0.00    +0.000 NA
ATOM      7  C   UNL     1       1.509  -2.509   6.674  0.00  0.00    +0.000 A 
ATOM      8  C   UNL     1       0.721  -1.858   5.736  0.00  0.00    +0.000 A 
ATOM      9  C   UNL     1       1.225  -0.711   5.111  0.00  0.00    +0.000 A 
ATOM     10  C   UNL     1       2.513  -0.309   5.481  0.00  0.00    +0.000 A 
BRANCH   8  11
ATOM     11  C   UNL     1      -0.665  -2.270   5.429  0.00  0.00    +0.000 C 
ATOM     12  O   UNL     1      -1.498  -1.476   5.025  0.00  0.00    +0.000 OA
BRANCH  11  13
ATOM     13  O   UNL     1      -0.933  -3.580   5.598  0.00  0.00    +0.000 OA
ATOM     14  H   UNL     1      -0.176  -4.175   5.730  0.00  0.00    +0.000 HD
ENDBRANCH  11  13
ENDBRANCH   8  11
ENDBRANCH   1   2
BRANCH   1  17
ATOM     15  C   UNL     1       2.994   0.898   0.618  0.00  0.00    +0.000 A 
ATOM     16  C   UNL     1       2.549   1.104   1.932  0.00  0.00    +0.000 A 
ATOM     17  C   UNL     1       3.344   1.762   2.881  0.00  0.00    +0.000 A 
ATOM     18  C   UNL     1       4.595   2.253   2.490  0.00  0.00    +0.000 A 
ATOM     19  C   UNL     1       5.052   2.074   1.180  0.00  0.00    +0.000 A 
ATOM     20  C   UNL     1       4.246   1.413   0.228  0.00  0.00    +0.000 A 
BRANCH  15  22
ATOM     21  C   UNL     1       1.115  -0.510   0.144  0.00  0.00    +0.000 C 
ATOM     22  O   UNL     1       2.272   0.185  -0.304  0.00  0.00    +0.000 OA
ENDBRANCH  15  22
BRANCH  19  23
ATOM     23  O   UNL     1       6.260   2.565   0.740  0.00  0.00    +0.000 OA
ATOM     24  C   UNL     1       7.299   2.618   1.711  0.00  0.00    +0.000 C 
ENDBRANCH  19  23
BRANCH  20  25
ATOM     25  O   UNL     1       4.827   1.260  -1.011  0.00  0.00    +0.000 OA
ATOM     26  C   UNL     1       3.964   1.235  -2.138  0.00  0.00    +0.000 C 
ENDBRANCH  20  25
ENDBRANCH   1  17
TORSDOF 7
