REMARK  Name = 
REMARK  4 active torsions:
REMARK  status: ('A' for Active; 'I' for Inactive)
REMARK    1  A    between atoms: C_2  and  C_4
REMARK    2  A    between atoms: N_8  and  C_9
REMARK    3  A    between atoms: C_9  and  C_10
REMARK    4  A    between atoms: C_15  and  C_16
REMARK                            x       y       z     vdW  Elec       q    Type
REMARK                         _______ _______ _______ _____ _____    ______ ____
ROOT
ATOM      1  C   UNL     1       6.419   0.645  -5.179  0.00  0.00    +0.000 C 
ATOM      2  C   UNL     1       6.725  -0.767  -5.641  0.00  0.00    +0.000 C 
ATOM      3  C   UNL     1       7.456  -0.212  -4.465  0.00  0.00    +0.000 C 
ENDROOT
BRANCH   1   8
ATOM      4  C   UNL     1       1.431  -0.529  -5.196  0.00  0.00    +0.000 A 
ATOM      5  C   UNL     1       1.761   0.172  -4.061  0.00  0.00    +0.000 A 
ATOM      6  N   UNL     1       2.990   0.682  -3.825  0.00  0.00    +0.000 NA
ATOM      7  C   UNL     1       3.937   0.450  -4.751  0.00  0.00    +0.000 A 
ATOM      8  N   UNL     1       5.197   0.942  -4.441  0.00  0.00    +0.000 N 
ATOM      9  N   UNL     1       3.710  -0.229  -5.888  0.00  0.00    +0.000 NA
ATOM     10  C   UNL     1       2.462  -0.717  -6.084  0.00  0.00    +0.000 A 
ATOM     11  H   UNL     1       5.192   1.464  -3.579  0.00  0.00    +0.000 HD
BRANCH   4  13
ATOM     12  N   UNL     1      -0.971  -0.440  -4.881  0.00  0.00    +0.000 N 
ATOM     13  C   UNL     1       0.095  -1.075  -5.458  0.00  0.00    +0.000 C 
ATOM     14  O   UNL     1      -0.061  -2.041  -6.192  0.00  0.00    +0.000 OA
ATOM     15  H   UNL     1      -1.889  -0.771  -5.153  0.00  0.00    +0.000 HD
ATOM     16  H   UNL     1      -0.918   0.489  -4.487  0.00  0.00    +0.000 HD
ENDBRANCH   4  13
ENDBRANCH   1   8
BRANCH   1  17
ATOM     17  C   UNL     1       6.893   1.826  -6.023  0.00  0.00    +0.000 A 
ATOM     18  C   UNL     1       6.211   2.172  -7.203  0.00  0.00    +0.000 A 
ATOM     19  C   UNL     1       6.535   3.323  -7.924  0.00  0.00    +0.000 A 
ATOM     20  C   UNL     1       7.563   4.147  -7.485  0.00  0.00    +0.000 A 
ATOM     21  F   UNL     1       7.826   5.261  -8.181  0.00  0.00    +0.000 F 
ATOM     22  C   UNL     1       8.290   3.838  -6.343  0.00  0.00    +0.000 A 
ATOM     23  C   UNL     1       7.947   2.674  -5.622  0.00  0.00    +0.000 A 
BRANCH  22  24
ATOM     24  C   UNL     1       9.401   4.726  -5.866  0.00  0.00    +0.000 C 
ATOM     25  F   UNL     1       9.590   5.862  -6.590  0.00  0.00    +0.000 F 
ATOM     26  F   UNL     1       9.207   5.142  -4.581  0.00  0.00    +0.000 F 
ATOM     27  F   UNL     1      10.605   4.087  -5.861  0.00  0.00    +0.000 F 
ENDBRANCH  22  24
ENDBRANCH   1  17
TORSDOF 4
