REMARK  Name = 
REMARK  7 active torsions:
REMARK  status: ('A' for Active; 'I' for Inactive)
REMARK    1  A    between atoms: C_2  and  C_21
REMARK    2  A    between atoms: N_3  and  C_4
REMARK    3  A    between atoms: C_4  and  C_5
REMARK    4  A    between atoms: C_8  and  C_9
REMARK    5  A    between atoms: C_9  and  N_10
REMARK    6  A    between atoms: C_11  and  C_13
REMARK    7  A    between atoms: C_15  and  O_16
REMARK                            x       y       z     vdW  Elec       q    Type
REMARK                         _______ _______ _______ _____ _____    ______ ____
ROOT
ATOM      1  C   UNL     1       9.388   9.513  -0.607  0.00  0.00    +0.000 A 
ATOM      2  C   UNL     1       8.510   8.654   0.069  0.00  0.00    +0.000 A 
ATOM      3  C   UNL     1       8.168   8.888   1.407  0.00  0.00    +0.000 A 
ATOM      4  C   UNL     1       8.677   9.999   2.092  0.00  0.00    +0.000 A 
ATOM      5  C   UNL     1       9.540  10.868   1.409  0.00  0.00    +0.000 A 
ATOM      6  C   UNL     1       9.882  10.634   0.072  0.00  0.00    +0.000 A 
ENDROOT
BRANCH   1   7
ATOM      7  C   UNL     1       9.803   9.224  -2.027  0.00  0.00    +0.000 C 
BRANCH   7  10
ATOM      8  O   UNL     1      10.231   9.168  -4.747  0.00  0.00    +0.000 OA
ATOM      9  C   UNL     1       9.186   9.673  -4.342  0.00  0.00    +0.000 C 
ATOM     10  N   UNL     1       8.917   9.811  -3.001  0.00  0.00    +0.000 N 
ATOM     11  H   UNL     1       7.973  10.032  -2.701  0.00  0.00    +0.000 HD
BRANCH   9  12
ATOM     12  C   UNL     1       8.181  10.187  -5.281  0.00  0.00    +0.000 A 
ATOM     13  C   UNL     1       8.563  10.558  -6.564  0.00  0.00    +0.000 A 
ATOM     14  S   UNL     1       7.273  11.125  -7.526  0.00  0.00    +0.000 S 
ATOM     15  C   UNL     1       6.150  10.847  -6.278  0.00  0.00    +0.000 A 
ATOM     16  N   UNL     1       4.825  11.084  -6.464  0.00  0.00    +0.000 NA
ATOM     17  C   UNL     1       4.082  10.794  -5.448  0.00  0.00    +0.000 A 
ATOM     18  N   UNL     1       4.548  10.300  -4.258  0.00  0.00    +0.000 N 
ATOM     19  C   UNL     1       5.883  10.084  -4.013  0.00  0.00    +0.000 A 
ATOM     20  O   UNL     1       6.277   9.699  -2.915  0.00  0.00    +0.000 OA
ATOM     21  C   UNL     1       6.757  10.364  -5.132  0.00  0.00    +0.000 A 
ATOM     22  H   UNL     1       3.915  10.109  -3.495  0.00  0.00    +0.000 HD
ENDBRANCH   9  12
ENDBRANCH   7  10
ENDBRANCH   1   7
BRANCH   4  23
ATOM     23  C   UNL     1       8.299  10.269   3.526  0.00  0.00    +0.000 C 
BRANCH  23  24
ATOM     24  N   UNL     1       9.214   9.678   4.470  0.00  0.00    +0.000 N 
ATOM     25  C   UNL     1       9.071   9.877   5.825  0.00  0.00    +0.000 C 
ATOM     26  O   UNL     1       8.138  10.508   6.317  0.00  0.00    +0.000 OA
ATOM     27  H   UNL     1      10.106   9.291   4.169  0.00  0.00    +0.000 HD
BRANCH  25  28
ATOM     28  C   UNL     1      10.156   9.214   6.691  0.00  0.00    +0.000 C 
ATOM     29  C   UNL     1      10.853  10.206   7.613  0.00  0.00    +0.000 C 
ATOM     30  C   UNL     1      12.210   9.570   7.831  0.00  0.00    +0.000 C 
ATOM     31  C   UNL     1      12.523   8.948   6.473  0.00  0.00    +0.000 C 
ATOM     32  N   UNL     1      11.230   8.594   5.859  0.00  0.00    +0.000 NA
ATOM     33  H   UNL     1      11.103   7.581   5.870  0.00  0.00    +0.000 HD
BRANCH  30  34
ATOM     34  O   UNL     1      12.131   8.569   8.846  0.00  0.00    +0.000 OA
ATOM     35  H   UNL     1      11.663   7.799   8.483  0.00  0.00    +0.000 HD
ENDBRANCH  30  34
ENDBRANCH  25  28
ENDBRANCH  23  24
ENDBRANCH   4  23
TORSDOF 7
