REMARK  Name = 
REMARK  5 active torsions:
REMARK  status: ('A' for Active; 'I' for Inactive)
REMARK    1  A    between atoms: N_1  and  C_2
REMARK    2  A    between atoms: C_2  and  C_3
REMARK    3  A    between atoms: C_3  and  N_4
REMARK    4  A    between atoms: C_9  and  C_10
REMARK    5  A    between atoms: C_10  and  O_11
REMARK                            x       y       z     vdW  Elec       q    Type
REMARK                         _______ _______ _______ _____ _____    ______ ____
ROOT
ATOM      1  N   UNL     1       4.479   1.186   0.415  0.00  0.00    +0.000 N 
ATOM      2  C   UNL     1       5.320   2.355   0.690  0.00  0.00    +0.000 C 
ATOM      3  C   UNL     1       6.775   1.933   0.402  0.00  0.00    +0.000 C 
ATOM      4  C   UNL     1       6.661   0.446   0.492  0.00  0.00    +0.000 A 
ATOM      5  C   UNL     1       7.688  -0.491   0.505  0.00  0.00    +0.000 A 
ATOM      6  C   UNL     1       7.353  -1.851   0.547  0.00  0.00    +0.000 A 
ATOM      7  C   UNL     1       5.996  -2.223   0.577  0.00  0.00    +0.000 A 
ATOM      8  C   UNL     1       4.975  -1.260   0.545  0.00  0.00    +0.000 A 
ATOM      9  C   UNL     1       5.312   0.080   0.499  0.00  0.00    +0.000 A 
ENDROOT
BRANCH   1  10
ATOM     10  C   UNL     1       3.047   1.209   0.670  0.00  0.00    +0.000 C 
BRANCH  10  11
ATOM     11  C   UNL     1       2.679   0.859   2.128  0.00  0.00    +0.000 C 
BRANCH  11  12
ATOM     12  N   UNL     1       1.233   0.934   2.373  0.00  0.00    +0.000 NA
ATOM     13  H   UNL     1       1.052   0.693   3.347  0.00  0.00    +0.000 HD
ATOM     14  H   UNL     1       0.759   0.227   1.815  0.00  0.00    +0.000 HD
ENDBRANCH  11  12
ENDBRANCH  10  11
ENDBRANCH   1  10
BRANCH   6  15
ATOM     15  C   UNL     1       8.440  -2.897   0.560  0.00  0.00    +0.000 C 
BRANCH  15  16
ATOM     16  O   UNL     1       9.215  -2.832  -0.630  0.00  0.00    +0.000 OA
ATOM     17  H   UNL     1       8.588  -2.761  -1.370  0.00  0.00    +0.000 HD
ENDBRANCH  15  16
ENDBRANCH   6  15
TORSDOF 5
