REMARK  Name = 
REMARK  6 active torsions:
REMARK  status: ('A' for Active; 'I' for Inactive)
REMARK    1  A    between atoms: C_2  and  C_19
REMARK    2  A    between atoms: N_3  and  C_4
REMARK    3  A    between atoms: C_4  and  C_5
REMARK    4  A    between atoms: C_8  and  C_9
REMARK    5  A    between atoms: C_9  and  O_10
REMARK    6  A    between atoms: C_9  and  C_11
REMARK                            x       y       z     vdW  Elec       q    Type
REMARK                         _______ _______ _______ _____ _____    ______ ____
ROOT
ATOM      1  C   UNL     1      11.410   4.295   4.176  0.00  0.00    +0.000 C 
ENDROOT
BRANCH   1   2
ATOM      2  C   UNL     1       9.928   4.375   4.479  0.00  0.00    +0.000 A 
ATOM      3  N   UNL     1       9.542   5.033   5.588  0.00  0.00    +0.000 NA
ATOM      4  C   UNL     1       8.221   5.053   5.851  0.00  0.00    +0.000 A 
ATOM      5  C   UNL     1       7.270   4.458   5.051  0.00  0.00    +0.000 A 
ATOM      6  C   UNL     1       7.778   3.748   3.980  0.00  0.00    +0.000 A 
ATOM      7  N   UNL     1       9.090   3.683   3.676  0.00  0.00    +0.000 NA
BRANCH   5   8
ATOM      8  C   UNL     1       5.800   4.631   5.296  0.00  0.00    +0.000 C 
BRANCH   8   9
ATOM      9  C   UNL     1       5.035   5.372   4.197  0.00  0.00    +0.000 A 
ATOM     10  C   UNL     1       3.636   5.239   4.095  0.00  0.00    +0.000 A 
ATOM     11  C   UNL     1       2.915   5.938   3.123  0.00  0.00    +0.000 A 
ATOM     12  C   UNL     1       3.573   6.799   2.250  0.00  0.00    +0.000 A 
ATOM     13  C   UNL     1       4.951   6.969   2.354  0.00  0.00    +0.000 A 
ATOM     14  C   UNL     1       5.671   6.275   3.328  0.00  0.00    +0.000 A 
ENDBRANCH   8   9
BRANCH   8  15
ATOM     15  O   UNL     1       5.283   3.324   5.547  0.00  0.00    +0.000 OA
ATOM     16  H   UNL     1       4.711   3.077   4.803  0.00  0.00    +0.000 HD
ENDBRANCH   8  15
ENDBRANCH   5   8
ENDBRANCH   1   2
BRANCH   1  19
ATOM     17  O   UNL     1      14.166   3.490   4.263  0.00  0.00    +0.000 OA
ATOM     18  C   UNL     1      13.275   2.709   4.548  0.00  0.00    +0.000 C 
ATOM     19  N   UNL     1      11.943   3.029   4.618  0.00  0.00    +0.000 N 
ATOM     20  H   UNL     1      11.267   2.278   4.639  0.00  0.00    +0.000 HD
BRANCH  18  21
ATOM     21  C   UNL     1      13.462   1.268   4.666  0.00  0.00    +0.000 A 
ATOM     22  C   UNL     1      14.266   0.543   3.806  0.00  0.00    +0.000 A 
ATOM     23  S   UNL     1      13.857  -1.124   3.816  0.00  0.00    +0.000 S 
ATOM     24  C   UNL     1      12.706  -0.896   5.055  0.00  0.00    +0.000 A 
ATOM     25  N   UNL     1      11.859  -1.880   5.461  0.00  0.00    +0.000 NA
ATOM     26  C   UNL     1      11.076  -1.536   6.432  0.00  0.00    +0.000 A 
ATOM     27  N   UNL     1      11.099  -0.321   7.074  0.00  0.00    +0.000 N 
ATOM     28  C   UNL     1      11.958   0.692   6.721  0.00  0.00    +0.000 A 
ATOM     29  O   UNL     1      12.040   1.731   7.364  0.00  0.00    +0.000 OA
ATOM     30  C   UNL     1      12.749   0.390   5.547  0.00  0.00    +0.000 A 
ATOM     31  H   UNL     1      10.522  -0.147   7.883  0.00  0.00    +0.000 HD
ENDBRANCH  18  21
ENDBRANCH   1  19
TORSDOF 6
