REMARK  Name = 
REMARK  5 active torsions:
REMARK  status: ('A' for Active; 'I' for Inactive)
REMARK    1  A    between atoms: N_1  and  C_2
REMARK    2  A    between atoms: C_2  and  C_3
REMARK    3  A    between atoms: C_6  and  O_7
REMARK    4  A    between atoms: O_7  and  C_8
REMARK    5  A    between atoms: C_8  and  C_9
REMARK                            x       y       z     vdW  Elec       q    Type
REMARK                         _______ _______ _______ _____ _____    ______ ____
ROOT
ATOM      1  C   UNL     1       3.009   1.141   0.766  0.00  0.00    +0.000 A 
ATOM      2  C   UNL     1       2.844   2.392   0.156  0.00  0.00    +0.000 A 
ATOM      3  C   UNL     1       3.098   3.573   0.862  0.00  0.00    +0.000 A 
ATOM      4  C   UNL     1       3.513   3.520   2.191  0.00  0.00    +0.000 A 
ATOM      5  C   UNL     1       3.691   2.277   2.801  0.00  0.00    +0.000 A 
ATOM      6  C   UNL     1       3.441   1.095   2.096  0.00  0.00    +0.000 A 
ENDROOT
BRANCH   1   7
ATOM      7  C   UNL     1       2.695  -0.124   0.008  0.00  0.00    +0.000 C 
BRANCH   7   8
ATOM      8  N   UNL     1       3.490  -0.237  -1.209  0.00  0.00    +0.000 NA
ATOM      9  H   UNL     1       3.337  -1.154  -1.622  0.00  0.00    +0.000 HD
ATOM     10  H   UNL     1       4.477  -0.192  -0.959  0.00  0.00    +0.000 HD
ENDBRANCH   7   8
ENDBRANCH   1   7
BRANCH   4  11
ATOM     11  O   UNL     1       3.764   4.599   2.998  0.00  0.00    +0.000 OA
BRANCH  11  12
ATOM     12  C   UNL     1       3.637   5.890   2.386  0.00  0.00    +0.000 C 
BRANCH  12  13
ATOM     13  C   UNL     1       3.972   6.983   3.421  0.00  0.00    +0.000 C 
ATOM     14  C   UNL     1       3.768   8.372   2.800  0.00  0.00    +0.000 C 
ATOM     15  C   UNL     1       4.175   9.484   3.763  0.00  0.00    +0.000 C 
ATOM     16  C   UNL     1       5.581   9.242   4.302  0.00  0.00    +0.000 C 
ATOM     17  C   UNL     1       5.711   7.838   4.888  0.00  0.00    +0.000 C 
ATOM     18  N   UNL     1       5.362   6.829   3.892  0.00  0.00    +0.000 NA
ATOM     19  H   UNL     1       5.461   5.892   4.290  0.00  0.00    +0.000 HD
ENDBRANCH  12  13
ENDBRANCH  11  12
ENDBRANCH   4  11
TORSDOF 5
