REMARK  Name = 
REMARK  5 active torsions:
REMARK  status: ('A' for Active; 'I' for Inactive)
REMARK    1  A    between atoms: C_2  and  C_4
REMARK    2  A    between atoms: C_7  and  N_8
REMARK    3  A    between atoms: N_8  and  C_9
REMARK    4  A    between atoms: C_9  and  C_10
REMARK    5  A    between atoms: C_14  and  C_15
REMARK                            x       y       z     vdW  Elec       q    Type
REMARK                         _______ _______ _______ _____ _____    ______ ____
ROOT
ATOM      1  C   UNL     1       4.926   6.008   1.339  0.00  0.00    +0.000 C 
ENDROOT
BRANCH   1   2
ATOM      2  C   UNL     1       5.830   7.201   1.179  0.00  0.00    +0.000 A 
ATOM      3  C   UNL     1       7.195   7.044   0.985  0.00  0.00    +0.000 A 
ATOM      4  N   UNL     1       8.059   8.072   0.851  0.00  0.00    +0.000 NA
ATOM      5  C   UNL     1       7.533   9.321   0.893  0.00  0.00    +0.000 A 
ATOM      6  C   UNL     1       6.182   9.625   1.078  0.00  0.00    +0.000 A 
ATOM      7  C   UNL     1       5.334   8.513   1.223  0.00  0.00    +0.000 A 
BRANCH   6   8
ATOM      8  C   UNL     1       5.685  11.021   1.121  0.00  0.00    +0.000 A 
ATOM      9  C   UNL     1       6.486  12.069   1.623  0.00  0.00    +0.000 A 
ATOM     10  C   UNL     1       6.026  13.389   1.648  0.00  0.00    +0.000 A 
ATOM     11  C   UNL     1       4.753  13.685   1.184  0.00  0.00    +0.000 A 
ATOM     12  F   UNL     1       4.315  14.950   1.210  0.00  0.00    +0.000 F 
ATOM     13  C   UNL     1       3.930  12.686   0.694  0.00  0.00    +0.000 A 
ATOM     14  C   UNL     1       4.400  11.375   0.660  0.00  0.00    +0.000 A 
ATOM     15  F   UNL     1       3.577  10.445   0.150  0.00  0.00    +0.000 F 
ENDBRANCH   6   8
ENDBRANCH   1   2
BRANCH   1  16
ATOM     16  N   UNL     1       4.476   5.530   0.035  0.00  0.00    +0.000 N 
ATOM     17  H   UNL     1       4.191   6.292  -0.579  0.00  0.00    +0.000 HD
BRANCH  16  21
ATOM     18  C   UNL     1       1.996   2.200  -0.395  0.00  0.00    +0.000 A 
ATOM     19  C   UNL     1       2.774   2.283   0.749  0.00  0.00    +0.000 A 
ATOM     20  C   UNL     1       3.590   3.407   0.922  0.00  0.00    +0.000 A 
ATOM     21  C   UNL     1       3.606   4.433  -0.027  0.00  0.00    +0.000 A 
ATOM     22  C   UNL     1       2.797   4.222  -1.153  0.00  0.00    +0.000 A 
ATOM     23  N   UNL     1       1.986   3.150  -1.365  0.00  0.00    +0.000 NA
BRANCH  18  25
ATOM     24  N   UNL     1       0.445   0.952  -1.793  0.00  0.00    +0.000 N 
ATOM     25  C   UNL     1       1.138   0.990  -0.612  0.00  0.00    +0.000 C 
ATOM     26  O   UNL     1       1.063   0.078   0.202  0.00  0.00    +0.000 OA
ATOM     27  H   UNL     1      -0.102   0.135  -2.019  0.00  0.00    +0.000 HD
ATOM     28  H   UNL     1       0.584   1.686  -2.478  0.00  0.00    +0.000 HD
ENDBRANCH  18  25
ENDBRANCH  16  21
ENDBRANCH   1  16
TORSDOF 5
