REMARK  Name = 
REMARK  7 active torsions:
REMARK  status: ('A' for Active; 'I' for Inactive)
REMARK    1  A    between atoms: N_1  and  C_2
REMARK    2  A    between atoms: C_2  and  C_3
REMARK    3  A    between atoms: C_7  and  C_8
REMARK    4  A    between atoms: C_8  and  C_9
REMARK    5  A    between atoms: C_9  and  N_10
REMARK    6  A    between atoms: N_10  and  C_11
REMARK    7  A    between atoms: C_14  and  C_15
REMARK                            x       y       z     vdW  Elec       q    Type
REMARK                         _______ _______ _______ _____ _____    ______ ____
ROOT
ATOM      1  N   UNL     1       8.010   5.039  -0.648  0.00  0.00    +0.000 N 
ATOM      2  H   UNL     1       8.455   4.689  -1.495  0.00  0.00    +0.000 HD
ENDROOT
BRANCH   1   3
ATOM      3  C   UNL     1       8.263   6.429  -0.551  0.00  0.00    +0.000 A 
ATOM      4  N   UNL     1       7.206   7.251  -0.348  0.00  0.00    +0.000 NA
ATOM      5  C   UNL     1       7.419   8.583  -0.247  0.00  0.00    +0.000 A 
ATOM      6  C   UNL     1       8.665   9.175  -0.317  0.00  0.00    +0.000 A 
ATOM      7  C   UNL     1       9.763   8.332  -0.503  0.00  0.00    +0.000 A 
ATOM      8  C   UNL     1       9.565   6.952  -0.628  0.00  0.00    +0.000 A 
ATOM      9 CL   UNL     1      10.943   5.946  -0.896  0.00  0.00    +0.000 Cl
BRANCH   6  10
ATOM     10  C   UNL     1       8.866  10.638  -0.214  0.00  0.00    +0.000 C 
ATOM     11  N   UNL     1       7.775  11.456  -0.092  0.00  0.00    +0.000 N 
ATOM     12  O   UNL     1       9.991  11.117  -0.247  0.00  0.00    +0.000 OA
ATOM     13  H   UNL     1       6.811  11.176  -0.089  0.00  0.00    +0.000 HD
ATOM     14  H   UNL     1       7.965  12.452  -0.047  0.00  0.00    +0.000 HD
ENDBRANCH   6  10
ENDBRANCH   1   3
BRANCH   1  15
ATOM     15  C   UNL     1       6.574   4.728  -0.567  0.00  0.00    +0.000 C 
BRANCH  15  16
ATOM     16  C   UNL     1       6.279   3.228  -0.684  0.00  0.00    +0.000 C 
BRANCH  16  21
ATOM     17  C   UNL     1       2.772   2.717   0.787  0.00  0.00    +0.000 A 
ATOM     18  C   UNL     1       1.992   2.749  -0.376  0.00  0.00    +0.000 A 
ATOM     19  C   UNL     1       2.593   2.867  -1.630  0.00  0.00    +0.000 A 
ATOM     20  C   UNL     1       3.982   2.979  -1.736  0.00  0.00    +0.000 A 
ATOM     21  C   UNL     1       4.785   2.976  -0.588  0.00  0.00    +0.000 A 
ATOM     22  C   UNL     1       4.168   2.830   0.666  0.00  0.00    +0.000 A 
BRANCH  17  23
ATOM     23  C   UNL     1       2.122   2.634   2.147  0.00  0.00    +0.000 C 
BRANCH  23  24
ATOM     24  N   UNL     1       1.271   1.457   2.288  0.00  0.00    +0.000 NA
ATOM     25  H   UNL     1       0.904   1.426   3.238  0.00  0.00    +0.000 HD
ATOM     26  H   UNL     1       1.847   0.623   2.177  0.00  0.00    +0.000 HD
ENDBRANCH  23  24
ENDBRANCH  17  23
ENDBRANCH  16  21
ENDBRANCH  15  16
ENDBRANCH   1  15
TORSDOF 7
