REMARK  Name = 
REMARK  8 active torsions:
REMARK  status: ('A' for Active; 'I' for Inactive)
REMARK    1  A    between atoms: C_1  and  C_2
REMARK    2  A    between atoms: C_2  and  O_3
REMARK    3  A    between atoms: C_5  and  N_6
REMARK    4  A    between atoms: C_9  and  C_10
REMARK    5  A    between atoms: C_10  and  C_13
REMARK    6  A    between atoms: C_13  and  N_14
REMARK    7  A    between atoms: N_14  and  C_15
REMARK    8  A    between atoms: C_18  and  C_19
REMARK                            x       y       z     vdW  Elec       q    Type
REMARK                         _______ _______ _______ _____ _____    ______ ____
ROOT
ATOM      1  C   UNL     1       7.071  -4.741   0.699  0.00  0.00    +0.000 C 
ATOM      2  F   UNL     1       6.098  -5.051   1.610  0.00  0.00    +0.000 F 
ATOM      3  F   UNL     1       6.572  -5.162  -0.506  0.00  0.00    +0.000 F 
ENDROOT
BRANCH   1   7
ATOM      4  N   UNL     1       5.415  -0.092   0.309  0.00  0.00    +0.000 N 
ATOM      5  C   UNL     1       6.496  -0.973   0.521  0.00  0.00    +0.000 A 
ATOM      6  C   UNL     1       6.288  -2.349   0.418  0.00  0.00    +0.000 A 
ATOM      7  C   UNL     1       7.342  -3.240   0.687  0.00  0.00    +0.000 A 
ATOM      8  C   UNL     1       8.593  -2.684   0.978  0.00  0.00    +0.000 A 
ATOM      9  C   UNL     1       8.719  -1.308   1.029  0.00  0.00    +0.000 A 
ATOM     10  N   UNL     1       7.699  -0.457   0.831  0.00  0.00    +0.000 NA
ATOM     11  H   UNL     1       5.201  -0.096  -0.690  0.00  0.00    +0.000 HD
BRANCH   4  15
ATOM     12  C   UNL     1       4.759   4.175  -0.857  0.00  0.00    +0.000 C 
ATOM     13  C   UNL     1       4.940   2.672  -0.697  0.00  0.00    +0.000 C 
ATOM     14  C   UNL     1       4.170   2.044   0.495  0.00  0.00    +0.000 C 
ATOM     15  C   UNL     1       5.444   1.248   0.848  0.00  0.00    +0.000 C 
ATOM     16  C   UNL     1       6.255   2.259   0.014  0.00  0.00    +0.000 C 
BRANCH  13  17
ATOM     17  O   UNL     1       4.719   2.019  -1.970  0.00  0.00    +0.000 OA
ATOM     18  H   UNL     1       3.806   2.246  -2.216  0.00  0.00    +0.000 HD
ENDBRANCH  13  17
ENDBRANCH   4  15
ENDBRANCH   1   7
BRANCH   1  19
ATOM     19  C   UNL     1       8.326  -5.606   1.015  0.00  0.00    +0.000 C 
BRANCH  19  20
ATOM     20  N   UNL     1       8.091  -7.058   1.128  0.00  0.00    +0.000 N 
ATOM     21  H   UNL     1       7.322  -7.406   0.558  0.00  0.00    +0.000 HD
BRANCH  20  22
ATOM     22  C   UNL     1       9.184  -7.925   1.226  0.00  0.00    +0.000 A 
ATOM     23  C   UNL     1      10.484  -7.495   1.534  0.00  0.00    +0.000 A 
ATOM     24  C   UNL     1      11.533  -8.404   1.714  0.00  0.00    +0.000 A 
ATOM     25  C   UNL     1      11.297  -9.777   1.631  0.00  0.00    +0.000 A 
ATOM     26  C   UNL     1      10.006 -10.229   1.341  0.00  0.00    +0.000 A 
ATOM     27  C   UNL     1       8.964  -9.307   1.152  0.00  0.00    +0.000 A 
BRANCH  25  28
ATOM     28  C   UNL     1      12.442 -10.701   1.857  0.00  0.00    +0.000 C 
ATOM     29  N   UNL     1      12.160 -11.966   2.285  0.00  0.00    +0.000 N 
ATOM     30  O   UNL     1      13.599 -10.335   1.702  0.00  0.00    +0.000 OA
ATOM     31  H   UNL     1      11.258 -12.222   2.660  0.00  0.00    +0.000 HD
ATOM     32  H   UNL     1      12.957 -12.535   2.543  0.00  0.00    +0.000 HD
ENDBRANCH  25  28
ENDBRANCH  20  22
ENDBRANCH  19  20
ENDBRANCH   1  19
TORSDOF 7
