REMARK  Name = 
REMARK  7 active torsions:
REMARK  status: ('A' for Active; 'I' for Inactive)
REMARK    1  A    between atoms: C_1  and  C_2
REMARK    2  A    between atoms: C_5  and  N_6
REMARK    3  A    between atoms: N_6  and  C_7
REMARK    4  A    between atoms: C_7  and  C_8
REMARK    5  A    between atoms: C_8  and  C_9
REMARK    6  A    between atoms: C_13  and  C_14
REMARK    7  A    between atoms: C_18  and  C_19
REMARK                            x       y       z     vdW  Elec       q    Type
REMARK                         _______ _______ _______ _____ _____    ______ ____
ROOT
ATOM      1  C   UNL     1      -6.377  -1.905  -0.070  0.00  0.00    +0.000 A 
ATOM      2  C   UNL     1      -5.818  -3.165  -0.300  0.00  0.00    +0.000 A 
ATOM      3  C   UNL     1      -6.601  -4.310  -0.170  0.00  0.00    +0.000 A 
ATOM      4  C   UNL     1      -7.944  -4.205   0.204  0.00  0.00    +0.000 A 
ATOM      5  C   UNL     1      -8.541  -2.955   0.443  0.00  0.00    +0.000 A 
ATOM      6  C   UNL     1      -7.734  -1.812   0.289  0.00  0.00    +0.000 A 
ENDROOT
BRANCH   5   7
ATOM      7  C   UNL     1      -9.940  -2.858   0.898  0.00  0.00    +0.000 A 
ATOM      8  C   UNL     1     -10.790  -1.805   0.562  0.00  0.00    +0.000 A 
ATOM      9  N   UNL     1     -12.052  -1.678   1.041  0.00  0.00    +0.000 NA
ATOM     10  C   UNL     1     -12.446  -2.659   1.882  0.00  0.00    +0.000 A 
ATOM     11  C   UNL     1     -11.630  -3.731   2.222  0.00  0.00    +0.000 A 
ATOM     12  C   UNL     1     -12.094  -4.793   3.167  0.00  0.00    +0.000 C 
ATOM     13  N   UNL     1     -10.371  -3.846   1.729  0.00  0.00    +0.000 NA
ENDBRANCH   5   7
BRANCH   1  14
ATOM     14  C   UNL     1      -5.518  -0.662  -0.101  0.00  0.00    +0.000 C 
BRANCH  14  15
ATOM     15  C   UNL     1      -5.018  -0.323   1.309  0.00  0.00    +0.000 C 
BRANCH  15  16
ATOM     16  N   UNL     1      -4.204   0.895   1.298  0.00  0.00    +0.000 N 
ATOM     17  H   UNL     1      -3.495   0.887   0.567  0.00  0.00    +0.000 HD
BRANCH  16  22
ATOM     18  C   UNL     1      -1.973   3.016   6.078  0.00  0.00    +0.000 C 
ATOM     19  C   UNL     1      -2.583   2.417   4.848  0.00  0.00    +0.000 A 
ATOM     20  C   UNL     1      -3.718   1.623   4.931  0.00  0.00    +0.000 A 
ATOM     21  C   UNL     1      -4.262   1.091   3.759  0.00  0.00    +0.000 A 
ATOM     22  C   UNL     1      -3.665   1.329   2.522  0.00  0.00    +0.000 A 
ATOM     23  C   UNL     1      -2.554   2.176   2.550  0.00  0.00    +0.000 A 
ATOM     24  N   UNL     1      -1.991   2.705   3.668  0.00  0.00    +0.000 NA
ENDBRANCH  16  22
ENDBRANCH  15  16
ENDBRANCH  14  15
ENDBRANCH   1  14
TORSDOF 5
