REMARK  Name = 
REMARK  5 active torsions:
REMARK  status: ('A' for Active; 'I' for Inactive)
REMARK    1  A    between atoms: C_1  and  C_2
REMARK    2  A    between atoms: C_2  and  O_3
REMARK    3  A    between atoms: C_2  and  C_13
REMARK    4  A    between atoms: O_3  and  C_4
REMARK    5  A    between atoms: C_7  and  C_8
REMARK                            x       y       z     vdW  Elec       q    Type
REMARK                         _______ _______ _______ _____ _____    ______ ____
ROOT
ATOM      1  C   UNL     1       2.351  -1.147  -2.210  0.00  0.00    +0.000 A 
ATOM      2  C   UNL     1       2.042  -0.918  -3.550  0.00  0.00    +0.000 A 
ATOM      3  C   UNL     1       1.606  -1.974  -4.345  0.00  0.00    +0.000 A 
ATOM      4  C   UNL     1       1.519  -3.235  -3.775  0.00  0.00    +0.000 A 
ATOM      5  N   UNL     1       1.866  -3.508  -2.485  0.00  0.00    +0.000 NA
ATOM      6  C   UNL     1       2.280  -2.455  -1.745  0.00  0.00    +0.000 A 
ENDROOT
BRANCH   4   7
ATOM      7  C   UNL     1       1.020  -4.390  -4.588  0.00  0.00    +0.000 C 
ATOM      8  N   UNL     1       0.975  -5.593  -3.940  0.00  0.00    +0.000 N 
ATOM      9  O   UNL     1       0.670  -4.270  -5.753  0.00  0.00    +0.000 OA
ATOM     10  H   UNL     1       1.279  -5.657  -2.973  0.00  0.00    +0.000 HD
ATOM     11  H   UNL     1       0.660  -6.414  -4.438  0.00  0.00    +0.000 HD
ENDBRANCH   4   7
BRANCH   1  12
ATOM     12  O   UNL     1       2.699  -0.053  -1.475  0.00  0.00    +0.000 OA
BRANCH  12  14
ATOM     13  C   UNL     1       0.925  -0.111   0.221  0.00  0.00    +0.000 C 
ATOM     14  C   UNL     1       2.430  -0.087  -0.060  0.00  0.00    +0.000 C 
BRANCH  14  15
ATOM     15  C   UNL     1       3.058   1.158   0.540  0.00  0.00    +0.000 A 
ATOM     16  C   UNL     1       4.000   1.051   1.575  0.00  0.00    +0.000 A 
ATOM     17  C   UNL     1       4.635   2.189   2.074  0.00  0.00    +0.000 A 
ATOM     18  C   UNL     1       4.327   3.445   1.554  0.00  0.00    +0.000 A 
ATOM     19  C   UNL     1       3.362   3.569   0.558  0.00  0.00    +0.000 A 
ATOM     20  C   UNL     1       2.727   2.434   0.057  0.00  0.00    +0.000 A 
ENDBRANCH  14  15
ENDBRANCH  12  14
ENDBRANCH   1  12
TORSDOF 4
