REMARK  Name = 
REMARK  6 active torsions:
REMARK  status: ('A' for Active; 'I' for Inactive)
REMARK    1  A    between atoms: N_1  and  C_2
REMARK    2  A    between atoms: C_2  and  C_3
REMARK    3  A    between atoms: C_3  and  C_4
REMARK    4  A    between atoms: C_8  and  C_9
REMARK    5  A    between atoms: C_9  and  N_10
REMARK    6  A    between atoms: C_15  and  C_16
REMARK                            x       y       z     vdW  Elec       q    Type
REMARK                         _______ _______ _______ _____ _____    ______ ____
ROOT
ATOM      1  N   UNL     1       8.524  -4.032  -0.654  0.00  0.00    +0.000 N 
ATOM      2  N   UNL     1       8.594  -5.105  -1.481  0.00  0.00    +0.000 NA
ATOM      3  N   UNL     1       9.523  -5.920  -1.001  0.00  0.00    +0.000 NA
ATOM      4  C   UNL     1      10.171  -5.270   0.010  0.00  0.00    +0.000 A 
ATOM      5  C   UNL     1      11.187  -5.710   0.869  0.00  0.00    +0.000 A 
ATOM      6  C   UNL     1      11.741  -4.805   1.794  0.00  0.00    +0.000 A 
ATOM      7  C   UNL     1      11.285  -3.476   1.821  0.00  0.00    +0.000 A 
ATOM      8  C   UNL     1      10.213  -3.041   1.016  0.00  0.00    +0.000 A 
ATOM      9  C   UNL     1       9.657  -3.986   0.146  0.00  0.00    +0.000 A 
ENDROOT
BRANCH   6  10
ATOM     10  C   UNL     1      12.784  -5.352   2.711  0.00  0.00    +0.000 C 
ATOM     11  N   UNL     1      13.396  -4.511   3.603  0.00  0.00    +0.000 N 
ATOM     12  O   UNL     1      13.088  -6.537   2.696  0.00  0.00    +0.000 OA
ATOM     13  H   UNL     1      13.242  -3.514   3.669  0.00  0.00    +0.000 HD
ATOM     14  H   UNL     1      14.093  -4.927   4.203  0.00  0.00    +0.000 HD
ENDBRANCH   6  10
BRANCH   1  15
ATOM     15  C   UNL     1       7.181  -3.652  -0.215  0.00  0.00    +0.000 C 
BRANCH  15  20
ATOM     16  C   UNL     1       5.656  -0.951  -2.433  0.00  0.00    +0.000 A 
ATOM     17  C   UNL     1       5.276  -0.004  -1.473  0.00  0.00    +0.000 A 
ATOM     18  C   UNL     1       5.581  -0.206  -0.129  0.00  0.00    +0.000 A 
ATOM     19  C   UNL     1       6.261  -1.358   0.270  0.00  0.00    +0.000 A 
ATOM     20  C   UNL     1       6.663  -2.316  -0.675  0.00  0.00    +0.000 A 
ATOM     21  C   UNL     1       6.371  -2.090  -2.028  0.00  0.00    +0.000 A 
BRANCH  16  22
ATOM     22  C   UNL     1       5.261  -0.779  -3.881  0.00  0.00    +0.000 C 
BRANCH  22  23
ATOM     23  C   UNL     1       6.328  -0.035  -4.687  0.00  0.00    +0.000 C 
BRANCH  23  24
ATOM     24  N   UNL     1       5.938   0.082  -6.092  0.00  0.00    +0.000 NA
ATOM     25  H   UNL     1       6.648   0.614  -6.594  0.00  0.00    +0.000 HD
ATOM     26  H   UNL     1       5.072   0.615  -6.170  0.00  0.00    +0.000 HD
ENDBRANCH  23  24
ENDBRANCH  22  23
ENDBRANCH  16  22
ENDBRANCH  15  20
ENDBRANCH   1  15
TORSDOF 6
