REMARK  Name = 
REMARK  3 active torsions:
REMARK  status: ('A' for Active; 'I' for Inactive)
REMARK    1  A    between atoms: C_2  and  C_4
REMARK    2  A    between atoms: N_8  and  C_9
REMARK    3  A    between atoms: C_9  and  C_10
REMARK                            x       y       z     vdW  Elec       q    Type
REMARK                         _______ _______ _______ _____ _____    ______ ____
ROOT
ATOM      1  C   UNL     1       3.398  -2.357   2.306  0.00  0.00    +0.000 A 
ATOM      2  C   UNL     1       2.651  -3.241   1.536  0.00  0.00    +0.000 A 
ATOM      3  C   UNL     1       3.293  -4.022   0.570  0.00  0.00    +0.000 A 
ATOM      4  C   UNL     1       4.662  -3.887   0.382  0.00  0.00    +0.000 A 
ATOM      5  N   UNL     1       5.368  -4.542  -0.629  0.00  0.00    +0.000 N 
ATOM      6  N   UNL     1       5.398  -3.030   1.122  0.00  0.00    +0.000 NA
ATOM      7  C   UNL     1       4.760  -2.283   2.059  0.00  0.00    +0.000 A 
ATOM      8  H   UNL     1       6.350  -4.317  -0.465  0.00  0.00    +0.000 HD
ENDROOT
BRANCH   1  10
ATOM      9  N   UNL     1       1.620  -1.873   3.886  0.00  0.00    +0.000 N 
ATOM     10  C   UNL     1       2.801  -1.473   3.325  0.00  0.00    +0.000 C 
ATOM     11  O   UNL     1       3.353  -0.440   3.681  0.00  0.00    +0.000 OA
ATOM     12  H   UNL     1       1.272  -1.306   4.650  0.00  0.00    +0.000 HD
ATOM     13  H   UNL     1       1.267  -2.815   3.808  0.00  0.00    +0.000 HD
ENDBRANCH   1  10
BRANCH   5  14
ATOM     14  C   UNL     1       5.088  -5.918  -1.091  0.00  0.00    +0.000 C 
ATOM     15  C   UNL     1       5.140  -6.086  -2.609  0.00  0.00    +0.000 C 
ATOM     16  C   UNL     1       3.857  -6.304  -1.891  0.00  0.00    +0.000 C 
ATOM     17  F   UNL     1       3.402  -7.609  -1.823  0.00  0.00    +0.000 F 
BRANCH  14  18
ATOM     18  C   UNL     1       5.746  -6.976  -0.207  0.00  0.00    +0.000 A 
ATOM     19  C   UNL     1       7.042  -7.454  -0.465  0.00  0.00    +0.000 A 
ATOM     20  C   UNL     1       7.694  -8.320   0.420  0.00  0.00    +0.000 A 
ATOM     21  C   UNL     1       7.062  -8.727   1.595  0.00  0.00    +0.000 A 
ATOM     22 CL   UNL     1       7.950  -9.731   2.683  0.00  0.00    +0.000 Cl
ATOM     23  C   UNL     1       5.760  -8.296   1.860  0.00  0.00    +0.000 A 
ATOM     24 CL   UNL     1       4.906  -8.752   3.292  0.00  0.00    +0.000 Cl
ATOM     25  C   UNL     1       5.112  -7.439   0.962  0.00  0.00    +0.000 A 
ENDBRANCH  14  18
ENDBRANCH   5  14
TORSDOF 3
