REMARK  Name = 
REMARK  6 active torsions:
REMARK  status: ('A' for Active; 'I' for Inactive)
REMARK    1  A    between atoms: C_2  and  C_25
REMARK    2  A    between atoms: N_3  and  C_4
REMARK    3  A    between atoms: C_4  and  C_5
REMARK    4  A    between atoms: C_8  and  C_9
REMARK    5  A    between atoms: C_9  and  N_10
REMARK    6  A    between atoms: C_11  and  C_13
REMARK                            x       y       z     vdW  Elec       q    Type
REMARK                         _______ _______ _______ _____ _____    ______ ____
ROOT
ATOM      1  C   UNL     1       3.183   3.225  -1.868  0.00  0.00    +0.000 A 
ATOM      2  C   UNL     1       2.803   4.574  -1.844  0.00  0.00    +0.000 A 
ATOM      3  C   UNL     1       3.653   5.562  -2.351  0.00  0.00    +0.000 A 
ATOM      4  C   UNL     1       4.891   5.220  -2.910  0.00  0.00    +0.000 A 
ATOM      5  C   UNL     1       5.272   3.872  -2.928  0.00  0.00    +0.000 A 
ATOM      6  C   UNL     1       4.423   2.883  -2.423  0.00  0.00    +0.000 A 
ENDROOT
BRANCH   1   7
ATOM      7  C   UNL     1       2.257   2.159  -1.342  0.00  0.00    +0.000 C 
BRANCH   7  10
ATOM      8  O   UNL     1       0.239   0.302  -0.994  0.00  0.00    +0.000 OA
ATOM      9  C   UNL     1       0.391   0.749  -2.127  0.00  0.00    +0.000 C 
ATOM     10  N   UNL     1       1.375   1.685  -2.378  0.00  0.00    +0.000 N 
ATOM     11  H   UNL     1       1.506   2.023  -3.323  0.00  0.00    +0.000 HD
BRANCH   9  12
ATOM     12  C   UNL     1      -0.411   0.353  -3.270  0.00  0.00    +0.000 A 
ATOM     13  S   UNL     1      -0.139   1.010  -4.843  0.00  0.00    +0.000 S 
ATOM     14  C   UNL     1      -1.418   0.060  -5.457  0.00  0.00    +0.000 A 
ATOM     15  N   UNL     1      -2.033  -0.706  -4.590  0.00  0.00    +0.000 NA
ATOM     16  C   UNL     1      -1.464  -0.546  -3.333  0.00  0.00    +0.000 A 
ATOM     17 CL   UNL     1      -2.112  -1.452  -2.028  0.00  0.00    +0.000 Cl
ENDBRANCH   9  12
ENDBRANCH   7  10
ENDBRANCH   1   7
BRANCH   4  18
ATOM     18  C   UNL     1       5.817   6.279  -3.451  0.00  0.00    +0.000 C 
BRANCH  18  19
ATOM     19  N   UNL     1       6.710   6.768  -2.431  0.00  0.00    +0.000 N 
ATOM     20  C   UNL     1       7.581   7.797  -2.687  0.00  0.00    +0.000 C 
ATOM     21  O   UNL     1       7.606   8.371  -3.773  0.00  0.00    +0.000 OA
ATOM     22  H   UNL     1       6.865   6.170  -1.625  0.00  0.00    +0.000 HD
BRANCH  20  23
ATOM     23  C   UNL     1       8.440   8.225  -1.575  0.00  0.00    +0.000 A 
ATOM     24  C   UNL     1       8.972   9.508  -1.573  0.00  0.00    +0.000 A 
ATOM     25  S   UNL     1       9.899   9.862  -0.186  0.00  0.00    +0.000 S 
ATOM     26  C   UNL     1       9.667   8.296   0.436  0.00  0.00    +0.000 A 
ATOM     27  N   UNL     1      10.230   7.923   1.617  0.00  0.00    +0.000 NA
ATOM     28  C   UNL     1      10.000   6.698   1.953  0.00  0.00    +0.000 A 
ATOM     29  N   UNL     1       9.253   5.813   1.219  0.00  0.00    +0.000 N 
ATOM     30  C   UNL     1       8.642   6.154   0.035  0.00  0.00    +0.000 A 
ATOM     31  O   UNL     1       7.948   5.350  -0.578  0.00  0.00    +0.000 OA
ATOM     32  C   UNL     1       8.879   7.519  -0.395  0.00  0.00    +0.000 A 
ATOM     33  H   UNL     1       9.104   4.869   1.542  0.00  0.00    +0.000 HD
ENDBRANCH  20  23
ENDBRANCH  18  19
ENDBRANCH   4  18
TORSDOF 6
