REMARK  Name = 
REMARK  8 active torsions:
REMARK  status: ('A' for Active; 'I' for Inactive)
REMARK    1  A    between atoms: C_1  and  C_2
REMARK    2  A    between atoms: C_2  and  N_3
REMARK    3  A    between atoms: C_2  and  C_17
REMARK    4  A    between atoms: C_4  and  C_6
REMARK    5  A    between atoms: N_12  and  C_13
REMARK    6  A    between atoms: C_20  and  C_21
REMARK    7  A    between atoms: C_21  and  C_22
REMARK    8  A    between atoms: C_22  and  C_23
REMARK                            x       y       z     vdW  Elec       q    Type
REMARK                         _______ _______ _______ _____ _____    ______ ____
ROOT
ATOM      1  C   UNL     1       2.878   1.298   0.669  0.00  0.00    +0.000 C 
ATOM      2  C   UNL     1       2.440  -0.001  -0.008  0.00  0.00    +0.000 C 
ENDROOT
BRANCH   2   3
ATOM      3  C   UNL     1       2.949  -1.263   0.675  0.00  0.00    +0.000 A 
ATOM      4  C   UNL     1       3.172  -2.401  -0.111  0.00  0.00    +0.000 A 
ATOM      5  C   UNL     1       3.557  -3.614   0.466  0.00  0.00    +0.000 A 
ATOM      6  C   UNL     1       3.749  -3.730   1.849  0.00  0.00    +0.000 A 
ATOM      7  C   UNL     1       3.518  -2.595   2.639  0.00  0.00    +0.000 A 
ATOM      8  C   UNL     1       3.119  -1.382   2.061  0.00  0.00    +0.000 A 
BRANCH   6   9
ATOM      9  C   UNL     1       4.106  -5.048   2.509  0.00  0.00    +0.000 C 
BRANCH   9  10
ATOM     10  C   UNL     1       4.969  -5.980   1.646  0.00  0.00    +0.000 C 
BRANCH  10  11
ATOM     11  C   UNL     1       5.288  -7.295   2.310  0.00  0.00    +0.000 A 
ATOM     12  C   UNL     1       4.439  -8.393   2.143  0.00  0.00    +0.000 A 
ATOM     13  C   UNL     1       4.786  -9.598   2.733  0.00  0.00    +0.000 A 
ATOM     14  N   UNL     1       5.899  -9.777   3.475  0.00  0.00    +0.000 NA
ATOM     15  C   UNL     1       6.701  -8.702   3.629  0.00  0.00    +0.000 A 
ATOM     16  C   UNL     1       6.442  -7.456   3.077  0.00  0.00    +0.000 A 
ENDBRANCH  10  11
ENDBRANCH   9  10
ENDBRANCH   6   9
ENDBRANCH   2   3
BRANCH   2  17
ATOM     17  N   UNL     1       0.994  -0.063  -0.101  0.00  0.00    +0.000 N 
ATOM     18  C   UNL     1       0.270   0.585  -1.067  0.00  0.00    +0.000 C 
ATOM     19  O   UNL     1       0.796   1.300  -1.915  0.00  0.00    +0.000 OA
ATOM     20  H   UNL     1       0.537  -0.763   0.475  0.00  0.00    +0.000 HD
BRANCH  18  21
ATOM     21  C   UNL     1      -1.192   0.422  -1.001  0.00  0.00    +0.000 A 
ATOM     22  C   UNL     1      -2.020   1.391  -1.545  0.00  0.00    +0.000 A 
ATOM     23  S   UNL     1      -3.682   1.043  -1.372  0.00  0.00    +0.000 S 
ATOM     24  C   UNL     1      -3.347  -0.428  -0.589  0.00  0.00    +0.000 A 
ATOM     25  N   UNL     1      -4.350  -1.251  -0.190  0.00  0.00    +0.000 NA
ATOM     26  C   UNL     1      -3.957  -2.345   0.379  0.00  0.00    +0.000 A 
ATOM     27  N   UNL     1      -2.643  -2.705   0.593  0.00  0.00    +0.000 N 
ATOM     28  C   UNL     1      -2.309  -3.945   1.264  0.00  0.00    +0.000 C 
ATOM     29  C   UNL     1      -1.594  -1.878   0.216  0.00  0.00    +0.000 A 
ATOM     30  O   UNL     1      -0.421  -2.152   0.448  0.00  0.00    +0.000 OA
ATOM     31  C   UNL     1      -1.990  -0.644  -0.441  0.00  0.00    +0.000 A 
ENDBRANCH  18  21
ENDBRANCH   2  17
TORSDOF 6
