REMARK  Name = 
REMARK  8 active torsions:
REMARK  status: ('A' for Active; 'I' for Inactive)
REMARK    1  A    between atoms: C_1  and  O_2
REMARK    2  A    between atoms: O_2  and  C_3
REMARK    3  A    between atoms: C_5  and  C_6
REMARK    4  A    between atoms: C_6  and  N_7
REMARK    5  A    between atoms: C_8  and  C_10
REMARK    6  A    between atoms: C_22  and  C_23
REMARK    7  A    between atoms: C_23  and  N_24
REMARK    8  A    between atoms: C_29  and  C_30
REMARK                            x       y       z     vdW  Elec       q    Type
REMARK                         _______ _______ _______ _____ _____    ______ ____
ROOT
ATOM      1  C   UNL     1       3.166   0.959  -0.776  0.00  0.00    +0.000 A 
ATOM      2  C   UNL     1       2.888   2.305  -1.083  0.00  0.00    +0.000 A 
ATOM      3  C   UNL     1       3.620   3.024  -2.043  0.00  0.00    +0.000 A 
ATOM      4  C   UNL     1       4.701   2.399  -2.661  0.00  0.00    +0.000 A 
ATOM      5  C   UNL     1       4.959   1.056  -2.393  0.00  0.00    +0.000 A 
ATOM      6  C   UNL     1       4.179   0.300  -1.481  0.00  0.00    +0.000 A 
ENDROOT
BRANCH   1   8
ATOM      7  C   UNL     1       2.732  -0.439   1.131  0.00  0.00    +0.000 C 
ATOM      8  O   UNL     1       2.264   0.427   0.106  0.00  0.00    +0.000 OA
ENDBRANCH   1   8
BRANCH   3   9
ATOM      9  C   UNL     1       3.192   4.410  -2.452  0.00  0.00    +0.000 C 
BRANCH   9  10
ATOM     10  N   UNL     1       3.632   5.434  -1.545  0.00  0.00    +0.000 N 
ATOM     11  C   UNL     1       3.172   6.724  -1.688  0.00  0.00    +0.000 C 
ATOM     12  O   UNL     1       2.347   7.009  -2.557  0.00  0.00    +0.000 OA
ATOM     13  H   UNL     1       4.362   5.210  -0.879  0.00  0.00    +0.000 HD
BRANCH  11  14
ATOM     14  C   UNL     1       3.687   7.754  -0.773  0.00  0.00    +0.000 A 
ATOM     15  C   UNL     1       3.174   9.044  -0.858  0.00  0.00    +0.000 A 
ATOM     16  S   UNL     1       3.854  10.137   0.255  0.00  0.00    +0.000 S 
ATOM     17  C   UNL     1       4.875   8.934   0.886  0.00  0.00    +0.000 A 
ATOM     18  N   UNL     1       5.752   9.232   1.886  0.00  0.00    +0.000 NA
ATOM     19  C   UNL     1       6.475   8.235   2.274  0.00  0.00    +0.000 A 
ATOM     20  N   UNL     1       6.395   6.972   1.757  0.00  0.00    +0.000 N 
ATOM     21  C   UNL     1       5.523   6.621   0.747  0.00  0.00    +0.000 A 
ATOM     22  O   UNL     1       5.484   5.481   0.317  0.00  0.00    +0.000 OA
ATOM     23  C   UNL     1       4.694   7.709   0.271  0.00  0.00    +0.000 A 
ATOM     24  H   UNL     1       6.990   6.231   2.103  0.00  0.00    +0.000 HD
ENDBRANCH  11  14
ENDBRANCH   9  10
ENDBRANCH   3   9
BRANCH   6  25
ATOM     25  C   UNL     1       4.421  -1.200  -1.492  0.00  0.00    +0.000 C 
BRANCH  25  26
ATOM     26  N   UNL     1       5.853  -1.516  -1.362  0.00  0.00    +0.000 NA
ATOM     27  C   UNL     1       6.321  -1.385   0.012  0.00  0.00    +0.000 C 
ATOM     28  C   UNL     1       7.832  -1.520   0.143  0.00  0.00    +0.000 C 
ATOM     29  C   UNL     1       8.388  -2.726  -0.594  0.00  0.00    +0.000 C 
ATOM     30  C   UNL     1       7.837  -2.844  -2.011  0.00  0.00    +0.000 C 
ATOM     31  C   UNL     1       6.311  -2.696  -2.126  0.00  0.00    +0.000 C 
BRANCH  31  32
ATOM     32  C   UNL     1       5.479  -3.998  -1.932  0.00  0.00    +0.000 C 
ATOM     33  N   UNL     1       5.938  -5.123  -2.568  0.00  0.00    +0.000 N 
ATOM     34  O   UNL     1       4.374  -4.057  -1.396  0.00  0.00    +0.000 OA
ATOM     35  H   UNL     1       6.903  -5.271  -2.822  0.00  0.00    +0.000 HD
ATOM     36  H   UNL     1       5.349  -5.946  -2.509  0.00  0.00    +0.000 HD
ENDBRANCH  31  32
ENDBRANCH  25  26
ENDBRANCH   6  25
TORSDOF 7
