REMARK  Name = 
REMARK  10 active torsions:
REMARK  status: ('A' for Active; 'I' for Inactive)
REMARK    1  A    between atoms: C_1  and  O_2
REMARK    2  A    between atoms: O_2  and  C_3
REMARK    3  A    between atoms: C_10  and  C_11
REMARK    4  A    between atoms: N_13  and  C_14
REMARK    5  A    between atoms: C_14  and  C_15
REMARK    6  A    between atoms: C_18  and  N_19
REMARK    7  A    between atoms: N_19  and  C_20
REMARK    8  A    between atoms: C_20  and  C_21
REMARK    9  A    between atoms: C_21  and  C_22
REMARK   10  A    between atoms: C_26  and  C_27
REMARK                            x       y       z     vdW  Elec       q    Type
REMARK                         _______ _______ _______ _____ _____    ______ ____
ROOT
ATOM      1  C   UNL     1       1.425   3.059  -1.229  0.00  0.00    +0.000 A 
ATOM      2  C   UNL     1       1.232   1.786  -1.778  0.00  0.00    +0.000 A 
ATOM      3  C   UNL     1       0.020   1.450  -2.391  0.00  0.00    +0.000 A 
ATOM      4  C   UNL     1      -1.029   2.371  -2.466  0.00  0.00    +0.000 A 
ATOM      5  C   UNL     1      -0.772   3.687  -2.064  0.00  0.00    +0.000 A 
ATOM      6  C   UNL     1       0.433   4.025  -1.435  0.00  0.00    +0.000 A 
ENDROOT
BRANCH   4   7
ATOM      7  N   UNL     1      -2.305   2.062  -2.958  0.00  0.00    +0.000 N 
ATOM      8  H   UNL     1      -2.392   2.375  -3.924  0.00  0.00    +0.000 HD
BRANCH   7   9
ATOM      9  C   UNL     1      -2.808   0.691  -2.779  0.00  0.00    +0.000 C 
BRANCH   9  10
ATOM     10  C   UNL     1      -2.968   0.331  -1.290  0.00  0.00    +0.000 C 
BRANCH  10  11
ATOM     11  C   UNL     1      -3.452  -1.087  -1.102  0.00  0.00    +0.000 A 
ATOM     12  C   UNL     1      -4.819  -1.366  -1.001  0.00  0.00    +0.000 A 
ATOM     13  C   UNL     1      -5.260  -2.683  -0.874  0.00  0.00    +0.000 A 
ATOM     14  C   UNL     1      -4.341  -3.733  -0.863  0.00  0.00    +0.000 A 
ATOM     15  C   UNL     1      -2.971  -3.475  -0.967  0.00  0.00    +0.000 A 
ATOM     16  C   UNL     1      -1.975  -4.596  -0.990  0.00  0.00    +0.000 C 
ATOM     17  C   UNL     1      -2.533  -2.147  -1.068  0.00  0.00    +0.000 A 
ENDBRANCH  10  11
ENDBRANCH   9  10
ENDBRANCH   7   9
ENDBRANCH   4   7
BRANCH   1  18
ATOM     18  C   UNL     1       2.659   3.359  -0.415  0.00  0.00    +0.000 C 
BRANCH  18  21
ATOM     19  C   UNL     1       4.951   4.214  -0.696  0.00  0.00    +0.000 C 
ATOM     20  O   UNL     1       5.195   4.068   0.500  0.00  0.00    +0.000 OA
ATOM     21  N   UNL     1       3.732   3.882  -1.220  0.00  0.00    +0.000 N 
ATOM     22  H   UNL     1       3.553   3.997  -2.207  0.00  0.00    +0.000 HD
BRANCH  19  30
ATOM     23  C   UNL     1       4.976   4.788  -4.083  0.00  0.00    +0.000 A 
ATOM     24  N   UNL     1       5.212   5.175  -5.350  0.00  0.00    +0.000 NA
ATOM     25  C   UNL     1       6.387   5.756  -5.618  0.00  0.00    +0.000 A 
ATOM     26  N   UNL     1       7.378   5.990  -4.762  0.00  0.00    +0.000 NA
ATOM     27  C   UNL     1       7.091   5.601  -3.504  0.00  0.00    +0.000 A 
ATOM     28  S   UNL     1       8.242   5.818  -2.276  0.00  0.00    +0.000 S 
ATOM     29  C   UNL     1       7.194   5.155  -1.112  0.00  0.00    +0.000 A 
ATOM     30  C   UNL     1       5.959   4.770  -1.620  0.00  0.00    +0.000 A 
ATOM     31  C   UNL     1       5.914   5.014  -3.061  0.00  0.00    +0.000 A 
BRANCH  23  33
ATOM     32  C   UNL     1       3.203   3.516  -4.925  0.00  0.00    +0.000 C 
ATOM     33  O   UNL     1       3.769   4.185  -3.804  0.00  0.00    +0.000 OA
ENDBRANCH  23  33
ENDBRANCH  19  30
ENDBRANCH  18  21
ENDBRANCH   1  18
TORSDOF 8
