REMARK  Name = 
REMARK  5 active torsions:
REMARK  status: ('A' for Active; 'I' for Inactive)
REMARK    1  A    between atoms: N_1  and  C_2
REMARK    2  A    between atoms: C_2  and  C_3
REMARK    3  A    between atoms: C_6  and  C_7
REMARK    4  A    between atoms: C_7  and  C_8
REMARK    5  A    between atoms: C_8  and  C_9
REMARK                            x       y       z     vdW  Elec       q    Type
REMARK                         _______ _______ _______ _____ _____    ______ ____
ROOT
ATOM      1  C   UNL     1       2.865  -0.093   1.450  0.00  0.00    +0.000 A 
ATOM      2  C   UNL     1       3.101   1.108   2.132  0.00  0.00    +0.000 A 
ATOM      3  C   UNL     1       3.510   1.103   3.469  0.00  0.00    +0.000 A 
ATOM      4  C   UNL     1       3.678  -0.104   4.160  0.00  0.00    +0.000 A 
ATOM      5  C   UNL     1       3.440  -1.305   3.480  0.00  0.00    +0.000 A 
ATOM      6  C   UNL     1       3.038  -1.300   2.140  0.00  0.00    +0.000 A 
ENDROOT
BRANCH   1   7
ATOM      7  C   UNL     1       2.416  -0.085   0.010  0.00  0.00    +0.000 C 
BRANCH   7   8
ATOM      8  N   UNL     1       3.371   0.604  -0.852  0.00  0.00    +0.000 NA
ATOM      9  H   UNL     1       3.104   0.462  -1.824  0.00  0.00    +0.000 HD
ATOM     10  H   UNL     1       4.285   0.169  -0.737  0.00  0.00    +0.000 HD
ENDBRANCH   7   8
ENDBRANCH   1   7
BRANCH   4  11
ATOM     11  C   UNL     1       4.138  -0.117   5.601  0.00  0.00    +0.000 C 
BRANCH  11  12
ATOM     12  C   UNL     1       3.158   0.577   6.548  0.00  0.00    +0.000 C 
BRANCH  12  13
ATOM     13  C   UNL     1       3.647   0.524   7.969  0.00  0.00    +0.000 A 
ATOM     14  N   UNL     1       4.446   1.524   8.394  0.00  0.00    +0.000 NA
ATOM     15  C   UNL     1       4.854   1.462   9.676  0.00  0.00    +0.000 A 
ATOM     16  C   UNL     1       4.505   0.449  10.536  0.00  0.00    +0.000 A 
ATOM     17  C   UNL     1       3.700  -0.528  10.003  0.00  0.00    +0.000 A 
ATOM     18  N   UNL     1       3.261  -0.519   8.729  0.00  0.00    +0.000 NA
ENDBRANCH  12  13
ENDBRANCH  11  12
ENDBRANCH   4  11
TORSDOF 5
