REMARK  Name = 
REMARK  6 active torsions:
REMARK  status: ('A' for Active; 'I' for Inactive)
REMARK    1  A    between atoms: C_1  and  O_2
REMARK    2  A    between atoms: O_2  and  C_3
REMARK    3  A    between atoms: C_5  and  C_6
REMARK    4  A    between atoms: N_11  and  C_12
REMARK    5  A    between atoms: C_12  and  C_13
REMARK    6  A    between atoms: C_18  and  C_19
REMARK                            x       y       z     vdW  Elec       q    Type
REMARK                         _______ _______ _______ _____ _____    ______ ____
ROOT
ATOM      1  C   UNL     1       3.513  -0.515  -1.080  0.00  0.00    +0.000 A 
ATOM      2  C   UNL     1       3.115  -0.257  -2.360  0.00  0.00    +0.000 A 
ATOM      3  C   UNL     1       3.730  -1.039  -3.304  0.00  0.00    +0.000 A 
ATOM      4  N   UNL     1       4.684  -1.967  -3.034  0.00  0.00    +0.000 NA
ATOM      5  C   UNL     1       5.006  -2.120  -1.748  0.00  0.00    +0.000 A 
ATOM      6  N   UNL     1       6.016  -2.973  -1.366  0.00  0.00    +0.000 N 
ATOM      7  N   UNL     1       4.420  -1.451  -0.751  0.00  0.00    +0.000 NA
ATOM      8  H   UNL     1       5.852  -3.308  -0.425  0.00  0.00    +0.000 HD
ENDROOT
BRANCH   3   9
ATOM      9  C   UNL     1       3.345  -0.882  -4.740  0.00  0.00    +0.000 C 
ATOM     10  N   UNL     1       3.960  -1.743  -5.611  0.00  0.00    +0.000 N 
ATOM     11  O   UNL     1       2.533  -0.052  -5.121  0.00  0.00    +0.000 OA
ATOM     12  H   UNL     1       4.640  -2.411  -5.269  0.00  0.00    +0.000 HD
ATOM     13  H   UNL     1       3.754  -1.681  -6.598  0.00  0.00    +0.000 HD
ENDBRANCH   3   9
BRANCH   1  15
ATOM     14  C   UNL     1       3.423  -0.057   1.211  0.00  0.00    +0.000 C 
ATOM     15  O   UNL     1       2.941   0.260  -0.091  0.00  0.00    +0.000 OA
ENDBRANCH   1  15
BRANCH   6  16
ATOM     16  C   UNL     1       6.549  -3.893  -2.337  0.00  0.00    +0.000 C 
BRANCH  16  17
ATOM     17  C   UNL     1       7.534  -4.818  -1.655  0.00  0.00    +0.000 A 
ATOM     18  C   UNL     1       7.111  -6.051  -1.160  0.00  0.00    +0.000 A 
ATOM     19  C   UNL     1       8.010  -6.874  -0.489  0.00  0.00    +0.000 A 
ATOM     20  C   UNL     1       9.342  -6.477  -0.291  0.00  0.00    +0.000 A 
ATOM     21 CL   UNL     1      10.292  -7.558   0.677  0.00  0.00    +0.000 Cl
ATOM     22  C   UNL     1       9.828  -5.250  -0.801  0.00  0.00    +0.000 A 
ATOM     23  C   UNL     1       8.879  -4.435  -1.470  0.00  0.00    +0.000 A 
BRANCH  22  24
ATOM     24  C   UNL     1      11.238  -4.779  -0.681  0.00  0.00    +0.000 A 
ATOM     25  C   UNL     1      11.559  -3.423  -0.490  0.00  0.00    +0.000 A 
ATOM     26  C   UNL     1      12.888  -2.998  -0.409  0.00  0.00    +0.000 A 
ATOM     27  C   UNL     1      13.888  -3.946  -0.504  0.00  0.00    +0.000 A 
ATOM     28  N   UNL     1      13.647  -5.253  -0.704  0.00  0.00    +0.000 NA
ATOM     29  C   UNL     1      12.344  -5.628  -0.801  0.00  0.00    +0.000 A 
ENDBRANCH  22  24
ENDBRANCH  16  17
ENDBRANCH   6  16
TORSDOF 5
