REMARK  Name = 
REMARK  13 active torsions:
REMARK  status: ('A' for Active; 'I' for Inactive)
REMARK    1  A    between atoms: C_1  and  C_2
REMARK    2  A    between atoms: C_4  and  O_5
REMARK    3  A    between atoms: O_5  and  C_6
REMARK    4  A    between atoms: C_6  and  C_7
REMARK    5  A    between atoms: C_11  and  C_12
REMARK    6  A    between atoms: C_17  and  C_18
REMARK    7  A    between atoms: C_18  and  C_19
REMARK    8  A    between atoms: C_18  and  C_20
REMARK    9  A    between atoms: C_18  and  C_21
REMARK   10  A    between atoms: C_21  and  N_22
REMARK   11  A    between atoms: N_22  and  C_23
REMARK   12  A    between atoms: C_26  and  S_27
REMARK   13  A    between atoms: S_27  and  C_28
REMARK                            x       y       z     vdW  Elec       q    Type
REMARK                         _______ _______ _______ _____ _____    ______ ____
ROOT
ATOM      1  C   UNL     1       2.554  -0.311  -0.664  0.00  0.00    +0.000 C 
ATOM      2  C   UNL     1       1.073  -0.161  -0.489  0.00  0.00    +0.000 A 
ATOM      3  C   UNL     1       0.436   1.054  -0.716  0.00  0.00    +0.000 A 
ATOM      4  C   UNL     1      -0.941   1.159  -0.526  0.00  0.00    +0.000 A 
ATOM      5  C   UNL     1      -1.703   0.010  -0.268  0.00  0.00    +0.000 A 
ATOM      6  C   UNL     1      -1.093  -1.250  -0.104  0.00  0.00    +0.000 A 
ATOM      7  C   UNL     1       0.312  -1.279  -0.125  0.00  0.00    +0.000 A 
ENDROOT
BRANCH   6   8
ATOM      8  C   UNL     1      -1.931  -2.542   0.041  0.00  0.00    +0.000 C 
ATOM      9  C   UNL     1      -2.777  -2.464   1.334  0.00  0.00    +0.000 C 
ATOM     10  C   UNL     1      -2.896  -2.679  -1.162  0.00  0.00    +0.000 C 
BRANCH   8  11
ATOM     11  C   UNL     1      -1.095  -3.869   0.131  0.00  0.00    +0.000 C 
BRANCH  11  12
ATOM     12  N   UNL     1      -0.309  -4.142  -1.087  0.00  0.00    +0.000 N 
ATOM     13  H   UNL     1       0.037  -3.300  -1.542  0.00  0.00    +0.000 HD
BRANCH  12  14
ATOM     14  C   UNL     1       0.639  -5.171  -1.039  0.00  0.00    +0.000 A 
ATOM     15  C   UNL     1       0.395  -6.382  -0.385  0.00  0.00    +0.000 A 
ATOM     16  C   UNL     1       1.317  -7.423  -0.452  0.00  0.00    +0.000 A 
ATOM     17  C   UNL     1       2.471  -7.210  -1.185  0.00  0.00    +0.000 A 
ATOM     18  N   UNL     1       2.781  -6.062  -1.835  0.00  0.00    +0.000 NA
ATOM     19  C   UNL     1       1.844  -5.084  -1.752  0.00  0.00    +0.000 A 
BRANCH  17  20
ATOM     20  S   UNL     1       3.637  -8.539  -1.371  0.00  0.00    +0.000 S 
ATOM     21  C   UNL     1       4.956  -7.884  -2.355  0.00  0.00    +0.000 C 
ATOM     22  O   UNL     1       4.169  -8.826  -0.050  0.00  0.00    +0.000 OA
ATOM     23  O   UNL     1       2.979  -9.577  -2.146  0.00  0.00    +0.000 OA
ENDBRANCH  17  20
ENDBRANCH  12  14
ENDBRANCH  11  12
ENDBRANCH   8  11
ENDBRANCH   6   8
BRANCH   4  24
ATOM     24  O   UNL     1      -1.614   2.346  -0.643  0.00  0.00    +0.000 OA
BRANCH  24  25
ATOM     25  C   UNL     1      -0.951   3.471  -0.042  0.00  0.00    +0.000 C 
BRANCH  25  26
ATOM     26  C   UNL     1      -0.474   4.491  -1.058  0.00  0.00    +0.000 A 
ATOM     27  C   UNL     1      -1.165   4.676  -2.266  0.00  0.00    +0.000 A 
ATOM     28  C   UNL     1      -0.850   5.737  -3.116  0.00  0.00    +0.000 A 
ATOM     29  C   UNL     1       0.174   6.619  -2.781  0.00  0.00    +0.000 A 
ATOM     30  C   UNL     1       0.922   6.409  -1.620  0.00  0.00    +0.000 A 
ATOM     31  C   UNL     1       0.592   5.358  -0.750  0.00  0.00    +0.000 A 
BRANCH  30  32
ATOM     32  C   UNL     1       2.047   7.335  -1.345  0.00  0.00    +0.000 C 
ATOM     33  N   UNL     1       3.150   6.800  -0.740  0.00  0.00    +0.000 N 
ATOM     34  O   UNL     1       2.029   8.507  -1.703  0.00  0.00    +0.000 OA
ATOM     35  H   UNL     1       3.298   5.801  -0.695  0.00  0.00    +0.000 HD
ATOM     36  H   UNL     1       3.972   7.392  -0.730  0.00  0.00    +0.000 HD
ENDBRANCH  30  32
ENDBRANCH  25  26
ENDBRANCH  24  25
ENDBRANCH   4  24
TORSDOF 9
