REMARK  Name = 
REMARK  7 active torsions:
REMARK  status: ('A' for Active; 'I' for Inactive)
REMARK    1  A    between atoms: C_1  and  C_2
REMARK    2  A    between atoms: C_2  and  C_3
REMARK    3  A    between atoms: C_2  and  C_4
REMARK    4  A    between atoms: C_2  and  C_18
REMARK    5  A    between atoms: C_5  and  C_6
REMARK    6  A    between atoms: C_10  and  C_11
REMARK    7  A    between atoms: C_21  and  C_22
REMARK                            x       y       z     vdW  Elec       q    Type
REMARK                         _______ _______ _______ _____ _____    ______ ____
ROOT
ATOM      1  C   UNL     1       3.050   1.288  -0.691  0.00  0.00    +0.000 C 
ATOM      2  C   UNL     1       2.476  -0.022  -0.095  0.00  0.00    +0.000 C 
ATOM      3  C   UNL     1       3.065  -1.180  -0.934  0.00  0.00    +0.000 C 
ENDROOT
BRANCH   2   4
ATOM      4  C   UNL     1       0.939  -0.073  -0.131  0.00  0.00    +0.000 A 
ATOM      5  C   UNL     1       0.155   0.979  -0.627  0.00  0.00    +0.000 A 
ATOM      6  C   UNL     1      -1.235   0.916  -0.576  0.00  0.00    +0.000 A 
ATOM      7  C   UNL     1      -1.821  -0.213  -0.031  0.00  0.00    +0.000 A 
ATOM      8  N   UNL     1      -1.116  -1.272   0.450  0.00  0.00    +0.000 NA
ATOM      9  C   UNL     1       0.237  -1.170   0.387  0.00  0.00    +0.000 A 
BRANCH   7  10
ATOM     10  C   UNL     1      -3.312  -0.283   0.060  0.00  0.00    +0.000 C 
ATOM     11  N   UNL     1      -3.820  -1.427   0.621  0.00  0.00    +0.000 N 
ATOM     12  O   UNL     1      -4.046   0.618  -0.327  0.00  0.00    +0.000 OA
ATOM     13  H   UNL     1      -3.184  -2.149   0.939  0.00  0.00    +0.000 HD
ATOM     14  H   UNL     1      -4.817  -1.529   0.721  0.00  0.00    +0.000 HD
ENDBRANCH   7  10
ENDBRANCH   2   4
BRANCH   2  15
ATOM     15  C   UNL     1       2.984  -0.149   1.341  0.00  0.00    +0.000 C 
ATOM     16  C   UNL     1       2.683   0.708   2.332  0.00  0.00    +0.000 C 
BRANCH  16  17
ATOM     17  C   UNL     1       3.203   0.536   3.682  0.00  0.00    +0.000 A 
ATOM     18  C   UNL     1       4.393   1.130   4.082  0.00  0.00    +0.000 A 
ATOM     19  N   UNL     1       4.913   1.010   5.322  0.00  0.00    +0.000 NA
ATOM     20  C   UNL     1       4.208   0.255   6.202  0.00  0.00    +0.000 A 
ATOM     21  C   UNL     1       3.009  -0.408   5.921  0.00  0.00    +0.000 A 
ATOM     22  C   UNL     1       2.517  -0.244   4.616  0.00  0.00    +0.000 A 
BRANCH  21  23
ATOM     23  C   UNL     1       2.313  -1.252   6.914  0.00  0.00    +0.000 A 
ATOM     24  C   UNL     1       0.908  -1.348   6.942  0.00  0.00    +0.000 A 
ATOM     25  C   UNL     1       0.252  -2.201   7.835  0.00  0.00    +0.000 A 
ATOM     26  C   UNL     1       0.987  -2.969   8.733  0.00  0.00    +0.000 A 
ATOM     27  C   UNL     1       2.375  -2.873   8.747  0.00  0.00    +0.000 A 
ATOM     28  C   UNL     1       3.028  -2.023   7.849  0.00  0.00    +0.000 A 
ENDBRANCH  21  23
ENDBRANCH  16  17
ENDBRANCH   2  15
TORSDOF 5
