REMARK  Name = 
REMARK  4 active torsions:
REMARK  status: ('A' for Active; 'I' for Inactive)
REMARK    1  A    between atoms: C_5  and  N_6
REMARK    2  A    between atoms: N_6  and  C_7
REMARK    3  A    between atoms: C_7  and  C_8
REMARK    4  A    between atoms: C_12  and  C_13
REMARK                            x       y       z     vdW  Elec       q    Type
REMARK                         _______ _______ _______ _____ _____    ______ ____
ROOT
ATOM      1  C   UNL     1       3.419  -3.881  -0.029  0.00  0.00    +0.000 A 
ATOM      2  C   UNL     1       2.581  -4.994   0.014  0.00  0.00    +0.000 A 
ATOM      3  C   UNL     1       3.157  -6.252  -0.019  0.00  0.00    +0.000 A 
ATOM      4  N   UNL     1       4.489  -6.471  -0.077  0.00  0.00    +0.000 NA
ATOM      5  C   UNL     1       5.312  -5.393  -0.080  0.00  0.00    +0.000 A 
ATOM      6  C   UNL     1       4.804  -4.093  -0.059  0.00  0.00    +0.000 A 
ENDROOT
BRANCH   5   7
ATOM      7  C   UNL     1       6.755  -5.686  -0.119  0.00  0.00    +0.000 A 
ATOM      8  C   UNL     1       7.718  -4.847   0.462  0.00  0.00    +0.000 A 
ATOM      9  C   UNL     1       9.075  -5.163   0.392  0.00  0.00    +0.000 A 
ATOM     10  C   UNL     1       9.446  -6.324  -0.262  0.00  0.00    +0.000 A 
ATOM     11  N   UNL     1       8.566  -7.169  -0.834  0.00  0.00    +0.000 NA
ATOM     12  C   UNL     1       7.251  -6.834  -0.740  0.00  0.00    +0.000 A 
ENDBRANCH   5   7
BRANCH   1  13
ATOM     13  C   UNL     1       2.860  -2.480  -0.047  0.00  0.00    +0.000 C 
BRANCH  13  14
ATOM     14  N   UNL     1       2.806  -1.948   1.303  0.00  0.00    +0.000 N 
ATOM     15  H   UNL     1       2.459  -2.613   1.992  0.00  0.00    +0.000 HD
BRANCH  14  20
ATOM     16  C   UNL     1       1.773   1.609   0.838  0.00  0.00    +0.000 A 
ATOM     17  C   UNL     1       1.634   1.952   2.170  0.00  0.00    +0.000 A 
ATOM     18  N   UNL     1       1.837   1.088   3.183  0.00  0.00    +0.000 NA
ATOM     19  C   UNL     1       2.197  -0.173   2.838  0.00  0.00    +0.000 A 
ATOM     20  C   UNL     1       2.344  -0.649   1.529  0.00  0.00    +0.000 A 
ATOM     21  C   UNL     1       2.144   0.299   0.523  0.00  0.00    +0.000 A 
ENDBRANCH  14  20
ENDBRANCH  13  14
ENDBRANCH   1  13
TORSDOF 4
