REMARK  Name = 
REMARK  5 active torsions:
REMARK  status: ('A' for Active; 'I' for Inactive)
REMARK    1  A    between atoms: C_2  and  C_4
REMARK    2  A    between atoms: C_7  and  N_8
REMARK    3  A    between atoms: N_8  and  C_9
REMARK    4  A    between atoms: C_9  and  C_10
REMARK    5  A    between atoms: C_14  and  C_15
REMARK                            x       y       z     vdW  Elec       q    Type
REMARK                         _______ _______ _______ _____ _____    ______ ____
ROOT
ATOM      1  C   UNL     1       4.826   4.349   4.060  0.00  0.00    +0.000 C 
ENDROOT
BRANCH   1   2
ATOM      2  C   UNL     1       5.706   5.477   4.533  0.00  0.00    +0.000 A 
ATOM      3  C   UNL     1       6.894   5.247   5.206  0.00  0.00    +0.000 A 
ATOM      4  N   UNL     1       7.688   6.230   5.680  0.00  0.00    +0.000 NA
ATOM      5  C   UNL     1       7.268   7.506   5.479  0.00  0.00    +0.000 A 
ATOM      6  C   UNL     1       6.097   7.878   4.815  0.00  0.00    +0.000 A 
ATOM      7  C   UNL     1       5.318   6.813   4.342  0.00  0.00    +0.000 A 
BRANCH   6   8
ATOM      8  C   UNL     1       5.699   9.291   4.624  0.00  0.00    +0.000 A 
ATOM      9  C   UNL     1       6.657  10.307   4.435  0.00  0.00    +0.000 A 
ATOM     10  C   UNL     1       6.283  11.647   4.257  0.00  0.00    +0.000 A 
ATOM     11  C   UNL     1       4.938  11.997   4.253  0.00  0.00    +0.000 A 
ATOM     12  C   UNL     1       3.982  11.010   4.430  0.00  0.00    +0.000 A 
ATOM     13  F   UNL     1       2.684  11.341   4.421  0.00  0.00    +0.000 F 
ATOM     14  C   UNL     1       4.347   9.678   4.618  0.00  0.00    +0.000 A 
ENDBRANCH   6   8
ENDBRANCH   1   2
BRANCH   1  15
ATOM     15  N   UNL     1       4.626   4.489   2.625  0.00  0.00    +0.000 N 
ATOM     16  H   UNL     1       5.434   4.190   2.089  0.00  0.00    +0.000 HD
BRANCH  15  20
ATOM     17  C   UNL     1       1.083   3.209   1.002  0.00  0.00    +0.000 A 
ATOM     18  C   UNL     1       1.346   3.029   2.350  0.00  0.00    +0.000 A 
ATOM     19  N   UNL     1       2.524   3.400   2.919  0.00  0.00    +0.000 NA
ATOM     20  C   UNL     1       3.440   3.965   2.105  0.00  0.00    +0.000 A 
ATOM     21  C   UNL     1       3.154   4.130   0.741  0.00  0.00    +0.000 A 
ATOM     22  N   UNL     1       1.991   3.756   0.149  0.00  0.00    +0.000 NA
BRANCH  17  24
ATOM     23  N   UNL     1      -0.403   3.024  -0.897  0.00  0.00    +0.000 N 
ATOM     24  C   UNL     1      -0.242   2.823   0.447  0.00  0.00    +0.000 C 
ATOM     25  O   UNL     1      -1.135   2.359   1.145  0.00  0.00    +0.000 OA
ATOM     26  H   UNL     1      -1.286   2.800  -1.333  0.00  0.00    +0.000 HD
ATOM     27  H   UNL     1       0.352   3.424  -1.444  0.00  0.00    +0.000 HD
ENDBRANCH  17  24
ENDBRANCH  15  20
ENDBRANCH   1  15
TORSDOF 5
