REMARK  Name = 
REMARK  6 active torsions:
REMARK  status: ('A' for Active; 'I' for Inactive)
REMARK    1  A    between atoms: N_1  and  C_2
REMARK    2  A    between atoms: C_2  and  C_3
REMARK    3  A    between atoms: C_3  and  C_4
REMARK    4  A    between atoms: N_7  and  C_8
REMARK    5  A    between atoms: C_8  and  N_9
REMARK    6  A    between atoms: C_14  and  C_15
REMARK                            x       y       z     vdW  Elec       q    Type
REMARK                         _______ _______ _______ _____ _____    ______ ____
ROOT
ATOM      1  N   UNL     1       5.411  -1.861   5.007  0.00  0.00    +0.000 N 
ATOM      2  C   UNL     1       6.751  -2.168   5.071  0.00  0.00    +0.000 A 
ATOM      3  C   UNL     1       6.868  -3.495   5.422  0.00  0.00    +0.000 A 
ATOM      4  C   UNL     1       5.557  -4.010   5.602  0.00  0.00    +0.000 A 
ATOM      5  C   UNL     1       5.017  -5.252   5.990  0.00  0.00    +0.000 A 
ATOM      6  C   UNL     1       3.626  -5.362   6.075  0.00  0.00    +0.000 A 
ATOM      7  C   UNL     1       2.852  -4.254   5.737  0.00  0.00    +0.000 A 
ATOM      8  N   UNL     1       3.321  -3.035   5.357  0.00  0.00    +0.000 NA
ATOM      9  C   UNL     1       4.667  -2.976   5.320  0.00  0.00    +0.000 A 
ENDROOT
BRANCH   6  10
ATOM     10  C   UNL     1       2.921  -6.587   6.527  0.00  0.00    +0.000 C 
ATOM     11  N   UNL     1       3.665  -7.657   6.943  0.00  0.00    +0.000 N 
ATOM     12  O   UNL     1       1.699  -6.644   6.557  0.00  0.00    +0.000 OA
ATOM     13  H   UNL     1       4.670  -7.682   7.004  0.00  0.00    +0.000 HD
ATOM     14  H   UNL     1       3.153  -8.458   7.292  0.00  0.00    +0.000 HD
ENDBRANCH   6  10
BRANCH   1  15
ATOM     15  C   UNL     1       4.850  -0.538   4.753  0.00  0.00    +0.000 C 
BRANCH  15  19
ATOM     16  C   UNL     1       4.506   1.081   0.783  0.00  0.00    +0.000 C 
ATOM     17  C   UNL     1       5.054  -0.342   0.957  0.00  0.00    +0.000 C 
ATOM     18  C   UNL     1       4.761  -0.907   2.350  0.00  0.00    +0.000 C 
ATOM     19  N   UNL     1       5.280  -0.043   3.425  0.00  0.00    +0.000 NA
ATOM     20  C   UNL     1       4.821   1.351   3.290  0.00  0.00    +0.000 C 
ATOM     21  C   UNL     1       5.104   1.939   1.905  0.00  0.00    +0.000 C 
BRANCH  16  22
ATOM     22  C   UNL     1       2.959   1.079   0.749  0.00  0.00    +0.000 C 
BRANCH  22  23
ATOM     23  C   UNL     1       2.353   2.457   0.480  0.00  0.00    +0.000 C 
BRANCH  23  24
ATOM     24  N   UNL     1       0.897   2.368   0.461  0.00  0.00    +0.000 NA
ATOM     25  H   UNL     1       0.503   3.299   0.328  0.00  0.00    +0.000 HD
ATOM     26  H   UNL     1       0.559   2.044   1.368  0.00  0.00    +0.000 HD
ENDBRANCH  23  24
ENDBRANCH  22  23
ENDBRANCH  16  22
ENDBRANCH  15  19
ENDBRANCH   1  15
TORSDOF 6
