REMARK  Name = 
REMARK  5 active torsions:
REMARK  status: ('A' for Active; 'I' for Inactive)
REMARK    1  A    between atoms: C_2  and  C_4
REMARK    2  A    between atoms: C_7  and  O_8
REMARK    3  A    between atoms: O_8  and  C_9
REMARK    4  A    between atoms: C_11  and  C_12
REMARK    5  A    between atoms: C_11  and  C_18
REMARK                            x       y       z     vdW  Elec       q    Type
REMARK                         _______ _______ _______ _____ _____    ______ ____
ROOT
ATOM      1  C   UNL     1       4.878  -5.879   0.116  0.00  0.00    +0.000 C 
ATOM      2  C   UNL     1       4.658  -6.230  -1.334  0.00  0.00    +0.000 C 
ATOM      3  C   UNL     1       3.462  -6.169  -0.395  0.00  0.00    +0.000 C 
ENDROOT
BRANCH   3   4
ATOM      4  C   UNL     1       2.766  -7.516  -0.159  0.00  0.00    +0.000 A 
ATOM      5  C   UNL     1       2.678  -8.101   1.113  0.00  0.00    +0.000 A 
ATOM      6  C   UNL     1       1.789  -9.153   1.362  0.00  0.00    +0.000 A 
ATOM      7  C   UNL     1       0.987  -9.654   0.338  0.00  0.00    +0.000 A 
ATOM      8  C   UNL     1       1.121  -9.152  -0.951  0.00  0.00    +0.000 A 
ATOM      9  C   UNL     1       2.015  -8.109  -1.198  0.00  0.00    +0.000 A 
ENDBRANCH   3   4
BRANCH   3  10
ATOM     10  C   UNL     1       2.453  -5.043  -0.528  0.00  0.00    +0.000 C 
ATOM     11  F   UNL     1       2.950  -3.823  -0.234  0.00  0.00    +0.000 F 
ATOM     12  F   UNL     1       1.973  -4.992  -1.798  0.00  0.00    +0.000 F 
ATOM     13  F   UNL     1       1.390  -5.241   0.294  0.00  0.00    +0.000 F 
ENDBRANCH   3  10
BRANCH   1  14
ATOM     14  O   UNL     1       5.385  -4.527   0.204  0.00  0.00    +0.000 OA
BRANCH  14  18
ATOM     15  C   UNL     1       6.167  -2.568   3.788  0.00  0.00    +0.000 A 
ATOM     16  C   UNL     1       6.956  -2.352   2.655  0.00  0.00    +0.000 A 
ATOM     17  C   UNL     1       6.694  -3.068   1.485  0.00  0.00    +0.000 A 
ATOM     18  C   UNL     1       5.657  -4.003   1.438  0.00  0.00    +0.000 A 
ATOM     19  C   UNL     1       4.897  -4.261   2.579  0.00  0.00    +0.000 A 
ATOM     20  C   UNL     1       5.163  -3.548   3.757  0.00  0.00    +0.000 A 
BRANCH  15  22
ATOM     21  N   UNL     1       6.797  -0.482   4.873  0.00  0.00    +0.000 N 
ATOM     22  C   UNL     1       6.334  -1.762   5.025  0.00  0.00    +0.000 C 
ATOM     23  O   UNL     1       6.016  -2.192   6.122  0.00  0.00    +0.000 OA
ATOM     24  H   UNL     1       6.758   0.105   5.699  0.00  0.00    +0.000 HD
ATOM     25  H   UNL     1       6.806  -0.016   3.977  0.00  0.00    +0.000 HD
ENDBRANCH  15  22
ENDBRANCH  14  18
ENDBRANCH   1  14
TORSDOF 5
