REMARK  Name = 
REMARK  5 active torsions:
REMARK  status: ('A' for Active; 'I' for Inactive)
REMARK    1  A    between atoms: C_2  and  C_18
REMARK    2  A    between atoms: N_3  and  C_4
REMARK    3  A    between atoms: C_4  and  C_5
REMARK    4  A    between atoms: C_8  and  C_9
REMARK    5  A    between atoms: C_9  and  C_10
REMARK                            x       y       z     vdW  Elec       q    Type
REMARK                         _______ _______ _______ _____ _____    ______ ____
ROOT
ATOM      1  O   UNL     1       0.058  -0.338  -0.615  0.00  0.00    +0.000 OA
ATOM      2  C   UNL     1      -0.045  -0.915  -1.693  0.00  0.00    +0.000 C 
ATOM      3  N   UNL     1       0.962  -1.649  -2.274  0.00  0.00    +0.000 N 
ATOM      4  H   UNL     1       0.725  -2.245  -3.056  0.00  0.00    +0.000 HD
ENDROOT
BRANCH   2   5
ATOM      5  C   UNL     1      -1.307  -1.087  -2.400  0.00  0.00    +0.000 A 
ATOM      6  C   UNL     1      -2.496  -1.353  -1.752  0.00  0.00    +0.000 A 
ATOM      7  S   UNL     1      -3.666  -2.016  -2.822  0.00  0.00    +0.000 S 
ATOM      8  C   UNL     1      -2.630  -1.824  -4.163  0.00  0.00    +0.000 A 
ATOM      9  N   UNL     1      -2.924  -2.321  -5.394  0.00  0.00    +0.000 NA
ATOM     10  C   UNL     1      -2.045  -2.040  -6.301  0.00  0.00    +0.000 A 
ATOM     11  N   UNL     1      -0.927  -1.264  -6.103  0.00  0.00    +0.000 N 
ATOM     12  C   UNL     1      -0.606  -0.719  -4.884  0.00  0.00    +0.000 A 
ATOM     13  O   UNL     1       0.337   0.052  -4.744  0.00  0.00    +0.000 OA
ATOM     14  C   UNL     1      -1.491  -1.134  -3.815  0.00  0.00    +0.000 A 
ATOM     15  H   UNL     1      -0.330  -1.004  -6.874  0.00  0.00    +0.000 HD
ENDBRANCH   2   5
BRANCH   3  16
ATOM     16  C   UNL     1       2.170  -1.987  -1.576  0.00  0.00    +0.000 C 
BRANCH  16  17
ATOM     17  C   UNL     1       3.106  -2.747  -2.483  0.00  0.00    +0.000 A 
ATOM     18  C   UNL     1       4.077  -2.070  -3.229  0.00  0.00    +0.000 A 
ATOM     19  C   UNL     1       4.968  -2.775  -4.044  0.00  0.00    +0.000 A 
ATOM     20  C   UNL     1       4.891  -4.171  -4.148  0.00  0.00    +0.000 A 
ATOM     21  C   UNL     1       3.886  -4.843  -3.441  0.00  0.00    +0.000 A 
ATOM     22  C   UNL     1       2.998  -4.138  -2.622  0.00  0.00    +0.000 A 
BRANCH  20  23
ATOM     23  C   UNL     1       5.899  -4.940  -4.973  0.00  0.00    +0.000 C 
BRANCH  23  24
ATOM     24  C   UNL     1       7.103  -5.379  -4.195  0.00  0.00    +0.000 A 
ATOM     25  C   UNL     1       7.152  -6.576  -3.509  0.00  0.00    +0.000 A 
ATOM     26  N   UNL     1       8.217  -6.993  -2.794  0.00  0.00    +0.000 NA
ATOM     27  C   UNL     1       9.264  -6.154  -2.770  0.00  0.00    +0.000 A 
ATOM     28  N   UNL     1       9.337  -4.968  -3.390  0.00  0.00    +0.000 NA
ATOM     29  C   UNL     1       8.242  -4.605  -4.088  0.00  0.00    +0.000 A 
ENDBRANCH  23  24
ENDBRANCH  20  23
ENDBRANCH  16  17
ENDBRANCH   3  16
TORSDOF 5
