REMARK  Name = 
REMARK  10 active torsions:
REMARK  status: ('A' for Active; 'I' for Inactive)
REMARK    1  A    between atoms: N_1  and  C_2
REMARK    2  A    between atoms: C_2  and  C_3
REMARK    3  A    between atoms: C_3  and  N_4
REMARK    4  A    between atoms: C_3  and  C_21
REMARK    5  A    between atoms: N_4  and  C_5
REMARK    6  A    between atoms: C_5  and  C_6
REMARK    7  A    between atoms: C_9  and  C_10
REMARK    8  A    between atoms: C_10  and  N_11
REMARK    9  A    between atoms: N_11  and  C_12
REMARK   10  A    between atoms: C_12  and  C_13
REMARK                            x       y       z     vdW  Elec       q    Type
REMARK                         _______ _______ _______ _____ _____    ______ ____
ROOT
ATOM      1  N   UNL     1      -0.198  -1.346  -0.977  0.00  0.00    +0.000 NA
ATOM      2  H   UNL     1      -0.631  -0.616  -1.546  0.00  0.00    +0.000 HD
ENDROOT
BRANCH   1   3
ATOM      3  C   UNL     1       0.147  -0.809   0.356  0.00  0.00    +0.000 C 
BRANCH   3   4
ATOM      4  C   UNL     1      -1.143  -0.181   0.902  0.00  0.00    +0.000 A 
ATOM      5  C   UNL     1      -2.398  -0.728   0.661  0.00  0.00    +0.000 A 
ATOM      6  S   UNL     1      -3.680   0.159   1.334  0.00  0.00    +0.000 S 
ATOM      7  C   UNL     1      -2.613   1.291   2.019  0.00  0.00    +0.000 A 
ATOM      8  N   UNL     1      -3.097   2.320   2.764  0.00  0.00    +0.000 NA
ATOM      9  C   UNL     1      -2.194   3.092   3.264  0.00  0.00    +0.000 A 
ATOM     10  N   UNL     1      -0.841   2.931   3.071  0.00  0.00    +0.000 N 
ATOM     11  C   UNL     1      -0.312   1.946   2.269  0.00  0.00    +0.000 A 
ATOM     12  O   UNL     1       0.899   1.896   2.052  0.00  0.00    +0.000 OA
ATOM     13  C   UNL     1      -1.287   1.014   1.720  0.00  0.00    +0.000 A 
ATOM     14  H   UNL     1      -0.192   3.583   3.479  0.00  0.00    +0.000 HD
ENDBRANCH   3   4
BRANCH   3  15
ATOM     15  C   UNL     1       0.686  -1.888   1.365  0.00  0.00    +0.000 C 
BRANCH  15  16
ATOM     16  N   UNL     1       1.943  -2.556   0.987  0.00  0.00    +0.000 NA
ATOM     17  H   UNL     1       2.222  -3.208   1.716  0.00  0.00    +0.000 HD
ATOM     18  H   UNL     1       2.685  -1.867   0.889  0.00  0.00    +0.000 HD
ENDBRANCH  15  16
ENDBRANCH   3  15
ENDBRANCH   1   3
BRANCH   1  19
ATOM     19  C   UNL     1       0.928  -1.884  -1.740  0.00  0.00    +0.000 C 
BRANCH  19  20
ATOM     20  C   UNL     1       0.502  -2.318  -3.129  0.00  0.00    +0.000 A 
ATOM     21  C   UNL     1       0.635  -3.653  -3.508  0.00  0.00    +0.000 A 
ATOM     22  C   UNL     1       0.297  -4.020  -4.807  0.00  0.00    +0.000 A 
ATOM     23  C   UNL     1      -0.175  -3.050  -5.696  0.00  0.00    +0.000 A 
ATOM     24  C   UNL     1      -0.277  -1.746  -5.223  0.00  0.00    +0.000 A 
ATOM     25  N   UNL     1       0.044  -1.356  -3.971  0.00  0.00    +0.000 NA
BRANCH  23  26
ATOM     26  C   UNL     1      -0.554  -3.366  -7.118  0.00  0.00    +0.000 C 
BRANCH  26  27
ATOM     27  N   UNL     1      -1.639  -4.337  -7.159  0.00  0.00    +0.000 NA
ATOM     28  H   UNL     1      -2.446  -3.952  -6.667  0.00  0.00    +0.000 HD
BRANCH  27  29
ATOM     29  C   UNL     1      -2.038  -4.672  -8.523  0.00  0.00    +0.000 C 
BRANCH  29  30
ATOM     30  C   UNL     1      -3.154  -5.689  -8.499  0.00  0.00    +0.000 A 
ATOM     31  C   UNL     1      -4.408  -5.407  -9.050  0.00  0.00    +0.000 A 
ATOM     32  C   UNL     1      -5.402  -6.372  -8.977  0.00  0.00    +0.000 A 
ATOM     33  N   UNL     1      -5.233  -7.585  -8.410  0.00  0.00    +0.000 NA
ATOM     34  C   UNL     1      -4.016  -7.839  -7.883  0.00  0.00    +0.000 A 
ATOM     35  C   UNL     1      -2.962  -6.940  -7.902  0.00  0.00    +0.000 A 
ENDBRANCH  29  30
ENDBRANCH  27  29
ENDBRANCH  26  27
ENDBRANCH  23  26
ENDBRANCH  19  20
ENDBRANCH   1  19
TORSDOF 10
