REMARK  Name = 
REMARK  5 active torsions:
REMARK  status: ('A' for Active; 'I' for Inactive)
REMARK    1  A    between atoms: N_1  and  C_2
REMARK    2  A    between atoms: C_2  and  C_3
REMARK    3  A    between atoms: C_6  and  O_7
REMARK    4  A    between atoms: O_7  and  C_8
REMARK    5  A    between atoms: C_8  and  C_9
REMARK                            x       y       z     vdW  Elec       q    Type
REMARK                         _______ _______ _______ _____ _____    ______ ____
ROOT
ATOM      1  C   UNL     1       0.894  -0.610 -11.975  0.00  0.00    +0.000 A 
ATOM      2  C   UNL     1       0.400  -1.713 -11.270  0.00  0.00    +0.000 A 
ATOM      3  C   UNL     1       1.160  -2.276 -10.249  0.00  0.00    +0.000 A 
ATOM      4  C   UNL     1       2.384  -1.704  -9.948  0.00  0.00    +0.000 A 
ATOM      5  N   UNL     1       2.898  -0.641 -10.604  0.00  0.00    +0.000 NA
ATOM      6  C   UNL     1       2.144  -0.127 -11.602  0.00  0.00    +0.000 A 
ENDROOT
BRANCH   1   7
ATOM      7  C   UNL     1       0.124   0.015 -13.103  0.00  0.00    +0.000 C 
BRANCH   7   8
ATOM      8  N   UNL     1      -1.148   0.564 -12.651  0.00  0.00    +0.000 NA
ATOM      9  H   UNL     1      -1.601   1.044 -13.427  0.00  0.00    +0.000 HD
ATOM     10  H   UNL     1      -0.972   1.275 -11.941  0.00  0.00    +0.000 HD
ENDBRANCH   7   8
ENDBRANCH   1   7
BRANCH   4  11
ATOM     11  O   UNL     1       3.127  -2.308  -8.955  0.00  0.00    +0.000 OA
BRANCH  11  12
ATOM     12  C   UNL     1       4.093  -1.421  -8.369  0.00  0.00    +0.000 C 
BRANCH  12  13
ATOM     13  C   UNL     1       4.921  -2.211  -7.326  0.00  0.00    +0.000 C 
ATOM     14  C   UNL     1       5.939  -1.328  -6.590  0.00  0.00    +0.000 C 
ATOM     15  C   UNL     1       5.289  -0.420  -5.549  0.00  0.00    +0.000 C 
ATOM     16  C   UNL     1       4.353  -1.207  -4.637  0.00  0.00    +0.000 C 
ATOM     17  C   UNL     1       3.386  -2.083  -5.428  0.00  0.00    +0.000 C 
ATOM     18  N   UNL     1       4.094  -2.961  -6.358  0.00  0.00    +0.000 NA
ATOM     19  H   UNL     1       3.408  -3.500  -6.891  0.00  0.00    +0.000 HD
ENDBRANCH  12  13
ENDBRANCH  11  12
ENDBRANCH   4  11
TORSDOF 5
