REMARK  Name = 
REMARK  7 active torsions:
REMARK  status: ('A' for Active; 'I' for Inactive)
REMARK    1  A    between atoms: N_1  and  C_2
REMARK    2  A    between atoms: C_2  and  C_3
REMARK    3  A    between atoms: C_6  and  N_7
REMARK    4  A    between atoms: N_7  and  C_8
REMARK    5  A    between atoms: C_8  and  C_9
REMARK    6  A    between atoms: C_9  and  C_12
REMARK    7  A    between atoms: C_15  and  O_16
REMARK                            x       y       z     vdW  Elec       q    Type
REMARK                         _______ _______ _______ _____ _____    ______ ____
ROOT
ATOM      1  C   UNL     1       4.872   4.770   3.510  0.00  0.00    +0.000 C 
ENDROOT
BRANCH   1   2
ATOM      2  C   UNL     1       5.118   6.160   4.151  0.00  0.00    +0.000 C 
ATOM      3  F   UNL     1       3.891   6.695   4.453  0.00  0.00    +0.000 F 
ATOM      4  F   UNL     1       5.715   5.956   5.366  0.00  0.00    +0.000 F 
BRANCH   2   5
ATOM      5  C   UNL     1       5.935   7.094   3.277  0.00  0.00    +0.000 A 
ATOM      6  C   UNL     1       7.337   7.141   3.379  0.00  0.00    +0.000 A 
ATOM      7  C   UNL     1       8.086   8.010   2.576  0.00  0.00    +0.000 A 
ATOM      8  C   UNL     1       7.435   8.837   1.663  0.00  0.00    +0.000 A 
ATOM      9  C   UNL     1       6.048   8.798   1.557  0.00  0.00    +0.000 A 
ATOM     10  F   UNL     1       5.410   9.592   0.685  0.00  0.00    +0.000 F 
ATOM     11  C   UNL     1       5.299   7.939   2.355  0.00  0.00    +0.000 A 
BRANCH   8  12
ATOM     12  O   UNL     1       8.138   9.694   0.867  0.00  0.00    +0.000 OA
ATOM     13  H   UNL     1       9.085   9.603   1.054  0.00  0.00    +0.000 HD
ENDBRANCH   8  12
ENDBRANCH   2   5
ENDBRANCH   1   2
BRANCH   1  14
ATOM     14  N   UNL     1       4.081   4.839   2.263  0.00  0.00    +0.000 N 
ATOM     15  H   UNL     1       3.193   5.317   2.407  0.00  0.00    +0.000 HD
BRANCH  14  19
ATOM     16  C   UNL     1       3.366   1.279   0.308  0.00  0.00    +0.000 A 
ATOM     17  C   UNL     1       4.042   1.308   1.522  0.00  0.00    +0.000 A 
ATOM     18  N   UNL     1       4.303   2.456   2.201  0.00  0.00    +0.000 NA
ATOM     19  C   UNL     1       3.840   3.597   1.653  0.00  0.00    +0.000 A 
ATOM     20  C   UNL     1       3.143   3.554   0.440  0.00  0.00    +0.000 A 
ATOM     21  N   UNL     1       2.884   2.416  -0.251  0.00  0.00    +0.000 NA
BRANCH  16  22
ATOM     22  C   UNL     1       3.111  -0.021  -0.414  0.00  0.00    +0.000 C 
BRANCH  22  23
ATOM     23  N   UNL     1       1.842  -0.633  -0.020  0.00  0.00    +0.000 NA
ATOM     24  H   UNL     1       1.614  -1.367  -0.689  0.00  0.00    +0.000 HD
ATOM     25  H   UNL     1       1.112   0.074  -0.133  0.00  0.00    +0.000 HD
ENDBRANCH  22  23
ENDBRANCH  16  22
ENDBRANCH  14  19
ENDBRANCH   1  14
TORSDOF 7
