REMARK  Name = 
REMARK  4 active torsions:
REMARK  status: ('A' for Active; 'I' for Inactive)
REMARK    1  A    between atoms: N_1  and  C_2
REMARK    2  A    between atoms: C_2  and  C_3
REMARK    3  A    between atoms: C_6  and  C_7
REMARK    4  A    between atoms: C_7  and  N_8
REMARK                            x       y       z     vdW  Elec       q    Type
REMARK                         _______ _______ _______ _____ _____    ______ ____
ROOT
ATOM      1  C   UNL     1       3.499  -1.093   0.952  0.00  0.00    +0.000 A 
ATOM      2  C   UNL     1       2.395  -1.477   1.708  0.00  0.00    +0.000 A 
ATOM      3  C   UNL     1       2.490  -2.606   2.518  0.00  0.00    +0.000 A 
ATOM      4  C   UNL     1       3.684  -3.332   2.555  0.00  0.00    +0.000 A 
ATOM      5  C   UNL     1       4.750  -2.843   1.810  0.00  0.00    +0.000 A 
ATOM      6  N   UNL     1       4.684  -1.752   1.015  0.00  0.00    +0.000 NA
ENDROOT
BRANCH   1   7
ATOM      7  C   UNL     1       3.403   0.071  -0.010  0.00  0.00    +0.000 C 
BRANCH   7   8
ATOM      8  N   UNL     1       3.067   1.336   0.648  0.00  0.00    +0.000 NA
ATOM      9  H   UNL     1       3.167   2.087  -0.032  0.00  0.00    +0.000 HD
ATOM     10  H   UNL     1       3.777   1.511   1.361  0.00  0.00    +0.000 HD
ENDBRANCH   7   8
ENDBRANCH   1   7
BRANCH   4  11
ATOM     11  C   UNL     1       3.785  -4.645   3.269  0.00  0.00    +0.000 C 
BRANCH  11  12
ATOM     12  N   UNL     1       4.259  -4.622   4.652  0.00  0.00    +0.000 N 
ATOM     13  C   UNL     1       4.174  -3.585   5.548  0.00  0.00    +0.000 A 
ATOM     14  C   UNL     1       4.426  -4.091   6.808  0.00  0.00    +0.000 A 
ATOM     15  C   UNL     1       4.702  -5.471   6.669  0.00  0.00    +0.000 A 
ATOM     16  N   UNL     1       4.952  -6.394   7.628  0.00  0.00    +0.000 NA
ATOM     17  C   UNL     1       5.178  -7.644   7.166  0.00  0.00    +0.000 A 
ATOM     18  C   UNL     1       5.210  -8.018   5.830  0.00  0.00    +0.000 A 
ATOM     19  C   UNL     1       4.952  -7.063   4.853  0.00  0.00    +0.000 A 
ATOM     20  C   UNL     1       4.664  -5.773   5.307  0.00  0.00    +0.000 A 
ENDBRANCH  11  12
ENDBRANCH   4  11
TORSDOF 4
