REMARK  Name = 
REMARK  5 active torsions:
REMARK  status: ('A' for Active; 'I' for Inactive)
REMARK    1  A    between atoms: C_1  and  N_2
REMARK    2  A    between atoms: C_3  and  C_5
REMARK    3  A    between atoms: N_9  and  C_10
REMARK    4  A    between atoms: C_10  and  C_11
REMARK    5  A    between atoms: C_10  and  C_12
REMARK                            x       y       z     vdW  Elec       q    Type
REMARK                         _______ _______ _______ _____ _____    ______ ____
ROOT
ATOM      1  C   UNL     1       9.152  -3.040   3.216  0.00  0.00    +0.000 A 
ATOM      2  C   UNL     1       9.177  -2.103   4.221  0.00  0.00    +0.000 A 
ATOM      3  N   UNL     1       9.176  -0.767   4.006  0.00  0.00    +0.000 NA
ATOM      4  C   UNL     1       9.164  -0.351   2.731  0.00  0.00    +0.000 A 
ATOM      5  N   UNL     1       9.056   1.008   2.547  0.00  0.00    +0.000 N 
ATOM      6  N   UNL     1       9.203  -1.188   1.682  0.00  0.00    +0.000 NA
ATOM      7  C   UNL     1       9.199  -2.517   1.946  0.00  0.00    +0.000 A 
ATOM      8  H   UNL     1       9.257   1.483   3.415  0.00  0.00    +0.000 HD
ENDROOT
BRANCH   1  11
ATOM      9  C   UNL     1       8.357  -6.332   4.889  0.00  0.00    +0.000 C 
ATOM     10  N   UNL     1       8.498  -4.924   4.605  0.00  0.00    +0.000 N 
ATOM     11  C   UNL     1       9.102  -4.495   3.440  0.00  0.00    +0.000 C 
ATOM     12  O   UNL     1       9.554  -5.255   2.591  0.00  0.00    +0.000 OA
ATOM     13  H   UNL     1       7.974  -4.278   5.180  0.00  0.00    +0.000 HD
ENDBRANCH   1  11
BRANCH   5  14
ATOM     14  C   UNL     1       9.595   1.600   1.335  0.00  0.00    +0.000 C 
ATOM     15  C   UNL     1      11.093   1.881   1.488  0.00  0.00    +0.000 C 
BRANCH  14  16
ATOM     16  C   UNL     1       8.803   2.863   1.011  0.00  0.00    +0.000 A 
ATOM     17  C   UNL     1       7.978   2.880  -0.128  0.00  0.00    +0.000 A 
ATOM     18  C   UNL     1       7.212   4.004  -0.444  0.00  0.00    +0.000 A 
ATOM     19  C   UNL     1       7.253   5.128   0.375  0.00  0.00    +0.000 A 
ATOM     20  C   UNL     1       8.066   5.131   1.506  0.00  0.00    +0.000 A 
ATOM     21  C   UNL     1       8.837   4.008   1.823  0.00  0.00    +0.000 A 
ENDBRANCH  14  16
ENDBRANCH   5  14
TORSDOF 3
