REMARK  Name = 
REMARK  4 active torsions:
REMARK  status: ('A' for Active; 'I' for Inactive)
REMARK    1  A    between atoms: C_7  and  C_8
REMARK    2  A    between atoms: C_8  and  N_9
REMARK    3  A    between atoms: N_9  and  C_10
REMARK    4  A    between atoms: C_14  and  C_15
REMARK                            x       y       z     vdW  Elec       q    Type
REMARK                         _______ _______ _______ _____ _____    ______ ____
ROOT
ATOM      1  C   UNL     1       7.902   3.517   0.088  0.00  0.00    +0.000 A 
ATOM      2  C   UNL     1       7.812   4.611   0.954  0.00  0.00    +0.000 A 
ATOM      3  C   UNL     1       8.640   5.719   0.795  0.00  0.00    +0.000 A 
ATOM      4  C   UNL     1       9.601   5.733  -0.215  0.00  0.00    +0.000 A 
ATOM      5  C   UNL     1       9.759   4.641  -1.085  0.00  0.00    +0.000 A 
ATOM      6  C   UNL     1       8.912   3.530  -0.888  0.00  0.00    +0.000 A 
ENDROOT
BRANCH   5   7
ATOM      7  C   UNL     1      10.758   4.671  -2.176  0.00  0.00    +0.000 A 
ATOM      8  C   UNL     1      11.431   3.521  -2.616  0.00  0.00    +0.000 A 
ATOM      9  C   UNL     1      12.353   3.590  -3.662  0.00  0.00    +0.000 A 
ATOM     10  C   UNL     1      12.594   4.820  -4.245  0.00  0.00    +0.000 A 
ATOM     11  N   UNL     1      11.983   5.957  -3.865  0.00  0.00    +0.000 NA
ATOM     12  C   UNL     1      11.084   5.851  -2.853  0.00  0.00    +0.000 A 
ENDBRANCH   5   7
BRANCH   1  13
ATOM     13  N   UNL     1       7.100   2.374   0.229  0.00  0.00    +0.000 N 
ATOM     14  H   UNL     1       7.072   1.813  -0.626  0.00  0.00    +0.000 HD
BRANCH  13  15
ATOM     15  C   UNL     1       5.738   2.596   0.720  0.00  0.00    +0.000 C 
BRANCH  15  22
ATOM     16 CL   UNL     1       1.358  -0.143   1.314  0.00  0.00    +0.000 Cl
ATOM     17  C   UNL     1       2.772   0.273   0.427  0.00  0.00    +0.000 A 
ATOM     18  C   UNL     1       3.021  -0.331  -0.796  0.00  0.00    +0.000 A 
ATOM     19  C   UNL     1       4.166   0.053  -1.459  0.00  0.00    +0.000 A 
ATOM     20 CL   UNL     1       4.565  -0.618  -2.987  0.00  0.00    +0.000 Cl
ATOM     21  N   UNL     1       5.052   0.960  -0.999  0.00  0.00    +0.000 NA
ATOM     22  C   UNL     1       4.791   1.526   0.211  0.00  0.00    +0.000 A 
ATOM     23  C   UNL     1       3.650   1.217   0.942  0.00  0.00    +0.000 A 
ENDBRANCH  15  22
ENDBRANCH  13  15
ENDBRANCH   1  13
TORSDOF 4
