REMARK  Name = 
REMARK  7 active torsions:
REMARK  status: ('A' for Active; 'I' for Inactive)
REMARK    1  A    between atoms: C_1  and  C_2
REMARK    2  A    between atoms: C_2  and  C_3
REMARK    3  A    between atoms: C_2  and  C_4
REMARK    4  A    between atoms: C_2  and  C_5
REMARK    5  A    between atoms: C_9  and  C_10
REMARK    6  A    between atoms: N_16  and  C_17
REMARK    7  A    between atoms: C_17  and  C_18
REMARK                            x       y       z     vdW  Elec       q    Type
REMARK                         _______ _______ _______ _____ _____    ______ ____
ROOT
ATOM      1  C   UNL     1       2.957  -1.076  -0.761  0.00  0.00    +0.000 A 
ATOM      2  N   UNL     1       3.656  -0.984  -1.889  0.00  0.00    +0.000 NA
ATOM      3  C   UNL     1       3.755  -2.247  -2.403  0.00  0.00    +0.000 A 
ATOM      4  C   UNL     1       4.381  -2.734  -3.558  0.00  0.00    +0.000 A 
ATOM      5  C   UNL     1       4.293  -4.112  -3.800  0.00  0.00    +0.000 A 
ATOM      6  C   UNL     1       3.588  -4.907  -2.893  0.00  0.00    +0.000 A 
ATOM      7  N   UNL     1       2.977  -4.476  -1.756  0.00  0.00    +0.000 NA
ATOM      8  C   UNL     1       3.101  -3.146  -1.584  0.00  0.00    +0.000 A 
ATOM      9  N   UNL     1       2.636  -2.405  -0.523  0.00  0.00    +0.000 N 
ENDROOT
BRANCH   5  10
ATOM     10  C   UNL     1       4.908  -4.790  -4.967  0.00  0.00    +0.000 C 
ATOM     11  N   UNL     1       5.649  -4.048  -5.842  0.00  0.00    +0.000 N 
ATOM     12  O   UNL     1       4.769  -5.994  -5.145  0.00  0.00    +0.000 OA
ATOM     13  H   UNL     1       5.844  -3.063  -5.757  0.00  0.00    +0.000 HD
ATOM     14  H   UNL     1       6.074  -4.546  -6.615  0.00  0.00    +0.000 HD
ENDBRANCH   5  10
BRANCH   1  16
ATOM     15  C   UNL     1       1.159   0.628  -0.457  0.00  0.00    +0.000 C 
ATOM     16  C   UNL     1       2.537   0.157   0.042  0.00  0.00    +0.000 C 
ATOM     17  C   UNL     1       3.558   1.293  -0.217  0.00  0.00    +0.000 C 
ATOM     18  C   UNL     1       2.495  -0.044   1.563  0.00  0.00    +0.000 C 
ENDBRANCH   1  16
BRANCH   9  19
ATOM     19  C   UNL     1       1.932  -3.027   0.584  0.00  0.00    +0.000 C 
BRANCH  19  20
ATOM     20  C   UNL     1       2.826  -3.388   1.744  0.00  0.00    +0.000 A 
ATOM     21  C   UNL     1       4.120  -3.882   1.580  0.00  0.00    +0.000 A 
ATOM     22  N   UNL     1       4.897  -4.287   2.615  0.00  0.00    +0.000 NA
ATOM     23  C   UNL     1       4.330  -4.203   3.835  0.00  0.00    +0.000 A 
ATOM     24  C   UNL     1       3.048  -3.720   4.017  0.00  0.00    +0.000 A 
ATOM     25  N   UNL     1       2.274  -3.303   2.986  0.00  0.00    +0.000 NA
ENDBRANCH  19  20
ENDBRANCH   9  19
TORSDOF 4
