REMARK  Name = 
REMARK  7 active torsions:
REMARK  status: ('A' for Active; 'I' for Inactive)
REMARK    1  A    between atoms: N_1  and  C_2
REMARK    2  A    between atoms: C_2  and  N_3
REMARK    3  A    between atoms: C_2  and  C_11
REMARK    4  A    between atoms: C_4  and  C_6
REMARK    5  A    between atoms: C_14  and  C_15
REMARK    6  A    between atoms: C_15  and  N_16
REMARK    7  A    between atoms: C_17  and  C_19
REMARK                            x       y       z     vdW  Elec       q    Type
REMARK                         _______ _______ _______ _____ _____    ______ ____
ROOT
ATOM      1  C   UNL     1       2.980   0.643  -1.240  0.00  0.00    +0.000 A 
ATOM      2  C   UNL     1       2.721   2.014  -1.428  0.00  0.00    +0.000 A 
ATOM      3  C   UNL     1       3.104   2.673  -2.597  0.00  0.00    +0.000 A 
ATOM      4  C   UNL     1       3.754   1.972  -3.617  0.00  0.00    +0.000 A 
ATOM      5  C   UNL     1       4.064   0.621  -3.418  0.00  0.00    +0.000 A 
ATOM      6  C   UNL     1       3.675  -0.039  -2.249  0.00  0.00    +0.000 A 
ENDROOT
BRANCH   1   7
ATOM      7  C   UNL     1       2.492  -0.015   0.035  0.00  0.00    +0.000 C 
BRANCH   7   8
ATOM      8  N   UNL     1       2.762  -1.410   0.143  0.00  0.00    +0.000 N 
ATOM      9  C   UNL     1       3.889  -1.894   0.772  0.00  0.00    +0.000 C 
ATOM     10  O   UNL     1       4.730  -1.163   1.285  0.00  0.00    +0.000 OA
ATOM     11  H   UNL     1       2.201  -2.054  -0.394  0.00  0.00    +0.000 HD
BRANCH   9  12
ATOM     12  C   UNL     1       3.987  -3.334   0.789  0.00  0.00    +0.000 A 
ATOM     13  C   UNL     1       4.938  -4.189   1.297  0.00  0.00    +0.000 A 
ATOM     14  C   UNL     1       4.432  -5.472   1.029  0.00  0.00    +0.000 A 
ATOM     15  N   UNL     1       3.256  -5.425   0.397  0.00  0.00    +0.000 NA
ATOM     16  O   UNL     1       2.977  -4.077   0.245  0.00  0.00    +0.000 OA
ENDBRANCH   9  12
ENDBRANCH   7   8
BRANCH   7  17
ATOM     17  N   UNL     1       1.048   0.041   0.111  0.00  0.00    +0.000 NA
ATOM     18  H   UNL     1       0.754  -0.434   0.958  0.00  0.00    +0.000 HD
ATOM     19  H   UNL     1       0.653  -0.460  -0.679  0.00  0.00    +0.000 HD
ENDBRANCH   7  17
ENDBRANCH   1   7
BRANCH   4  20
ATOM     20  C   UNL     1       4.131   2.646  -4.907  0.00  0.00    +0.000 C 
BRANCH  20  21
ATOM     21  N   UNL     1       5.435   3.246  -4.840  0.00  0.00    +0.000 N 
ATOM     22  C   UNL     1       6.567   2.615  -5.279  0.00  0.00    +0.000 C 
ATOM     23  O   UNL     1       6.551   1.486  -5.763  0.00  0.00    +0.000 OA
ATOM     24  H   UNL     1       5.521   4.072  -4.259  0.00  0.00    +0.000 HD
BRANCH  22  25
ATOM     25  C   UNL     1       7.807   3.401  -5.222  0.00  0.00    +0.000 A 
ATOM     26  C   UNL     1       8.859   3.090  -6.071  0.00  0.00    +0.000 A 
ATOM     27  S   UNL     1      10.203   4.129  -5.902  0.00  0.00    +0.000 S 
ATOM     28  C   UNL     1       9.440   5.003  -4.657  0.00  0.00    +0.000 A 
ATOM     29  N   UNL     1      10.073   6.035  -4.039  0.00  0.00    +0.000 NA
ATOM     30  C   UNL     1       9.389   6.591  -3.090  0.00  0.00    +0.000 A 
ATOM     31  N   UNL     1       8.132   6.210  -2.715  0.00  0.00    +0.000 N 
ATOM     32  C   UNL     1       7.428   5.216  -3.350  0.00  0.00    +0.000 A 
ATOM     33  O   UNL     1       6.259   4.985  -3.064  0.00  0.00    +0.000 OA
ATOM     34  C   UNL     1       8.167   4.528  -4.393  0.00  0.00    +0.000 A 
ATOM     35  H   UNL     1       7.639   6.706  -1.983  0.00  0.00    +0.000 HD
ENDBRANCH  22  25
ENDBRANCH  20  21
ENDBRANCH   4  20
TORSDOF 7
