REMARK  Name = 
REMARK  6 active torsions:
REMARK  status: ('A' for Active; 'I' for Inactive)
REMARK    1  A    between atoms: C_2  and  C_26
REMARK    2  A    between atoms: N_3  and  C_4
REMARK    3  A    between atoms: C_4  and  C_5
REMARK    4  A    between atoms: C_8  and  C_9
REMARK    5  A    between atoms: C_9  and  N_10
REMARK    6  A    between atoms: C_11  and  C_13
REMARK                            x       y       z     vdW  Elec       q    Type
REMARK                         _______ _______ _______ _____ _____    ______ ____
ROOT
ATOM      1  C   UNL     1       3.228  -3.354   1.186  0.00  0.00    +0.000 A 
ATOM      2  C   UNL     1       4.514  -3.084   1.675  0.00  0.00    +0.000 A 
ATOM      3  C   UNL     1       5.380  -4.127   2.025  0.00  0.00    +0.000 A 
ATOM      4  C   UNL     1       4.967  -5.462   1.919  0.00  0.00    +0.000 A 
ATOM      5  C   UNL     1       3.683  -5.722   1.438  0.00  0.00    +0.000 A 
ATOM      6  F   UNL     1       3.257  -6.987   1.321  0.00  0.00    +0.000 F 
ATOM      7  C   UNL     1       2.816  -4.689   1.080  0.00  0.00    +0.000 A 
ENDROOT
BRANCH   1   8
ATOM      8  C   UNL     1       2.296  -2.235   0.802  0.00  0.00    +0.000 C 
BRANCH   8  11
ATOM      9  O   UNL     1       0.247  -0.336   0.678  0.00  0.00    +0.000 OA
ATOM     10  C   UNL     1       0.476  -0.891   1.746  0.00  0.00    +0.000 C 
ATOM     11  N   UNL     1       1.465  -1.836   1.914  0.00  0.00    +0.000 N 
ATOM     12  H   UNL     1       1.497  -2.394   2.756  0.00  0.00    +0.000 HD
BRANCH  10  13
ATOM     13  C   UNL     1      -0.348  -0.584   2.937  0.00  0.00    +0.000 A 
ATOM     14  C   UNL     1       0.142  -0.676   4.241  0.00  0.00    +0.000 A 
ATOM     15  C   UNL     1      -0.700  -0.375   5.310  0.00  0.00    +0.000 A 
ATOM     16  C   UNL     1      -2.003   0.012   5.036  0.00  0.00    +0.000 A 
ATOM     17  N   UNL     1      -2.503   0.127   3.787  0.00  0.00    +0.000 NA
ATOM     18  C   UNL     1      -1.660  -0.163   2.763  0.00  0.00    +0.000 A 
ENDBRANCH  10  13
ENDBRANCH   8  11
ENDBRANCH   1   8
BRANCH   4  19
ATOM     19  C   UNL     1       5.893  -6.585   2.293  0.00  0.00    +0.000 C 
BRANCH  19  20
ATOM     20  N   UNL     1       6.667  -7.042   1.165  0.00  0.00    +0.000 N 
ATOM     21  C   UNL     1       7.941  -6.610   0.902  0.00  0.00    +0.000 C 
ATOM     22  O   UNL     1       8.532  -5.824   1.637  0.00  0.00    +0.000 OA
ATOM     23  H   UNL     1       6.156  -7.555   0.454  0.00  0.00    +0.000 HD
BRANCH  21  24
ATOM     24  C   UNL     1       8.591  -7.188  -0.283  0.00  0.00    +0.000 A 
ATOM     25  C   UNL     1       9.977  -7.219  -0.365  0.00  0.00    +0.000 A 
ATOM     26  S   UNL     1      10.563  -7.940  -1.796  0.00  0.00    +0.000 S 
ATOM     27  C   UNL     1       8.985  -8.204  -2.374  0.00  0.00    +0.000 A 
ATOM     28  N   UNL     1       8.772  -8.782  -3.589  0.00  0.00    +0.000 NA
ATOM     29  C   UNL     1       7.527  -8.901  -3.910  0.00  0.00    +0.000 A 
ATOM     30  N   UNL     1       6.476  -8.505  -3.127  0.00  0.00    +0.000 N 
ATOM     31  C   UNL     1       6.643  -7.952  -1.880  0.00  0.00    +0.000 A 
ATOM     32  O   UNL     1       5.678  -7.678  -1.174  0.00  0.00    +0.000 OA
ATOM     33  C   UNL     1       8.024  -7.770  -1.478  0.00  0.00    +0.000 A 
ATOM     34  H   UNL     1       5.523  -8.647  -3.425  0.00  0.00    +0.000 HD
ENDBRANCH  21  24
ENDBRANCH  19  20
ENDBRANCH   4  19
TORSDOF 6
