REMARK  Name = 
REMARK  5 active torsions:
REMARK  status: ('A' for Active; 'I' for Inactive)
REMARK    1  A    between atoms: C_2  and  C_18
REMARK    2  A    between atoms: N_3  and  C_4
REMARK    3  A    between atoms: C_4  and  C_5
REMARK    4  A    between atoms: C_8  and  C_9
REMARK    5  A    between atoms: C_9  and  C_10
REMARK                            x       y       z     vdW  Elec       q    Type
REMARK                         _______ _______ _______ _____ _____    ______ ____
ROOT
ATOM      1  O   UNL     1       3.785  -0.220   0.623  0.00  0.00    +0.000 OA
ATOM      2  C   UNL     1       3.433  -0.501  -0.532  0.00  0.00    +0.000 C 
ATOM      3  N   UNL     1       2.599  -1.554  -0.801  0.00  0.00    +0.000 N 
ATOM      4  H   UNL     1       2.485  -1.857  -1.769  0.00  0.00    +0.000 HD
ENDROOT
BRANCH   2   5
ATOM      5  C   UNL     1       3.885   0.317  -1.659  0.00  0.00    +0.000 A 
ATOM      6  C   UNL     1       4.223   1.662  -1.499  0.00  0.00    +0.000 A 
ATOM      7  S   UNL     1       4.800   2.376  -2.945  0.00  0.00    +0.000 S 
ATOM      8  C   UNL     1       4.634   0.916  -3.804  0.00  0.00    +0.000 A 
ATOM      9  N   UNL     1       4.995   0.819  -5.111  0.00  0.00    +0.000 NA
ATOM     10  C   UNL     1       4.839  -0.356  -5.623  0.00  0.00    +0.000 A 
ATOM     11  N   UNL     1       4.342  -1.448  -4.960  0.00  0.00    +0.000 N 
ATOM     12  C   UNL     1       3.885  -1.377  -3.663  0.00  0.00    +0.000 A 
ATOM     13  O   UNL     1       3.281  -2.307  -3.154  0.00  0.00    +0.000 OA
ATOM     14  C   UNL     1       4.104  -0.087  -3.019  0.00  0.00    +0.000 A 
ATOM     15  H   UNL     1       4.194  -2.327  -5.410  0.00  0.00    +0.000 HD
ENDBRANCH   2   5
BRANCH   3  16
ATOM     16  C   UNL     1       2.073  -2.427   0.228  0.00  0.00    +0.000 C 
BRANCH  16  17
ATOM     17  C   UNL     1       2.916  -3.646   0.503  0.00  0.00    +0.000 A 
ATOM     18  C   UNL     1       3.973  -3.558   1.405  0.00  0.00    +0.000 A 
ATOM     19  C   UNL     1       4.752  -4.668   1.693  0.00  0.00    +0.000 A 
ATOM     20  C   UNL     1       4.628  -5.788   0.886  0.00  0.00    +0.000 A 
ATOM     21  N   UNL     1       3.552  -5.957   0.078  0.00  0.00    +0.000 NA
ATOM     22  C   UNL     1       2.686  -4.908  -0.037  0.00  0.00    +0.000 A 
BRANCH  20  23
ATOM     23  C   UNL     1       5.804  -6.752   0.840  0.00  0.00    +0.000 C 
BRANCH  23  24
ATOM     24  C   UNL     1       6.960  -6.444  -0.121  0.00  0.00    +0.000 C 
ATOM     25  C   UNL     1       7.030  -5.859  -1.340  0.00  0.00    +0.000 C 
ATOM     26  C   UNL     1       8.325  -5.553  -2.068  0.00  0.00    +0.000 C 
ATOM     27  C   UNL     1       7.903  -4.412  -2.989  0.00  0.00    +0.000 C 
ATOM     28  N   UNL     1       6.568  -4.815  -3.451  0.00  0.00    +0.000 NA
ATOM     29  C   UNL     1       5.923  -5.306  -2.204  0.00  0.00    +0.000 C 
ATOM     30  H   UNL     1       6.666  -5.605  -4.094  0.00  0.00    +0.000 HD
ENDBRANCH  23  24
ENDBRANCH  20  23
ENDBRANCH  16  17
ENDBRANCH   3  16
TORSDOF 5
