REMARK  Name = 
REMARK  6 active torsions:
REMARK  status: ('A' for Active; 'I' for Inactive)
REMARK    1  A    between atoms: C_2  and  C_3
REMARK    2  A    between atoms: C_6  and  O_7
REMARK    3  A    between atoms: O_7  and  C_8
REMARK    4  A    between atoms: C_11  and  C_12
REMARK    5  A    between atoms: C_12  and  N_13
REMARK    6  A    between atoms: C_14  and  C_16
REMARK                            x       y       z     vdW  Elec       q    Type
REMARK                         _______ _______ _______ _____ _____    ______ ____
ROOT
ATOM      1  C   UNL     1       4.402  -1.262   0.134  0.00  0.00    +0.000 A 
ATOM      2  C   UNL     1       4.465  -2.168  -0.929  0.00  0.00    +0.000 A 
ATOM      3  C   UNL     1       5.169  -3.366  -0.791  0.00  0.00    +0.000 A 
ATOM      4  C   UNL     1       5.884  -3.635   0.381  0.00  0.00    +0.000 A 
ATOM      5  C   UNL     1       5.872  -2.684   1.405  0.00  0.00    +0.000 A 
ATOM      6  F   UNL     1       6.575  -2.902   2.526  0.00  0.00    +0.000 F 
ATOM      7  C   UNL     1       5.140  -1.505   1.291  0.00  0.00    +0.000 A 
ENDROOT
BRANCH   1   8
ATOM      8  O   UNL     1       3.682  -0.087   0.108  0.00  0.00    +0.000 OA
BRANCH   8  12
ATOM      9  C   UNL     1       0.202   0.330  -2.166  0.00  0.00    +0.000 A 
ATOM     10  C   UNL     1       0.478  -0.909  -1.579  0.00  0.00    +0.000 A 
ATOM     11  C   UNL     1       1.617  -1.070  -0.784  0.00  0.00    +0.000 A 
ATOM     12  C   UNL     1       2.518  -0.013  -0.624  0.00  0.00    +0.000 A 
ATOM     13  C   UNL     1       2.225   1.233  -1.183  0.00  0.00    +0.000 A 
ATOM     14  C   UNL     1       1.072   1.407  -1.951  0.00  0.00    +0.000 A 
BRANCH   9  16
ATOM     15  N   UNL     1      -1.916   0.630  -3.631  0.00  0.00    +0.000 NA
ATOM     16  C   UNL     1      -0.969   0.498  -2.973  0.00  0.00    +0.000 C 
ENDBRANCH   9  16
ENDBRANCH   8  12
ENDBRANCH   1   8
BRANCH   4  17
ATOM     17  C   UNL     1       6.624  -4.931   0.535  0.00  0.00    +0.000 C 
BRANCH  17  18
ATOM     18  N   UNL     1       5.808  -5.939   1.166  0.00  0.00    +0.000 N 
ATOM     19  C   UNL     1       5.075  -6.857   0.459  0.00  0.00    +0.000 C 
ATOM     20  O   UNL     1       5.066  -6.884  -0.769  0.00  0.00    +0.000 OA
ATOM     21  H   UNL     1       5.637  -5.821   2.160  0.00  0.00    +0.000 HD
BRANCH  19  22
ATOM     22  C   UNL     1       4.350  -7.861   1.252  0.00  0.00    +0.000 A 
ATOM     23  C   UNL     1       4.007  -9.076   0.673  0.00  0.00    +0.000 A 
ATOM     24  S   UNL     1       3.225 -10.149   1.743  0.00  0.00    +0.000 S 
ATOM     25  C   UNL     1       3.273  -9.011   3.006  0.00  0.00    +0.000 A 
ATOM     26  N   UNL     1       2.741  -9.297   4.225  0.00  0.00    +0.000 NA
ATOM     27  C   UNL     1       2.815  -8.332   5.080  0.00  0.00    +0.000 A 
ATOM     28  N   UNL     1       3.378  -7.108   4.827  0.00  0.00    +0.000 N 
ATOM     29  C   UNL     1       3.966  -6.790   3.626  0.00  0.00    +0.000 A 
ATOM     30  O   UNL     1       4.525  -5.712   3.456  0.00  0.00    +0.000 OA
ATOM     31  C   UNL     1       3.891  -7.834   2.622  0.00  0.00    +0.000 A 
ATOM     32  H   UNL     1       3.418  -6.399   5.544  0.00  0.00    +0.000 HD
ENDBRANCH  19  22
ENDBRANCH  17  18
ENDBRANCH   4  17
TORSDOF 6
