REMARK  Name = 
REMARK  7 active torsions:
REMARK  status: ('A' for Active; 'I' for Inactive)
REMARK    1  A    between atoms: C_2  and  C_20
REMARK    2  A    between atoms: N_3  and  C_4
REMARK    3  A    between atoms: C_4  and  C_5
REMARK    4  A    between atoms: C_8  and  C_9
REMARK    5  A    between atoms: C_9  and  N_10
REMARK    6  A    between atoms: N_10  and  C_11
REMARK    7  A    between atoms: C_11  and  C_12
REMARK                            x       y       z     vdW  Elec       q    Type
REMARK                         _______ _______ _______ _____ _____    ______ ____
ROOT
ATOM      1  C   UNL     1       2.896  -2.154  -4.309  0.00  0.00    +0.000 C 
ENDROOT
BRANCH   1   2
ATOM      2  C   UNL     1       3.333  -2.377  -2.853  0.00  0.00    +0.000 C 
ATOM      3  C   UNL     1       3.230  -3.862  -2.460  0.00  0.00    +0.000 C 
ATOM      4  C   UNL     1       4.262  -4.709  -3.198  0.00  0.00    +0.000 C 
ATOM      5  C   UNL     1       5.691  -4.202  -2.944  0.00  0.00    +0.000 C 
ATOM      6  C   UNL     1       5.820  -2.725  -3.322  0.00  0.00    +0.000 C 
ATOM      7  C   UNL     1       4.764  -1.854  -2.645  0.00  0.00    +0.000 C 
BRANCH   5   8
ATOM      8  C   UNL     1       6.166  -4.441  -1.494  0.00  0.00    +0.000 C 
BRANCH   8   9
ATOM      9  N   UNL     1       6.142  -5.846  -1.097  0.00  0.00    +0.000 NA
ATOM     10  H   UNL     1       5.188  -6.203  -1.140  0.00  0.00    +0.000 HD
BRANCH   9  11
ATOM     11  C   UNL     1       6.998  -6.662  -1.956  0.00  0.00    +0.000 C 
BRANCH  11  12
ATOM     12  C   UNL     1       6.928  -8.110  -1.571  0.00  0.00    +0.000 A 
ATOM     13  C   UNL     1       6.534  -9.091  -2.482  0.00  0.00    +0.000 A 
ATOM     14  C   UNL     1       6.502 -10.410  -2.055  0.00  0.00    +0.000 A 
ATOM     15  N   UNL     1       6.824 -10.805  -0.807  0.00  0.00    +0.000 NA
ATOM     16  C   UNL     1       7.195  -9.836   0.057  0.00  0.00    +0.000 A 
ATOM     17  C   UNL     1       7.268  -8.495  -0.272  0.00  0.00    +0.000 A 
ENDBRANCH  11  12
ENDBRANCH   9  11
ENDBRANCH   8   9
ENDBRANCH   5   8
ENDBRANCH   1   2
BRANCH   1  20
ATOM     18  O   UNL     1       0.703  -0.476  -3.956  0.00  0.00    +0.000 OA
ATOM     19  C   UNL     1       0.513  -1.630  -4.360  0.00  0.00    +0.000 C 
ATOM     20  N   UNL     1       1.529  -2.525  -4.525  0.00  0.00    +0.000 N 
ATOM     21  H   UNL     1       1.382  -3.323  -5.133  0.00  0.00    +0.000 HD
BRANCH  19  22
ATOM     22  C   UNL     1      -0.824  -2.112  -4.668  0.00  0.00    +0.000 A 
ATOM     23  C   UNL     1      -1.948  -1.582  -4.048  0.00  0.00    +0.000 A 
ATOM     24  S   UNL     1      -3.400  -2.302  -4.583  0.00  0.00    +0.000 S 
ATOM     25  C   UNL     1      -2.567  -3.318  -5.663  0.00  0.00    +0.000 A 
ATOM     26  N   UNL     1      -3.223  -4.196  -6.465  0.00  0.00    +0.000 NA
ATOM     27  C   UNL     1      -2.456  -4.878  -7.252  0.00  0.00    +0.000 A 
ATOM     28  N   UNL     1      -1.092  -4.765  -7.314  0.00  0.00    +0.000 N 
ATOM     29  C   UNL     1      -0.385  -3.939  -6.486  0.00  0.00    +0.000 A 
ATOM     30  O   UNL     1       0.839  -3.962  -6.498  0.00  0.00    +0.000 OA
ATOM     31  C   UNL     1      -1.198  -3.126  -5.606  0.00  0.00    +0.000 A 
ATOM     32  H   UNL     1      -0.544  -5.350  -7.923  0.00  0.00    +0.000 HD
ENDBRANCH  19  22
ENDBRANCH   1  20
TORSDOF 7
