REMARK  Name = 
REMARK  3 active torsions:
REMARK  status: ('A' for Active; 'I' for Inactive)
REMARK    1  A    between atoms: C_2  and  C_4
REMARK    2  A    between atoms: C_7  and  C_8
REMARK    3  A    between atoms: C_8  and  C_9
REMARK                            x       y       z     vdW  Elec       q    Type
REMARK                         _______ _______ _______ _____ _____    ______ ____
ROOT
ATOM      1  C   UNL     1       3.003   0.830   0.819  0.00  0.00    +0.000 A 
ATOM      2  C   UNL     1       2.407   1.680   1.717  0.00  0.00    +0.000 A 
ATOM      3  N   UNL     1       3.045   2.202   2.780  0.00  0.00    +0.000 NA
ATOM      4  C   UNL     1       4.331   1.833   2.985  0.00  0.00    +0.000 A 
ATOM      5  N   UNL     1       4.991   0.987   2.160  0.00  0.00    +0.000 NA
ATOM      6  C   UNL     1       4.307   0.496   1.100  0.00  0.00    +0.000 A 
ENDROOT
BRANCH   1   8
ATOM      7  N   UNL     1       1.291   1.031  -0.879  0.00  0.00    +0.000 N 
ATOM      8  C   UNL     1       2.317   0.294  -0.361  0.00  0.00    +0.000 C 
ATOM      9  O   UNL     1       2.676  -0.756  -0.881  0.00  0.00    +0.000 OA
ATOM     10  H   UNL     1       0.892   0.698  -1.751  0.00  0.00    +0.000 HD
ATOM     11  H   UNL     1       1.125   1.999  -0.642  0.00  0.00    +0.000 HD
ENDBRANCH   1   8
BRANCH   4  12
ATOM     12  C   UNL     1       5.020   2.327   4.257  0.00  0.00    +0.000 C 
ATOM     13  C   UNL     1       5.023   3.832   4.513  0.00  0.00    +0.000 C 
ATOM     14  C   UNL     1       6.298   3.150   4.134  0.00  0.00    +0.000 C 
BRANCH  12  15
ATOM     15  C   UNL     1       4.836   1.385   5.439  0.00  0.00    +0.000 A 
ATOM     16  C   UNL     1       5.789   0.400   5.756  0.00  0.00    +0.000 A 
ATOM     17  C   UNL     1       5.532  -0.574   6.727  0.00  0.00    +0.000 A 
ATOM     18  C   UNL     1       4.313  -0.585   7.403  0.00  0.00    +0.000 A 
ATOM     19  C   UNL     1       3.367   0.398   7.132  0.00  0.00    +0.000 A 
ATOM     20  C   UNL     1       3.636   1.368   6.169  0.00  0.00    +0.000 A 
ATOM     21  F   UNL     1       2.691   2.286   5.915  0.00  0.00    +0.000 F 
ENDBRANCH  12  15
ENDBRANCH   4  12
TORSDOF 3
