REMARK  Name = 
REMARK  6 active torsions:
REMARK  status: ('A' for Active; 'I' for Inactive)
REMARK    1  A    between atoms: C_1  and  C_2
REMARK    2  A    between atoms: C_4  and  C_5
REMARK    3  A    between atoms: C_10  and  N_11
REMARK    4  A    between atoms: N_11  and  C_12
REMARK    5  A    between atoms: C_12  and  C_13
REMARK    6  A    between atoms: C_17  and  C_18
REMARK                            x       y       z     vdW  Elec       q    Type
REMARK                         _______ _______ _______ _____ _____    ______ ____
ROOT
ATOM      1  C   UNL     1       2.256  -2.589   0.054  0.00  0.00    +0.000 C 
ENDROOT
BRANCH   1   2
ATOM      2  C   UNL     1       2.672  -4.058   0.110  0.00  0.00    +0.000 A 
ATOM      3  N   UNL     1       2.855  -4.613   1.324  0.00  0.00    +0.000 NA
ATOM      4  C   UNL     1       3.230  -5.901   1.347  0.00  0.00    +0.000 A 
ATOM      5  C   UNL     1       3.440  -6.652   0.216  0.00  0.00    +0.000 A 
ATOM      6  C   UNL     1       3.238  -6.018  -0.997  0.00  0.00    +0.000 A 
ATOM      7  N   UNL     1       2.832  -4.726  -1.059  0.00  0.00    +0.000 NA
BRANCH   6   8
ATOM      8  C   UNL     1       3.443  -6.702  -2.296  0.00  0.00    +0.000 A 
ATOM      9  C   UNL     1       2.711  -6.325  -3.438  0.00  0.00    +0.000 A 
ATOM     10  C   UNL     1       2.873  -6.980  -4.666  0.00  0.00    +0.000 A 
ATOM     11  C   UNL     1       3.784  -8.030  -4.787  0.00  0.00    +0.000 A 
ATOM     12 CL   UNL     1       3.928  -8.802  -6.325  0.00  0.00    +0.000 Cl
ATOM     13  C   UNL     1       4.536  -8.417  -3.677  0.00  0.00    +0.000 A 
ATOM     14 CL   UNL     1       5.686  -9.706  -3.742  0.00  0.00    +0.000 Cl
ATOM     15  C   UNL     1       4.368  -7.756  -2.451  0.00  0.00    +0.000 A 
ENDBRANCH   6   8
ENDBRANCH   1   2
BRANCH   1  16
ATOM     16  N   UNL     1       0.802  -2.416   0.204  0.00  0.00    +0.000 N 
ATOM     17  H   UNL     1       0.290  -3.065  -0.383  0.00  0.00    +0.000 HD
BRANCH  16  24
ATOM     18  C   UNL     1      -2.065  -1.909   0.064  0.00  0.00    +0.000 C 
ATOM     19  C   UNL     1      -1.026  -0.825   0.022  0.00  0.00    +0.000 A 
ATOM     20  C   UNL     1      -1.451   0.515  -0.040  0.00  0.00    +0.000 A 
ATOM     21  C   UNL     1      -0.523   1.552  -0.075  0.00  0.00    +0.000 A 
ATOM     22  C   UNL     1       0.811   1.188  -0.064  0.00  0.00    +0.000 A 
ATOM     23  N   UNL     1       1.257  -0.096  -0.007  0.00  0.00    +0.000 NA
ATOM     24  C   UNL     1       0.350  -1.099   0.038  0.00  0.00    +0.000 A 
BRANCH  21  25
ATOM     25  C   UNL     1      -1.008   2.954  -0.111  0.00  0.00    +0.000 C 
ATOM     26  N   UNL     1      -0.102   3.977  -0.127  0.00  0.00    +0.000 N 
ATOM     27  O   UNL     1      -2.208   3.207  -0.121  0.00  0.00    +0.000 OA
ATOM     28  H   UNL     1       0.901   3.886  -0.107  0.00  0.00    +0.000 HD
ATOM     29  H   UNL     1      -0.484   4.916  -0.133  0.00  0.00    +0.000 HD
ENDBRANCH  21  25
ENDBRANCH  16  24
ENDBRANCH   1  16
TORSDOF 5
