REMARK  Name = 
REMARK  6 active torsions:
REMARK  status: ('A' for Active; 'I' for Inactive)
REMARK    1  A    between atoms: C_1  and  C_2
REMARK    2  A    between atoms: C_2  and  C_3
REMARK    3  A    between atoms: C_2  and  C_14
REMARK    4  A    between atoms: C_3  and  N_4
REMARK    5  A    between atoms: N_4  and  C_5
REMARK    6  A    between atoms: C_8  and  C_9
REMARK                            x       y       z     vdW  Elec       q    Type
REMARK                         _______ _______ _______ _____ _____    ______ ____
ROOT
ATOM      1  N   UNL     1       4.392   0.993  -1.231  0.00  0.00    +0.000 N 
ATOM      2  H   UNL     1       4.863   0.158  -0.894  0.00  0.00    +0.000 HD
ENDROOT
BRANCH   1   3
ATOM      3  C   UNL     1       4.987   1.465  -2.419  0.00  0.00    +0.000 A 
ATOM      4  C   UNL     1       4.323   2.315  -3.313  0.00  0.00    +0.000 A 
ATOM      5  C   UNL     1       4.944   2.786  -4.473  0.00  0.00    +0.000 A 
ATOM      6  C   UNL     1       6.272   2.460  -4.742  0.00  0.00    +0.000 A 
ATOM      7  C   UNL     1       6.977   1.667  -3.831  0.00  0.00    +0.000 A 
ATOM      8  C   UNL     1       6.340   1.192  -2.672  0.00  0.00    +0.000 A 
BRANCH   6   9
ATOM      9  C   UNL     1       6.864   2.973  -6.005  0.00  0.00    +0.000 C 
ATOM     10  N   UNL     1       8.220   3.126  -6.055  0.00  0.00    +0.000 N 
ATOM     11  O   UNL     1       6.165   3.292  -6.960  0.00  0.00    +0.000 OA
ATOM     12  H   UNL     1       8.793   3.131  -5.224  0.00  0.00    +0.000 HD
ATOM     13  H   UNL     1       8.576   3.601  -6.875  0.00  0.00    +0.000 HD
ENDBRANCH   6   9
ENDBRANCH   1   3
BRANCH   1  14
ATOM     14  C   UNL     1       2.947   0.815  -1.269  0.00  0.00    +0.000 C 
BRANCH  14  16
ATOM     15  C   UNL     1       0.945  -0.034  -0.016  0.00  0.00    +0.000 C 
ATOM     16  C   UNL     1       2.409   0.320   0.044  0.00  0.00    +0.000 C 
BRANCH  16  17
ATOM     17  C   UNL     1       2.985   0.819   1.358  0.00  0.00    +0.000 C 
ATOM     18  C   UNL     1       2.741  -0.157   2.521  0.00  0.00    +0.000 C 
ATOM     19  C   UNL     1       3.268   0.417   3.828  0.00  0.00    +0.000 C 
ATOM     20  O   UNL     1       2.671   1.686   4.091  0.00  0.00    +0.000 OA
ATOM     21  C   UNL     1       2.994   2.649   3.088  0.00  0.00    +0.000 C 
ATOM     22  C   UNL     1       2.462   2.216   1.727  0.00  0.00    +0.000 C 
ENDBRANCH  16  17
ENDBRANCH  14  16
ENDBRANCH   1  14
TORSDOF 5
