REMARK  Name = 
REMARK  6 active torsions:
REMARK  status: ('A' for Active; 'I' for Inactive)
REMARK    1  A    between atoms: C_2  and  C_4
REMARK    2  A    between atoms: C_7  and  O_8
REMARK    3  A    between atoms: O_8  and  C_9
REMARK    4  A    between atoms: C_9  and  C_10
REMARK    5  A    between atoms: C_10  and  C_13
REMARK    6  A    between atoms: C_17  and  C_18
REMARK                            x       y       z     vdW  Elec       q    Type
REMARK                         _______ _______ _______ _____ _____    ______ ____
ROOT
ATOM      1  C   UNL     1       6.132   4.425   5.453  0.00  0.00    +0.000 C 
ATOM      2  F   UNL     1       7.365   3.844   5.353  0.00  0.00    +0.000 F 
ATOM      3  F   UNL     1       6.250   5.640   4.843  0.00  0.00    +0.000 F 
ENDROOT
BRANCH   1   4
ATOM      4  C   UNL     1       5.687   4.550   6.901  0.00  0.00    +0.000 A 
ATOM      5  C   UNL     1       4.922   5.644   7.324  0.00  0.00    +0.000 A 
ATOM      6  C   UNL     1       4.445   5.701   8.631  0.00  0.00    +0.000 A 
ATOM      7  C   UNL     1       4.714   4.657   9.520  0.00  0.00    +0.000 A 
ATOM      8  C   UNL     1       5.473   3.538   9.135  0.00  0.00    +0.000 A 
ATOM      9  C   UNL     1       5.965   3.516   7.816  0.00  0.00    +0.000 A 
BRANCH   8  10
ATOM     10  C   UNL     1       5.680   2.407  10.063  0.00  0.00    +0.000 A 
ATOM     11  C   UNL     1       6.823   1.606  10.048  0.00  0.00    +0.000 A 
ATOM     12  C   UNL     1       6.905   0.515  10.911  0.00  0.00    +0.000 A 
ATOM     13  C   UNL     1       5.850   0.248  11.773  0.00  0.00    +0.000 A 
ATOM     14  C   UNL     1       4.758   1.094  11.743  0.00  0.00    +0.000 A 
ATOM     15  N   UNL     1       4.654   2.159  10.919  0.00  0.00    +0.000 NA
ENDBRANCH   8  10
ENDBRANCH   1   4
BRANCH   1  16
ATOM     16  C   UNL     1       5.115   3.572   4.682  0.00  0.00    +0.000 C 
BRANCH  16  17
ATOM     17  O   UNL     1       5.479   3.432   3.297  0.00  0.00    +0.000 OA
BRANCH  17  21
ATOM     18  C   UNL     1       2.751   1.188   1.175  0.00  0.00    +0.000 A 
ATOM     19  C   UNL     1       3.866   1.715   0.522  0.00  0.00    +0.000 A 
ATOM     20  C   UNL     1       4.786   2.476   1.250  0.00  0.00    +0.000 A 
ATOM     21  C   UNL     1       4.555   2.678   2.602  0.00  0.00    +0.000 A 
ATOM     22  N   UNL     1       3.481   2.182   3.255  0.00  0.00    +0.000 NA
ATOM     23  C   UNL     1       2.598   1.459   2.527  0.00  0.00    +0.000 A 
BRANCH  18  25
ATOM     24  N   UNL     1       2.088  -0.330  -0.603  0.00  0.00    +0.000 N 
ATOM     25  C   UNL     1       1.714   0.379   0.503  0.00  0.00    +0.000 C 
ATOM     26  O   UNL     1       0.574   0.310   0.942  0.00  0.00    +0.000 OA
ATOM     27  H   UNL     1       1.395  -0.967  -0.977  0.00  0.00    +0.000 HD
ATOM     28  H   UNL     1       3.055  -0.508  -0.835  0.00  0.00    +0.000 HD
ENDBRANCH  18  25
ENDBRANCH  17  21
ENDBRANCH  16  17
ENDBRANCH   1  16
TORSDOF 6
