REMARK  Name = 
REMARK  5 active torsions:
REMARK  status: ('A' for Active; 'I' for Inactive)
REMARK    1  A    between atoms: N_1  and  C_2
REMARK    2  A    between atoms: C_2  and  C_3
REMARK    3  A    between atoms: C_6  and  C_7
REMARK    4  A    between atoms: C_7  and  N_8
REMARK    5  A    between atoms: C_13  and  C_14
REMARK                            x       y       z     vdW  Elec       q    Type
REMARK                         _______ _______ _______ _____ _____    ______ ____
ROOT
ATOM      1  N   UNL     1      -0.276   3.480   3.580  0.00  0.00    +0.000 N 
ATOM      2  C   UNL     1      -0.094   4.287   4.682  0.00  0.00    +0.000 A 
ATOM      3  C   UNL     1      -0.926   3.833   5.682  0.00  0.00    +0.000 A 
ATOM      4  C   UNL     1      -1.726   2.807   5.135  0.00  0.00    +0.000 A 
ATOM      5  C   UNL     1      -2.779   2.018   5.625  0.00  0.00    +0.000 A 
ATOM      6  C   UNL     1      -3.396   1.127   4.748  0.00  0.00    +0.000 A 
ATOM      7  C   UNL     1      -2.897   1.032   3.447  0.00  0.00    +0.000 A 
ATOM      8  N   UNL     1      -1.853   1.740   2.930  0.00  0.00    +0.000 NA
ATOM      9  C   UNL     1      -1.320   2.615   3.813  0.00  0.00    +0.000 A 
ENDROOT
BRANCH   6  10
ATOM     10  C   UNL     1      -4.571   0.307   5.138  0.00  0.00    +0.000 C 
ATOM     11  N   UNL     1      -5.065   0.439   6.410  0.00  0.00    +0.000 N 
ATOM     12  O   UNL     1      -5.101  -0.463   4.346  0.00  0.00    +0.000 OA
ATOM     13  H   UNL     1      -4.715   1.068   7.114  0.00  0.00    +0.000 HD
ATOM     14  H   UNL     1      -5.886  -0.106   6.644  0.00  0.00    +0.000 HD
ENDBRANCH   6  10
BRANCH   1  15
ATOM     15  C   UNL     1       0.531   3.550   2.367  0.00  0.00    +0.000 C 
BRANCH  15  19
ATOM     16  C   UNL     1       3.001   0.979   0.936  0.00  0.00    +0.000 C 
ATOM     17  C   UNL     1       2.142   0.787   2.199  0.00  0.00    +0.000 C 
ATOM     18  C   UNL     1       2.333   1.917   3.209  0.00  0.00    +0.000 C 
ATOM     19  C   UNL     1       2.042   3.303   2.610  0.00  0.00    +0.000 C 
ATOM     20  C   UNL     1       2.872   3.507   1.328  0.00  0.00    +0.000 C 
ATOM     21  C   UNL     1       2.725   2.363   0.323  0.00  0.00    +0.000 C 
BRANCH  16  22
ATOM     22  C   UNL     1       4.507   0.771   1.207  0.00  0.00    +0.000 C 
BRANCH  22  23
ATOM     23  N   UNL     1       4.780  -0.577   1.696  0.00  0.00    +0.000 NA
ATOM     24  H   UNL     1       5.778  -0.689   1.863  0.00  0.00    +0.000 HD
ATOM     25  H   UNL     1       4.523  -1.260   0.984  0.00  0.00    +0.000 HD
ENDBRANCH  22  23
ENDBRANCH  16  22
ENDBRANCH  15  19
ENDBRANCH   1  15
TORSDOF 5
