REMARK  Name = 
REMARK  6 active torsions:
REMARK  status: ('A' for Active; 'I' for Inactive)
REMARK    1  A    between atoms: N_1  and  C_2
REMARK    2  A    between atoms: C_2  and  C_3
REMARK    3  A    between atoms: C_2  and  C_18
REMARK    4  A    between atoms: C_3  and  C_4
REMARK    5  A    between atoms: C_7  and  C_8
REMARK    6  A    between atoms: N_10  and  C_11
REMARK                            x       y       z     vdW  Elec       q    Type
REMARK                         _______ _______ _______ _____ _____    ______ ____
ROOT
ATOM      1  C   UNL     1       2.857  -1.362  -0.594  0.00  0.00    +0.000 C 
ENDROOT
BRANCH   1   2
ATOM      2  C   UNL     1       2.493  -2.646   0.114  0.00  0.00    +0.000 A 
ATOM      3  C   UNL     1       2.838  -3.891  -0.417  0.00  0.00    +0.000 A 
ATOM      4  C   UNL     1       2.507  -5.052   0.275  0.00  0.00    +0.000 A 
ATOM      5  C   UNL     1       1.825  -4.930   1.479  0.00  0.00    +0.000 A 
ATOM      6  N   UNL     1       1.461  -3.737   2.024  0.00  0.00    +0.000 NA
ATOM      7  C   UNL     1       1.807  -2.629   1.329  0.00  0.00    +0.000 A 
BRANCH   5   8
ATOM      8  C   UNL     1       1.476  -6.165   2.252  0.00  0.00    +0.000 C 
ATOM      9  O   UNL     1       1.768  -7.279   1.835  0.00  0.00    +0.000 OA
ATOM     10  N   UNL     1       0.826  -5.944   3.445  0.00  0.00    +0.000 N 
ATOM     11  H   UNL     1       0.553  -4.997   3.681  0.00  0.00    +0.000 HD
BRANCH  10  12
ATOM     12  C   UNL     1       0.406  -7.011   4.276  0.00  0.00    +0.000 C 
ATOM     13  C   UNL     1      -0.953  -7.584   3.924  0.00  0.00    +0.000 C 
ATOM     14  C   UNL     1      -1.364  -8.233   5.235  0.00  0.00    +0.000 C 
ATOM     15  C   UNL     1      -0.661  -7.402   6.305  0.00  0.00    +0.000 C 
ATOM     16  N   UNL     1       0.177  -6.436   5.587  0.00  0.00    +0.000 NA
ATOM     17  H   UNL     1       1.069  -6.311   6.060  0.00  0.00    +0.000 HD
ENDBRANCH  10  12
ENDBRANCH   5   8
ENDBRANCH   1   2
BRANCH   1  18
ATOM     18  C   UNL     1       4.246  -0.771  -0.256  0.00  0.00    +0.000 C 
BRANCH  18  19
ATOM     19  C   UNL     1       4.402  -0.336   1.187  0.00  0.00    +0.000 A 
ATOM     20  C   UNL     1       4.925  -1.098   2.222  0.00  0.00    +0.000 A 
ATOM     21  S   UNL     1       5.028  -0.255   3.705  0.00  0.00    +0.000 S 
ATOM     22  C   UNL     1       4.373   1.156   3.015  0.00  0.00    +0.000 A 
ATOM     23  N   UNL     1       4.226   2.298   3.739  0.00  0.00    +0.000 NA
ATOM     24  C   UNL     1       3.733   3.289   3.072  0.00  0.00    +0.000 A 
ATOM     25  N   UNL     1       3.347   3.235   1.756  0.00  0.00    +0.000 N 
ATOM     26  C   UNL     1       3.418   2.086   1.002  0.00  0.00    +0.000 A 
ATOM     27  O   UNL     1       2.959   2.027  -0.134  0.00  0.00    +0.000 OA
ATOM     28  C   UNL     1       4.038   0.969   1.689  0.00  0.00    +0.000 A 
ATOM     29  H   UNL     1       2.929   4.037   1.308  0.00  0.00    +0.000 HD
ENDBRANCH  18  19
BRANCH  18  30
ATOM     30  N   UNL     1       5.362  -1.658  -0.609  0.00  0.00    +0.000 NA
ATOM     31  H   UNL     1       5.335  -1.850  -1.608  0.00  0.00    +0.000 HD
ATOM     32  H   UNL     1       5.240  -2.556  -0.145  0.00  0.00    +0.000 HD
ENDBRANCH  18  30
ENDBRANCH   1  18
TORSDOF 6
