REMARK  Name = 
REMARK  8 active torsions:
REMARK  status: ('A' for Active; 'I' for Inactive)
REMARK    1  A    between atoms: C_1  and  C_2
REMARK    2  A    between atoms: C_2  and  N_3
REMARK    3  A    between atoms: C_2  and  C_17
REMARK    4  A    between atoms: C_4  and  C_6
REMARK    5  A    between atoms: N_12  and  C_13
REMARK    6  A    between atoms: C_20  and  C_21
REMARK    7  A    between atoms: C_21  and  O_22
REMARK    8  A    between atoms: O_22  and  C_23
REMARK                            x       y       z     vdW  Elec       q    Type
REMARK                         _______ _______ _______ _____ _____    ______ ____
ROOT
ATOM      1  C   UNL     1       1.000   0.092  -0.090  0.00  0.00    +0.000 C 
ATOM      2  C   UNL     1       2.527   0.038  -0.044  0.00  0.00    +0.000 C 
ENDROOT
BRANCH   2   3
ATOM      3  C   UNL     1       3.078  -1.016  -0.998  0.00  0.00    +0.000 A 
ATOM      4  C   UNL     1       3.950  -0.641  -2.029  0.00  0.00    +0.000 A 
ATOM      5  C   UNL     1       4.520  -1.602  -2.872  0.00  0.00    +0.000 A 
ATOM      6  C   UNL     1       4.234  -2.964  -2.703  0.00  0.00    +0.000 A 
ATOM      7  C   UNL     1       3.364  -3.344  -1.674  0.00  0.00    +0.000 A 
ATOM      8  C   UNL     1       2.787  -2.382  -0.839  0.00  0.00    +0.000 A 
BRANCH   6   9
ATOM      9  C   UNL     1       4.891  -4.007  -3.580  0.00  0.00    +0.000 C 
BRANCH   9  10
ATOM     10  O   UNL     1       6.101  -4.417  -2.955  0.00  0.00    +0.000 OA
BRANCH  10  11
ATOM     11  C   UNL     1       6.847  -5.274  -3.738  0.00  0.00    +0.000 A 
ATOM     12  N   UNL     1       6.333  -5.754  -4.884  0.00  0.00    +0.000 NA
ATOM     13  C   UNL     1       7.140  -6.567  -5.594  0.00  0.00    +0.000 A 
ATOM     14  C   UNL     1       8.413  -6.907  -5.203  0.00  0.00    +0.000 A 
ATOM     15  C   UNL     1       8.828  -6.369  -4.009  0.00  0.00    +0.000 A 
ATOM     16  N   UNL     1       8.065  -5.555  -3.256  0.00  0.00    +0.000 NA
ENDBRANCH  10  11
ENDBRANCH   9  10
ENDBRANCH   6   9
ENDBRANCH   2   3
BRANCH   2  17
ATOM     17  N   UNL     1       2.987  -0.235   1.305  0.00  0.00    +0.000 N 
ATOM     18  C   UNL     1       3.249   0.728   2.243  0.00  0.00    +0.000 C 
ATOM     19  O   UNL     1       3.012   1.917   2.059  0.00  0.00    +0.000 OA
ATOM     20  H   UNL     1       3.342  -1.170   1.465  0.00  0.00    +0.000 HD
BRANCH  18  21
ATOM     21  C   UNL     1       3.779   0.231   3.523  0.00  0.00    +0.000 A 
ATOM     22  C   UNL     1       3.569   0.941   4.695  0.00  0.00    +0.000 A 
ATOM     23  S   UNL     1       4.193   0.162   6.082  0.00  0.00    +0.000 S 
ATOM     24  C   UNL     1       4.807  -1.127   5.154  0.00  0.00    +0.000 A 
ATOM     25  N   UNL     1       5.465  -2.164   5.735  0.00  0.00    +0.000 NA
ATOM     26  C   UNL     1       5.893  -3.061   4.905  0.00  0.00    +0.000 A 
ATOM     27  N   UNL     1       5.738  -3.025   3.536  0.00  0.00    +0.000 N 
ATOM     28  C   UNL     1       6.246  -4.087   2.692  0.00  0.00    +0.000 C 
ATOM     29  C   UNL     1       5.062  -1.984   2.914  0.00  0.00    +0.000 A 
ATOM     30  O   UNL     1       4.879  -1.949   1.704  0.00  0.00    +0.000 OA
ATOM     31  C   UNL     1       4.547  -0.963   3.809  0.00  0.00    +0.000 A 
ENDBRANCH  18  21
ENDBRANCH   2  17
TORSDOF 6
