REMARK  Name = 
REMARK  7 active torsions:
REMARK  status: ('A' for Active; 'I' for Inactive)
REMARK    1  A    between atoms: C_1  and  C_2
REMARK    2  A    between atoms: C_2  and  N_3
REMARK    3  A    between atoms: C_2  and  C_17
REMARK    4  A    between atoms: C_4  and  C_6
REMARK    5  A    between atoms: N_12  and  C_13
REMARK    6  A    between atoms: C_20  and  O_21
REMARK    7  A    between atoms: O_21  and  C_22
REMARK                            x       y       z     vdW  Elec       q    Type
REMARK                         _______ _______ _______ _____ _____    ______ ____
ROOT
ATOM      1  C   UNL     1       3.079   1.446  -0.017  0.00  0.00    +0.000 C 
ATOM      2  C   UNL     1       2.583  -0.001   0.008  0.00  0.00    +0.000 C 
ENDROOT
BRANCH   2   3
ATOM      3  C   UNL     1       3.010  -0.791   1.236  0.00  0.00    +0.000 A 
ATOM      4  C   UNL     1       3.196  -2.177   1.110  0.00  0.00    +0.000 A 
ATOM      5  C   UNL     1       3.513  -2.965   2.219  0.00  0.00    +0.000 A 
ATOM      6  C   UNL     1       3.683  -2.379   3.473  0.00  0.00    +0.000 A 
ATOM      7  C   UNL     1       3.465  -1.009   3.622  0.00  0.00    +0.000 A 
ATOM      8  C   UNL     1       3.126  -0.222   2.514  0.00  0.00    +0.000 A 
BRANCH   6   9
ATOM      9  O   UNL     1       3.966  -3.086   4.620  0.00  0.00    +0.000 OA
BRANCH   9  10
ATOM     10  C   UNL     1       4.824  -4.176   4.533  0.00  0.00    +0.000 A 
ATOM     11  C   UNL     1       4.684  -5.155   5.507  0.00  0.00    +0.000 A 
ATOM     12  C   UNL     1       5.515  -6.271   5.444  0.00  0.00    +0.000 A 
ATOM     13  C   UNL     1       6.454  -6.366   4.422  0.00  0.00    +0.000 A 
ATOM     14  C   UNL     1       6.539  -5.326   3.512  0.00  0.00    +0.000 A 
ATOM     15  N   UNL     1       5.757  -4.228   3.555  0.00  0.00    +0.000 NA
ENDBRANCH   9  10
ENDBRANCH   6   9
ENDBRANCH   2   3
BRANCH   2  16
ATOM     16  N   UNL     1       1.136  -0.045  -0.090  0.00  0.00    +0.000 N 
ATOM     17  C   UNL     1       0.454   0.080  -1.270  0.00  0.00    +0.000 C 
ATOM     18  O   UNL     1       1.019   0.301  -2.336  0.00  0.00    +0.000 OA
ATOM     19  H   UNL     1       0.645  -0.366   0.738  0.00  0.00    +0.000 HD
BRANCH  17  20
ATOM     20  C   UNL     1      -1.009  -0.023  -1.185  0.00  0.00    +0.000 A 
ATOM     21  C   UNL     1      -1.800   0.561  -2.165  0.00  0.00    +0.000 A 
ATOM     22  S   UNL     1      -3.473   0.354  -1.905  0.00  0.00    +0.000 S 
ATOM     23  C   UNL     1      -3.198  -0.558  -0.495  0.00  0.00    +0.000 A 
ATOM     24  N   UNL     1      -4.234  -1.080   0.210  0.00  0.00    +0.000 NA
ATOM     25  C   UNL     1      -3.882  -1.777   1.244  0.00  0.00    +0.000 A 
ATOM     26  N   UNL     1      -2.584  -1.996   1.655  0.00  0.00    +0.000 N 
ATOM     27  C   UNL     1      -2.299  -2.778   2.840  0.00  0.00    +0.000 C 
ATOM     28  C   UNL     1      -1.504  -1.440   0.979  0.00  0.00    +0.000 A 
ATOM     29  O   UNL     1      -0.348  -1.558   1.375  0.00  0.00    +0.000 OA
ATOM     30  C   UNL     1      -1.851  -0.678  -0.209  0.00  0.00    +0.000 A 
ENDBRANCH  17  20
ENDBRANCH   2  16
TORSDOF 5
