REMARK  Name = 
REMARK  10 active torsions:
REMARK  status: ('A' for Active; 'I' for Inactive)
REMARK    1  A    between atoms: N_1  and  C_2
REMARK    2  A    between atoms: C_2  and  C_3
REMARK    3  A    between atoms: C_3  and  N_4
REMARK    4  A    between atoms: C_3  and  C_20
REMARK    5  A    between atoms: N_4  and  C_5
REMARK    6  A    between atoms: C_5  and  C_6
REMARK    7  A    between atoms: C_9  and  C_10
REMARK    8  A    between atoms: C_10  and  C_11
REMARK    9  A    between atoms: C_11  and  N_12
REMARK   10  A    between atoms: N_12  and  C_13
REMARK                            x       y       z     vdW  Elec       q    Type
REMARK                         _______ _______ _______ _____ _____    ______ ____
ROOT
ATOM      1  N   UNL     1       4.169   0.901   0.165  0.00  0.00    +0.000 NA
ATOM      2  H   UNL     1       4.791   1.698   0.018  0.00  0.00    +0.000 HD
ENDROOT
BRANCH   1   3
ATOM      3  C   UNL     1       4.578   0.230   1.411  0.00  0.00    +0.000 C 
BRANCH   3   4
ATOM      4  C   UNL     1       6.038  -0.165   1.198  0.00  0.00    +0.000 A 
ATOM      5  C   UNL     1       6.487  -1.420   0.812  0.00  0.00    +0.000 A 
ATOM      6  S   UNL     1       8.185  -1.525   0.657  0.00  0.00    +0.000 S 
ATOM      7  C   UNL     1       8.381   0.120   1.038  0.00  0.00    +0.000 A 
ATOM      8  N   UNL     1       9.613   0.704   1.040  0.00  0.00    +0.000 NA
ATOM      9  C   UNL     1       9.601   1.965   1.314  0.00  0.00    +0.000 A 
ATOM     10  N   UNL     1       8.475   2.691   1.609  0.00  0.00    +0.000 N 
ATOM     11  C   UNL     1       7.212   2.147   1.628  0.00  0.00    +0.000 A 
ATOM     12  O   UNL     1       6.218   2.828   1.877  0.00  0.00    +0.000 OA
ATOM     13  C   UNL     1       7.173   0.731   1.312  0.00  0.00    +0.000 A 
ATOM     14  H   UNL     1       8.537   3.680   1.807  0.00  0.00    +0.000 HD
ENDBRANCH   3   4
BRANCH   3  15
ATOM     15  C   UNL     1       3.636  -0.973   1.763  0.00  0.00    +0.000 C 
BRANCH  15  16
ATOM     16  N   UNL     1       3.923  -1.662   3.026  0.00  0.00    +0.000 NA
ATOM     17  H   UNL     1       3.296  -2.463   3.105  0.00  0.00    +0.000 HD
ATOM     18  H   UNL     1       3.683  -1.047   3.803  0.00  0.00    +0.000 HD
ENDBRANCH  15  16
ENDBRANCH   3  15
ENDBRANCH   1   3
BRANCH   1  19
ATOM     19  C   UNL     1       2.804   1.423   0.210  0.00  0.00    +0.000 C 
BRANCH  19  20
ATOM     20  C   UNL     1       2.447   2.105  -1.084  0.00  0.00    +0.000 A 
ATOM     21  C   UNL     1       2.467   1.373  -2.274  0.00  0.00    +0.000 A 
ATOM     22  C   UNL     1       2.122   1.976  -3.478  0.00  0.00    +0.000 A 
ATOM     23  C   UNL     1       1.717   3.319  -3.524  0.00  0.00    +0.000 A 
ATOM     24  C   UNL     1       1.701   4.051  -2.329  0.00  0.00    +0.000 A 
ATOM     25  C   UNL     1       2.061   3.448  -1.119  0.00  0.00    +0.000 A 
BRANCH  23  26
ATOM     26  C   UNL     1       1.333   3.993  -4.829  0.00  0.00    +0.000 C 
BRANCH  26  27
ATOM     27  C   UNL     1       0.683   3.015  -5.817  0.00  0.00    +0.000 C 
BRANCH  27  28
ATOM     28  N   UNL     1       0.216   3.635  -7.061  0.00  0.00    +0.000 NA
ATOM     29  H   UNL     1       1.012   4.047  -7.549  0.00  0.00    +0.000 HD
BRANCH  28  30
ATOM     30  C   UNL     1      -0.404   2.605  -7.920  0.00  0.00    +0.000 C 
ATOM     31  C   UNL     1      -0.807   3.163  -9.281  0.00  0.00    +0.000 C 
ATOM     32  C   UNL     1      -2.290   3.429  -9.135  0.00  0.00    +0.000 C 
ATOM     33  N   UNL     1      -2.774   2.275  -8.366  0.00  0.00    +0.000 NA
ATOM     34  C   UNL     1      -1.736   2.064  -7.345  0.00  0.00    +0.000 C 
ATOM     35  H   UNL     1      -2.800   1.460  -8.977  0.00  0.00    +0.000 HD
ENDBRANCH  28  30
ENDBRANCH  27  28
ENDBRANCH  26  27
ENDBRANCH  23  26
ENDBRANCH  19  20
ENDBRANCH   1  19
TORSDOF 10
