REMARK  Name = 
REMARK  7 active torsions:
REMARK  status: ('A' for Active; 'I' for Inactive)
REMARK    1  A    between atoms: C_2  and  C_20
REMARK    2  A    between atoms: N_3  and  C_4
REMARK    3  A    between atoms: C_4  and  C_5
REMARK    4  A    between atoms: C_8  and  C_9
REMARK    5  A    between atoms: C_9  and  N_10
REMARK    6  A    between atoms: N_10  and  C_11
REMARK    7  A    between atoms: C_11  and  C_12
REMARK                            x       y       z     vdW  Elec       q    Type
REMARK                         _______ _______ _______ _____ _____    ______ ____
ROOT
ATOM      1  C   UNL     1       4.629   2.686   1.948  0.00  0.00    +0.000 C 
ENDROOT
BRANCH   1   2
ATOM      2  C   UNL     1       3.254   2.634   2.648  0.00  0.00    +0.000 C 
ATOM      3  C   UNL     1       3.310   2.019   4.056  0.00  0.00    +0.000 C 
ATOM      4  C   UNL     1       4.100   2.881   5.042  0.00  0.00    +0.000 C 
ATOM      5  C   UNL     1       3.595   4.335   5.088  0.00  0.00    +0.000 C 
ATOM      6  C   UNL     1       3.451   4.939   3.677  0.00  0.00    +0.000 C 
ATOM      7  C   UNL     1       2.643   4.037   2.750  0.00  0.00    +0.000 C 
BRANCH   5   8
ATOM      8  C   UNL     1       4.521   5.201   5.967  0.00  0.00    +0.000 C 
BRANCH   8   9
ATOM      9  N   UNL     1       4.003   6.565   6.029  0.00  0.00    +0.000 NA
ATOM     10  H   UNL     1       3.069   6.567   6.435  0.00  0.00    +0.000 HD
BRANCH   9  11
ATOM     11  C   UNL     1       4.865   7.463   6.787  0.00  0.00    +0.000 C 
BRANCH  11  12
ATOM     12  C   UNL     1       4.304   8.864   6.761  0.00  0.00    +0.000 A 
ATOM     13  C   UNL     1       3.893   9.501   7.934  0.00  0.00    +0.000 A 
ATOM     14  C   UNL     1       3.375  10.784   7.848  0.00  0.00    +0.000 A 
ATOM     15  N   UNL     1       3.239  11.468   6.692  0.00  0.00    +0.000 NA
ATOM     16  C   UNL     1       3.639  10.836   5.568  0.00  0.00    +0.000 A 
ATOM     17  C   UNL     1       4.171   9.557   5.551  0.00  0.00    +0.000 A 
ENDBRANCH  11  12
ENDBRANCH   9  11
ENDBRANCH   8   9
ENDBRANCH   5   8
ENDBRANCH   1   2
BRANCH   1  20
ATOM     18  O   UNL     1       7.109   1.677   2.920  0.00  0.00    +0.000 OA
ATOM     19  C   UNL     1       6.367   0.949   2.264  0.00  0.00    +0.000 C 
ATOM     20  N   UNL     1       5.180   1.371   1.725  0.00  0.00    +0.000 N 
ATOM     21  H   UNL     1       4.584   0.703   1.253  0.00  0.00    +0.000 HD
BRANCH  19  22
ATOM     22  C   UNL     1       6.735  -0.439   1.970  0.00  0.00    +0.000 A 
ATOM     23  C   UNL     1       8.068  -0.818   1.890  0.00  0.00    +0.000 A 
ATOM     24  S   UNL     1       8.278  -2.480   1.556  0.00  0.00    +0.000 S 
ATOM     25  C   UNL     1       6.601  -2.747   1.549  0.00  0.00    +0.000 A 
ATOM     26  N   UNL     1       6.087  -3.997   1.356  0.00  0.00    +0.000 NA
ATOM     27  C   UNL     1       4.800  -4.059   1.422  0.00  0.00    +0.000 A 
ATOM     28  N   UNL     1       3.975  -2.988   1.655  0.00  0.00    +0.000 N 
ATOM     29  C   UNL     1       4.439  -1.702   1.768  0.00  0.00    +0.000 A 
ATOM     30  O   UNL     1       3.657  -0.756   1.810  0.00  0.00    +0.000 OA
ATOM     31  C   UNL     1       5.887  -1.588   1.762  0.00  0.00    +0.000 A 
ATOM     32  H   UNL     1       2.969  -3.096   1.655  0.00  0.00    +0.000 HD
ENDBRANCH  19  22
ENDBRANCH   1  20
TORSDOF 7
