REMARK  Name = 
REMARK  11 active torsions:
REMARK  status: ('A' for Active; 'I' for Inactive)
REMARK    1  A    between atoms: C_1  and  C_2
REMARK    2  A    between atoms: C_2  and  C_3
REMARK    3  A    between atoms: C_2  and  C_4
REMARK    4  A    between atoms: C_2  and  C_5
REMARK    5  A    between atoms: C_5  and  N_6
REMARK    6  A    between atoms: C_5  and  C_7
REMARK    7  A    between atoms: C_10  and  C_11
REMARK    8  A    between atoms: C_11  and  N_12
REMARK    9  A    between atoms: N_12  and  C_13
REMARK   10  A    between atoms: C_16  and  C_17
REMARK   11  A    between atoms: C_21  and  N_22
REMARK                            x       y       z     vdW  Elec       q    Type
REMARK                         _______ _______ _______ _____ _____    ______ ____
ROOT
ATOM      1  N   UNL     1       9.574   1.852  -2.195  0.00  0.00    +0.000 N 
ATOM      2  H   UNL     1       9.368   1.381  -3.072  0.00  0.00    +0.000 HD
ENDROOT
BRANCH   1   3
ATOM      3  C   UNL     1      10.987   1.788  -1.986  0.00  0.00    +0.000 A 
ATOM      4  N   UNL     1      11.488   1.362  -0.802  0.00  0.00    +0.000 NA
ATOM      5  C   UNL     1      12.838   1.447  -0.649  0.00  0.00    +0.000 A 
ATOM      6  C   UNL     1      13.667   1.970  -1.624  0.00  0.00    +0.000 A 
ATOM      7  N   UNL     1      13.212   2.381  -2.842  0.00  0.00    +0.000 NA
ATOM      8  C   UNL     1      11.872   2.269  -3.004  0.00  0.00    +0.000 A 
BRANCH   6   9
ATOM      9  C   UNL     1      15.122   2.151  -1.325  0.00  0.00    +0.000 C 
ATOM     10  N   UNL     1      15.862   2.808  -2.277  0.00  0.00    +0.000 N 
ATOM     11  O   UNL     1      15.622   1.763  -0.282  0.00  0.00    +0.000 OA
ATOM     12  H   UNL     1      15.420   3.155  -3.119  0.00  0.00    +0.000 HD
ATOM     13  H   UNL     1      16.842   2.991  -2.103  0.00  0.00    +0.000 HD
ENDBRANCH   6   9
BRANCH   8  14
ATOM     14  N   UNL     1      11.386   2.608  -4.273  0.00  0.00    +0.000 N 
ATOM     15  H   UNL     1      12.147   3.025  -4.802  0.00  0.00    +0.000 HD
ATOM     16  H   UNL     1      10.577   3.214  -4.186  0.00  0.00    +0.000 HD
ENDBRANCH   8  14
ENDBRANCH   1   3
BRANCH   1  17
ATOM     17  C   UNL     1       8.811   1.323  -1.068  0.00  0.00    +0.000 C 
BRANCH  17  21
ATOM     18  C   UNL     1       4.448   1.370  -0.910  0.00  0.00    +0.000 A 
ATOM     19  C   UNL     1       5.140   0.341  -1.573  0.00  0.00    +0.000 A 
ATOM     20  C   UNL     1       6.540   0.371  -1.728  0.00  0.00    +0.000 A 
ATOM     21  C   UNL     1       7.299   1.432  -1.217  0.00  0.00    +0.000 A 
ATOM     22  C   UNL     1       6.603   2.524  -0.679  0.00  0.00    +0.000 A 
ATOM     23  C   UNL     1       5.204   2.487  -0.519  0.00  0.00    +0.000 A 
BRANCH  18  24
ATOM     24  C   UNL     1       2.933   1.257  -0.670  0.00  0.00    +0.000 C 
BRANCH  24  26
ATOM     25  C   UNL     1       0.918   0.339   0.647  0.00  0.00    +0.000 C 
ATOM     26  C   UNL     1       2.460   0.527   0.661  0.00  0.00    +0.000 C 
ATOM     27  C   UNL     1       2.818   1.309   1.941  0.00  0.00    +0.000 C 
ATOM     28  C   UNL     1       3.067  -0.885   0.783  0.00  0.00    +0.000 C 
ENDBRANCH  24  26
BRANCH  24  29
ATOM     29  N   UNL     1       2.287   2.573  -0.827  0.00  0.00    +0.000 NA
ATOM     30  H   UNL     1       2.478   3.141  -0.004  0.00  0.00    +0.000 HD
ATOM     31  H   UNL     1       1.277   2.457  -0.854  0.00  0.00    +0.000 HD
ENDBRANCH  24  29
ENDBRANCH  18  24
ENDBRANCH  17  21
ENDBRANCH   1  17
TORSDOF 8
