REMARK  Name = 
REMARK  5 active torsions:
REMARK  status: ('A' for Active; 'I' for Inactive)
REMARK    1  A    between atoms: N_1  and  C_2
REMARK    2  A    between atoms: C_2  and  C_3
REMARK    3  A    between atoms: C_3  and  C_4
REMARK    4  A    between atoms: C_8  and  C_9
REMARK    5  A    between atoms: C_9  and  N_10
REMARK                            x       y       z     vdW  Elec       q    Type
REMARK                         _______ _______ _______ _____ _____    ______ ____
ROOT
ATOM      1  C   UNL     1       4.410   0.710  -1.147  0.00  0.00    +0.000 A 
ATOM      2  C   UNL     1       5.122  -0.495  -1.232  0.00  0.00    +0.000 A 
ATOM      3  C   UNL     1       6.502  -0.450  -1.174  0.00  0.00    +0.000 A 
ATOM      4  N   UNL     1       7.210   0.682  -1.017  0.00  0.00    +0.000 NA
ATOM      5  C   UNL     1       6.521   1.846  -0.908  0.00  0.00    +0.000 A 
ATOM      6  C   UNL     1       5.127   1.899  -0.989  0.00  0.00    +0.000 A 
ENDROOT
BRANCH   1   7
ATOM      7  C   UNL     1       2.897   0.702  -1.166  0.00  0.00    +0.000 C 
BRANCH   7   8
ATOM      8  C   UNL     1       2.330   0.602   0.254  0.00  0.00    +0.000 C 
BRANCH   8   9
ATOM      9  N   UNL     1       0.869   0.583   0.251  0.00  0.00    +0.000 NA
ATOM     10  H   UNL     1       0.535   0.510   1.212  0.00  0.00    +0.000 HD
ATOM     11  H   UNL     1       0.533  -0.257  -0.225  0.00  0.00    +0.000 HD
ENDBRANCH   8   9
ENDBRANCH   7   8
ENDBRANCH   1   7
BRANCH   5  12
ATOM     12  C   UNL     1       7.332   3.097  -0.760  0.00  0.00    +0.000 C 
BRANCH  12  13
ATOM     13  N   UNL     1       7.571   3.509   0.626  0.00  0.00    +0.000 N 
ATOM     14  C   UNL     1       7.136   4.732   1.096  0.00  0.00    +0.000 A 
ATOM     15  C   UNL     1       8.120   5.226   1.920  0.00  0.00    +0.000 A 
ATOM     16  C   UNL     1       9.065   4.187   2.138  0.00  0.00    +0.000 A 
ATOM     17  C   UNL     1      10.251   4.088   2.869  0.00  0.00    +0.000 A 
ATOM     18  N   UNL     1      10.901   2.903   2.982  0.00  0.00    +0.000 NA
ATOM     19  C   UNL     1      10.382   1.822   2.359  0.00  0.00    +0.000 A 
ATOM     20  C   UNL     1       9.258   1.831   1.545  0.00  0.00    +0.000 A 
ATOM     21  C   UNL     1       8.614   3.070   1.428  0.00  0.00    +0.000 A 
ENDBRANCH  12  13
ENDBRANCH   5  12
TORSDOF 5
