REMARK  Name = 
REMARK  7 active torsions:
REMARK  status: ('A' for Active; 'I' for Inactive)
REMARK    1  A    between atoms: C_2  and  O_3
REMARK    2  A    between atoms: C_2  and  C_25
REMARK    3  A    between atoms: O_3  and  C_4
REMARK    4  A    between atoms: C_4  and  C_5
REMARK    5  A    between atoms: C_8  and  C_9
REMARK    6  A    between atoms: C_9  and  N_10
REMARK    7  A    between atoms: C_11  and  C_13
REMARK                            x       y       z     vdW  Elec       q    Type
REMARK                         _______ _______ _______ _____ _____    ______ ____
ROOT
ATOM      1  C   UNL     1       6.187  -2.070  -6.498  0.00  0.00    +0.000 C 
ENDROOT
BRANCH   1   5
ATOM      2  C   UNL     1       4.820  -0.915  -2.548  0.00  0.00    +0.000 A 
ATOM      3  C   UNL     1       5.425   0.024  -3.396  0.00  0.00    +0.000 A 
ATOM      4  C   UNL     1       5.879  -0.350  -4.666  0.00  0.00    +0.000 A 
ATOM      5  C   UNL     1       5.728  -1.666  -5.119  0.00  0.00    +0.000 A 
ATOM      6  C   UNL     1       5.173  -2.615  -4.250  0.00  0.00    +0.000 A 
ATOM      7  C   UNL     1       4.719  -2.243  -2.981  0.00  0.00    +0.000 A 
BRANCH   2   8
ATOM      8  C   UNL     1       4.319  -0.516  -1.180  0.00  0.00    +0.000 C 
BRANCH   8   9
ATOM      9  O   UNL     1       2.903  -0.729  -1.094  0.00  0.00    +0.000 OA
BRANCH   9  11
ATOM     10  O   UNL     1       3.211  -2.061   0.742  0.00  0.00    +0.000 OA
ATOM     11  C   UNL     1       2.464  -1.501  -0.057  0.00  0.00    +0.000 C 
BRANCH  11  12
ATOM     12  C   UNL     1       1.006  -1.540  -0.027  0.00  0.00    +0.000 A 
ATOM     13  N   UNL     1       0.211  -0.916  -0.879  0.00  0.00    +0.000 NA
ATOM     14  C   UNL     1      -1.109  -1.159  -0.549  0.00  0.00    +0.000 A 
ATOM     15  C   UNL     1      -1.312  -1.961   0.552  0.00  0.00    +0.000 A 
ATOM     16  S   UNL     1       0.199  -2.438   1.203  0.00  0.00    +0.000 S 
ENDBRANCH  11  12
ENDBRANCH   9  11
ENDBRANCH   8   9
ENDBRANCH   2   8
ENDBRANCH   1   5
BRANCH   1  17
ATOM     17  N   UNL     1       7.563  -2.490  -6.481  0.00  0.00    +0.000 N 
ATOM     18  C   UNL     1       8.218  -2.867  -7.623  0.00  0.00    +0.000 C 
ATOM     19  O   UNL     1       7.698  -2.801  -8.734  0.00  0.00    +0.000 OA
ATOM     20  H   UNL     1       7.926  -2.790  -5.583  0.00  0.00    +0.000 HD
BRANCH  18  21
ATOM     21  C   UNL     1       9.614  -3.296  -7.452  0.00  0.00    +0.000 A 
ATOM     22  C   UNL     1      10.505  -3.212  -8.513  0.00  0.00    +0.000 A 
ATOM     23  S   UNL     1      12.100  -3.660  -8.099  0.00  0.00    +0.000 S 
ATOM     24  C   UNL     1      11.641  -4.035  -6.504  0.00  0.00    +0.000 A 
ATOM     25  N   UNL     1      12.549  -4.489  -5.599  0.00  0.00    +0.000 NA
ATOM     26  C   UNL     1      12.055  -4.761  -4.437  0.00  0.00    +0.000 A 
ATOM     27  N   UNL     1      10.734  -4.628  -4.099  0.00  0.00    +0.000 N 
ATOM     28  C   UNL     1       9.784  -4.165  -4.976  0.00  0.00    +0.000 A 
ATOM     29  O   UNL     1       8.612  -4.046  -4.638  0.00  0.00    +0.000 OA
ATOM     30  C   UNL     1      10.290  -3.827  -6.292  0.00  0.00    +0.000 A 
ATOM     31  H   UNL     1      10.406  -4.864  -3.174  0.00  0.00    +0.000 HD
ENDBRANCH  18  21
ENDBRANCH   1  17
TORSDOF 7
