REMARK  Name = 
REMARK  6 active torsions:
REMARK  status: ('A' for Active; 'I' for Inactive)
REMARK    1  A    between atoms: O_1  and  C_2
REMARK    2  A    between atoms: C_2  and  C_3
REMARK    3  A    between atoms: C_3  and  C_4
REMARK    4  A    between atoms: C_4  and  C_5
REMARK    5  A    between atoms: C_9  and  C_10
REMARK    6  A    between atoms: C_10  and  N_11
REMARK                            x       y       z     vdW  Elec       q    Type
REMARK                         _______ _______ _______ _____ _____    ______ ____
ROOT
ATOM      1  C   UNL     1       5.113   0.117   2.869  0.00  0.00    +0.000 A 
ATOM      2  C   UNL     1       5.343  -1.002   3.660  0.00  0.00    +0.000 A 
ATOM      3  N   UNL     1       5.743  -0.949   4.949  0.00  0.00    +0.000 NA
ATOM      4  C   UNL     1       5.901   0.283   5.489  0.00  0.00    +0.000 A 
ATOM      5  C   UNL     1       5.676   1.470   4.804  0.00  0.00    +0.000 A 
ATOM      6  C   UNL     1       5.303   1.371   3.462  0.00  0.00    +0.000 A 
ENDROOT
BRANCH   1   7
ATOM      7  C   UNL     1       4.601  -0.011   1.461  0.00  0.00    +0.000 C 
BRANCH   7   8
ATOM      8  C   UNL     1       5.571   0.546   0.415  0.00  0.00    +0.000 C 
BRANCH   8   9
ATOM      9  C   UNL     1       5.001   0.444  -0.994  0.00  0.00    +0.000 C 
BRANCH   9  10
ATOM     10  O   UNL     1       3.804   1.204  -1.080  0.00  0.00    +0.000 OA
ATOM     11  H   UNL     1       3.476   1.121  -1.993  0.00  0.00    +0.000 HD
ENDBRANCH   9  10
ENDBRANCH   8   9
ENDBRANCH   7   8
ENDBRANCH   1   7
BRANCH   5  12
ATOM     12  C   UNL     1       5.783   2.797   5.500  0.00  0.00    +0.000 C 
BRANCH  12  13
ATOM     13  N   UNL     1       7.140   3.328   5.493  0.00  0.00    +0.000 N 
ATOM     14  C   UNL     1       8.059   3.113   6.497  0.00  0.00    +0.000 A 
ATOM     15  C   UNL     1       9.218   3.780   6.164  0.00  0.00    +0.000 A 
ATOM     16  C   UNL     1       8.988   4.435   4.932  0.00  0.00    +0.000 A 
ATOM     17  N   UNL     1       9.821   5.213   4.200  0.00  0.00    +0.000 NA
ATOM     18  N   UNL     1       9.373   5.719   3.067  0.00  0.00    +0.000 NA
ATOM     19  C   UNL     1       8.103   5.483   2.666  0.00  0.00    +0.000 A 
ATOM     20  C   UNL     1       7.180   4.720   3.365  0.00  0.00    +0.000 A 
ATOM     21  C   UNL     1       7.680   4.165   4.540  0.00  0.00    +0.000 A 
ENDBRANCH  12  13
ENDBRANCH   5  12
TORSDOF 6
