REMARK  Name = 
REMARK  7 active torsions:
REMARK  status: ('A' for Active; 'I' for Inactive)
REMARK    1  A    between atoms: C_2  and  C_20
REMARK    2  A    between atoms: N_3  and  C_4
REMARK    3  A    between atoms: C_4  and  C_5
REMARK    4  A    between atoms: N_8  and  C_9
REMARK    5  A    between atoms: C_9  and  C_10
REMARK    6  A    between atoms: C_10  and  O_11
REMARK    7  A    between atoms: C_10  and  C_12
REMARK                            x       y       z     vdW  Elec       q    Type
REMARK                         _______ _______ _______ _____ _____    ______ ____
ROOT
ATOM      1  C   UNL     1       2.010  -2.742   2.403  0.00  0.00    +0.000 C 
ENDROOT
BRANCH   1   2
ATOM      2  C   UNL     1       2.967  -2.782   3.605  0.00  0.00    +0.000 C 
ATOM      3  C   UNL     1       3.875  -1.547   3.698  0.00  0.00    +0.000 C 
ATOM      4  C   UNL     1       4.913  -1.493   2.576  0.00  0.00    +0.000 C 
ATOM      5  N   UNL     1       5.702  -2.727   2.443  0.00  0.00    +0.000 NA
ATOM      6  C   UNL     1       4.882  -3.947   2.407  0.00  0.00    +0.000 C 
ATOM      7  C   UNL     1       3.863  -4.022   3.546  0.00  0.00    +0.000 C 
BRANCH   5   8
ATOM      8  C   UNL     1       6.561  -2.665   1.240  0.00  0.00    +0.000 C 
BRANCH   8   9
ATOM      9  C   UNL     1       7.706  -1.623   1.303  0.00  0.00    +0.000 C 
BRANCH   9  10
ATOM     10  C   UNL     1       8.657  -1.819   2.508  0.00  0.00    +0.000 C 
ATOM     11  C   UNL     1       9.708  -0.694   2.569  0.00  0.00    +0.000 C 
ATOM     12  C   UNL     1      10.671  -0.876   3.740  0.00  0.00    +0.000 C 
ATOM     13  C   UNL     1      11.340  -2.246   3.705  0.00  0.00    +0.000 C 
ATOM     14  C   UNL     1      10.306  -3.363   3.679  0.00  0.00    +0.000 C 
ATOM     15  C   UNL     1       9.344  -3.198   2.507  0.00  0.00    +0.000 C 
ENDBRANCH   9  10
BRANCH   9  16
ATOM     16  O   UNL     1       8.433  -1.647   0.067  0.00  0.00    +0.000 OA
ATOM     17  H   UNL     1       8.824  -2.530  -0.037  0.00  0.00    +0.000 HD
ENDBRANCH   9  16
ENDBRANCH   8   9
ENDBRANCH   5   8
ENDBRANCH   1   2
BRANCH   1  20
ATOM     18  O   UNL     1      -0.568  -2.588   3.623  0.00  0.00    +0.000 OA
ATOM     19  C   UNL     1      -0.133  -1.630   2.993  0.00  0.00    +0.000 C 
ATOM     20  N   UNL     1       1.125  -1.603   2.444  0.00  0.00    +0.000 N 
ATOM     21  H   UNL     1       1.388  -0.817   1.865  0.00  0.00    +0.000 HD
BRANCH  19  22
ATOM     22  C   UNL     1      -0.904  -0.395   2.821  0.00  0.00    +0.000 A 
ATOM     23  C   UNL     1      -1.864  -0.023   3.752  0.00  0.00    +0.000 A 
ATOM     24  S   UNL     1      -2.585   1.487   3.411  0.00  0.00    +0.000 S 
ATOM     25  C   UNL     1      -1.674   1.667   1.985  0.00  0.00    +0.000 A 
ATOM     26  N   UNL     1      -1.797   2.773   1.204  0.00  0.00    +0.000 NA
ATOM     27  C   UNL     1      -1.069   2.757   0.136  0.00  0.00    +0.000 A 
ATOM     28  N   UNL     1      -0.239   1.731  -0.229  0.00  0.00    +0.000 N 
ATOM     29  C   UNL     1      -0.061   0.607   0.540  0.00  0.00    +0.000 A 
ATOM     30  O   UNL     1       0.736  -0.265   0.210  0.00  0.00    +0.000 OA
ATOM     31  C   UNL     1      -0.843   0.584   1.762  0.00  0.00    +0.000 A 
ATOM     32  H   UNL     1       0.307   1.779  -1.076  0.00  0.00    +0.000 HD
ENDBRANCH  19  22
ENDBRANCH   1  20
TORSDOF 7
