REMARK  Name = 
REMARK  8 active torsions:
REMARK  status: ('A' for Active; 'I' for Inactive)
REMARK    1  A    between atoms: N_1  and  C_2
REMARK    2  A    between atoms: C_2  and  C_3
REMARK    3  A    between atoms: C_3  and  N_4
REMARK    4  A    between atoms: C_3  and  C_17
REMARK    5  A    between atoms: C_5  and  C_7
REMARK    6  A    between atoms: C_20  and  O_21
REMARK    7  A    between atoms: O_21  and  C_22
REMARK    8  A    between atoms: C_22  and  C_23
REMARK                            x       y       z     vdW  Elec       q    Type
REMARK                         _______ _______ _______ _____ _____    ______ ____
ROOT
ATOM      1  C   UNL     1       2.891   1.277  -0.503  0.00  0.00    +0.000 C 
ENDROOT
BRANCH   1   2
ATOM      2  C   UNL     1       4.412   1.405  -0.512  0.00  0.00    +0.000 A 
ATOM      3  C   UNL     1       5.103   1.756  -1.680  0.00  0.00    +0.000 A 
ATOM      4  C   UNL     1       6.498   1.865  -1.673  0.00  0.00    +0.000 A 
ATOM      5  C   UNL     1       7.218   1.633  -0.500  0.00  0.00    +0.000 A 
ATOM      6  C   UNL     1       6.540   1.242   0.655  0.00  0.00    +0.000 A 
ATOM      7  C   UNL     1       5.150   1.151   0.654  0.00  0.00    +0.000 A 
BRANCH   5   8
ATOM      8  O   UNL     1       8.575   1.818  -0.576  0.00  0.00    +0.000 OA
BRANCH   8   9
ATOM      9  C   UNL     1       9.197   2.110   0.682  0.00  0.00    +0.000 C 
BRANCH   9  10
ATOM     10  C   UNL     1      10.511   2.823   0.481  0.00  0.00    +0.000 A 
ATOM     11  C   UNL     1      11.574   2.187  -0.156  0.00  0.00    +0.000 A 
ATOM     12  C   UNL     1      12.781   2.868  -0.282  0.00  0.00    +0.000 A 
ATOM     13  C   UNL     1      12.893   4.158   0.223  0.00  0.00    +0.000 A 
ATOM     14  C   UNL     1      11.789   4.719   0.842  0.00  0.00    +0.000 A 
ATOM     15  N   UNL     1      10.607   4.081   0.985  0.00  0.00    +0.000 NA
ENDBRANCH   9  10
ENDBRANCH   8   9
ENDBRANCH   5   8
ENDBRANCH   1   2
BRANCH   1  16
ATOM     16  N   UNL     1       2.347   2.304   0.382  0.00  0.00    +0.000 N 
ATOM     17  C   UNL     1       0.999   2.494   0.551  0.00  0.00    +0.000 C 
ATOM     18  O   UNL     1       0.161   1.739   0.070  0.00  0.00    +0.000 OA
ATOM     19  H   UNL     1       2.965   3.086   0.585  0.00  0.00    +0.000 HD
BRANCH  17  20
ATOM     20  C   UNL     1       0.588   3.627   1.387  0.00  0.00    +0.000 A 
ATOM     21  C   UNL     1      -0.617   3.569   2.075  0.00  0.00    +0.000 A 
ATOM     22  S   UNL     1      -0.976   4.990   2.946  0.00  0.00    +0.000 S 
ATOM     23  C   UNL     1       0.447   5.747   2.400  0.00  0.00    +0.000 A 
ATOM     24  N   UNL     1       0.723   7.037   2.727  0.00  0.00    +0.000 NA
ATOM     25  C   UNL     1       1.814   7.495   2.209  0.00  0.00    +0.000 A 
ATOM     26  N   UNL     1       2.670   6.770   1.421  0.00  0.00    +0.000 N 
ATOM     27  C   UNL     1       2.465   5.444   1.120  0.00  0.00    +0.000 A 
ATOM     28  O   UNL     1       3.298   4.785   0.509  0.00  0.00    +0.000 OA
ATOM     29  C   UNL     1       1.215   4.904   1.617  0.00  0.00    +0.000 A 
ATOM     30  H   UNL     1       3.531   7.175   1.082  0.00  0.00    +0.000 HD
ENDBRANCH  17  20
ENDBRANCH   1  16
BRANCH   1  31
ATOM     31  C   UNL     1       2.471  -0.173  -0.093  0.00  0.00    +0.000 C 
BRANCH  31  32
ATOM     32  N   UNL     1       3.026  -1.235  -0.948  0.00  0.00    +0.000 NA
ATOM     33  H   UNL     1       2.915  -2.129  -0.473  0.00  0.00    +0.000 HD
ATOM     34  H   UNL     1       4.031  -1.094  -1.058  0.00  0.00    +0.000 HD
ENDBRANCH  31  32
ENDBRANCH   1  31
TORSDOF 8
