REMARK  Name = 
REMARK  10 active torsions:
REMARK  status: ('A' for Active; 'I' for Inactive)
REMARK    1  A    between atoms: C_1  and  C_2
REMARK    2  A    between atoms: C_2  and  N_3
REMARK    3  A    between atoms: C_2  and  C_20
REMARK    4  A    between atoms: N_3  and  C_4
REMARK    5  A    between atoms: C_4  and  C_5
REMARK    6  A    between atoms: C_8  and  C_9
REMARK    7  A    between atoms: C_9  and  C_10
REMARK    8  A    between atoms: C_10  and  N_11
REMARK    9  A    between atoms: N_11  and  C_12
REMARK   10  A    between atoms: N_15  and  C_16
REMARK                            x       y       z     vdW  Elec       q    Type
REMARK                         _______ _______ _______ _____ _____    ______ ____
ROOT
ATOM      1  C   UNL     1     -10.632   6.031   4.694  0.00  0.00    +0.000 C 
ENDROOT
BRANCH   1   2
ATOM      2  C   UNL     1     -10.575   4.521   4.675  0.00  0.00    +0.000 A 
ATOM      3  C   UNL     1      -9.503   3.859   4.062  0.00  0.00    +0.000 A 
ATOM      4  C   UNL     1      -9.397   2.469   4.120  0.00  0.00    +0.000 A 
ATOM      5  C   UNL     1     -10.353   1.709   4.808  0.00  0.00    +0.000 A 
ATOM      6  C   UNL     1     -11.435   2.367   5.404  0.00  0.00    +0.000 A 
ATOM      7  C   UNL     1     -11.546   3.759   5.337  0.00  0.00    +0.000 A 
BRANCH   5   8
ATOM      8  C   UNL     1     -10.217   0.208   4.919  0.00  0.00    +0.000 C 
BRANCH   8   9
ATOM      9  C   UNL     1      -8.932  -0.189   5.657  0.00  0.00    +0.000 C 
BRANCH   9  10
ATOM     10  N   UNL     1      -8.801  -1.647   5.771  0.00  0.00    +0.000 NA
ATOM     11  H   UNL     1      -8.823  -2.066   4.841  0.00  0.00    +0.000 HD
BRANCH  10  12
ATOM     12  C   UNL     1      -7.540  -2.008   6.438  0.00  0.00    +0.000 C 
ATOM     13  C   UNL     1      -7.369  -3.529   6.565  0.00  0.00    +0.000 C 
ATOM     14  C   UNL     1      -6.047  -3.843   5.874  0.00  0.00    +0.000 C 
ATOM     15  N   UNL     1      -5.292  -2.596   6.007  0.00  0.00    +0.000 NA
ATOM     16  C   UNL     1      -4.139  -2.538   5.120  0.00  0.00    +0.000 C 
ATOM     17  C   UNL     1      -6.267  -1.552   5.697  0.00  0.00    +0.000 C 
ENDBRANCH  10  12
ENDBRANCH   9  10
ENDBRANCH   8   9
ENDBRANCH   5   8
ENDBRANCH   1   2
BRANCH   1  18
ATOM     18  N   UNL     1     -10.534   6.592   3.349  0.00  0.00    +0.000 NA
ATOM     19  H   UNL     1     -11.303   6.210   2.795  0.00  0.00    +0.000 HD
BRANCH  18  21
ATOM     20  C   UNL     1      -9.535   8.771   4.114  0.00  0.00    +0.000 C 
ATOM     21  C   UNL     1     -10.643   8.057   3.328  0.00  0.00    +0.000 C 
BRANCH  21  22
ATOM     22  C   UNL     1     -10.604   8.466   1.868  0.00  0.00    +0.000 A 
ATOM     23  C   UNL     1      -9.567   8.152   0.999  0.00  0.00    +0.000 A 
ATOM     24  S   UNL     1      -9.801   8.755  -0.579  0.00  0.00    +0.000 S 
ATOM     25  C   UNL     1     -11.296   9.447  -0.156  0.00  0.00    +0.000 A 
ATOM     26  N   UNL     1     -12.043  10.124  -1.069  0.00  0.00    +0.000 NA
ATOM     27  C   UNL     1     -13.154  10.589  -0.606  0.00  0.00    +0.000 A 
ATOM     28  N   UNL     1     -13.588  10.445   0.687  0.00  0.00    +0.000 N 
ATOM     29  C   UNL     1     -12.867   9.776   1.653  0.00  0.00    +0.000 A 
ATOM     30  O   UNL     1     -13.280   9.679   2.801  0.00  0.00    +0.000 OA
ATOM     31  C   UNL     1     -11.610   9.228   1.174  0.00  0.00    +0.000 A 
ATOM     32  H   UNL     1     -14.468  10.837   0.986  0.00  0.00    +0.000 HD
ENDBRANCH  21  22
ENDBRANCH  18  21
ENDBRANCH   1  18
TORSDOF 8
