REMARK  Name = 
REMARK  8 active torsions:
REMARK  status: ('A' for Active; 'I' for Inactive)
REMARK    1  A    between atoms: C_1  and  O_2
REMARK    2  A    between atoms: O_2  and  C_3
REMARK    3  A    between atoms: C_10  and  C_11
REMARK    4  A    between atoms: N_13  and  C_14
REMARK    5  A    between atoms: C_14  and  C_15
REMARK    6  A    between atoms: C_18  and  C_19
REMARK    7  A    between atoms: C_19  and  C_20
REMARK    8  A    between atoms: C_20  and  N_21
REMARK                            x       y       z     vdW  Elec       q    Type
REMARK                         _______ _______ _______ _____ _____    ______ ____
ROOT
ATOM      1  C   UNL     1       1.350   2.983  -1.163  0.00  0.00    +0.000 A 
ATOM      2  C   UNL     1       1.215   1.705  -1.714  0.00  0.00    +0.000 A 
ATOM      3  C   UNL     1       0.056   1.344  -2.408  0.00  0.00    +0.000 A 
ATOM      4  C   UNL     1      -0.999   2.251  -2.583  0.00  0.00    +0.000 A 
ATOM      5  C   UNL     1      -0.833   3.552  -2.082  0.00  0.00    +0.000 A 
ATOM      6  C   UNL     1       0.329   3.915  -1.386  0.00  0.00    +0.000 A 
ENDROOT
BRANCH   1   7
ATOM      7  C   UNL     1       2.569   3.334  -0.348  0.00  0.00    +0.000 C 
BRANCH   7  10
ATOM      8  C   UNL     1       4.834   4.242  -0.645  0.00  0.00    +0.000 C 
ATOM      9  O   UNL     1       5.093   4.072   0.547  0.00  0.00    +0.000 OA
ATOM     10  N   UNL     1       3.614   3.901  -1.160  0.00  0.00    +0.000 N 
ATOM     11  H   UNL     1       3.413   4.051  -2.139  0.00  0.00    +0.000 HD
BRANCH   8  19
ATOM     12  C   UNL     1       4.846   4.832  -4.031  0.00  0.00    +0.000 A 
ATOM     13  N   UNL     1       5.083   5.222  -5.298  0.00  0.00    +0.000 NA
ATOM     14  C   UNL     1       6.244   5.830  -5.559  0.00  0.00    +0.000 A 
ATOM     15  N   UNL     1       7.223   6.093  -4.697  0.00  0.00    +0.000 NA
ATOM     16  C   UNL     1       6.939   5.701  -3.443  0.00  0.00    +0.000 A 
ATOM     17  S   UNL     1       8.077   5.946  -2.208  0.00  0.00    +0.000 S 
ATOM     18  C   UNL     1       7.042   5.255  -1.050  0.00  0.00    +0.000 A 
ATOM     19  C   UNL     1       5.820   4.835  -1.565  0.00  0.00    +0.000 A 
ATOM     20  C   UNL     1       5.773   5.080  -3.004  0.00  0.00    +0.000 A 
BRANCH  12  22
ATOM     21  C   UNL     1       3.085   3.546  -4.885  0.00  0.00    +0.000 C 
ATOM     22  O   UNL     1       3.650   4.205  -3.756  0.00  0.00    +0.000 OA
ENDBRANCH  12  22
ENDBRANCH   8  19
ENDBRANCH   7  10
ENDBRANCH   1   7
BRANCH   4  23
ATOM     23  C   UNL     1      -2.312   1.881  -3.258  0.00  0.00    +0.000 C 
BRANCH  23  24
ATOM     24  C   UNL     1      -2.408   0.428  -3.749  0.00  0.00    +0.000 C 
BRANCH  24  25
ATOM     25  N   UNL     1      -3.694   0.143  -4.371  0.00  0.00    +0.000 N 
ATOM     26  C   UNL     1      -3.793  -1.169  -4.833  0.00  0.00    +0.000 A 
ATOM     27  N   UNL     1      -3.145  -2.158  -4.195  0.00  0.00    +0.000 NA
ATOM     28  C   UNL     1      -3.258  -3.405  -4.685  0.00  0.00    +0.000 A 
ATOM     29  C   UNL     1      -3.996  -3.705  -5.795  0.00  0.00    +0.000 A 
ATOM     30  C   UNL     1      -4.610  -2.623  -6.370  0.00  0.00    +0.000 A 
ATOM     31 CL   UNL     1      -5.573  -2.823  -7.778  0.00  0.00    +0.000 Cl
ATOM     32  N   UNL     1      -4.527  -1.356  -5.929  0.00  0.00    +0.000 NA
ATOM     33  H   UNL     1      -3.955   0.735  -5.153  0.00  0.00    +0.000 HD
ENDBRANCH  24  25
ENDBRANCH  23  24
ENDBRANCH   4  23
TORSDOF 7
