REMARK  Name = 
REMARK  5 active torsions:
REMARK  status: ('A' for Active; 'I' for Inactive)
REMARK    1  A    between atoms: C_2  and  C_4
REMARK    2  A    between atoms: C_7  and  O_8
REMARK    3  A    between atoms: O_8  and  C_9
REMARK    4  A    between atoms: C_9  and  C_10
REMARK    5  A    between atoms: C_14  and  C_15
REMARK                            x       y       z     vdW  Elec       q    Type
REMARK                         _______ _______ _______ _____ _____    ______ ____
ROOT
ATOM      1  C   UNL     1       4.494   4.853  -3.580  0.00  0.00    +0.000 C 
ENDROOT
BRANCH   1   2
ATOM      2  C   UNL     1       5.218   5.618  -4.659  0.00  0.00    +0.000 A 
ATOM      3  C   UNL     1       5.834   4.994  -5.741  0.00  0.00    +0.000 A 
ATOM      4  C   UNL     1       6.425   5.789  -6.709  0.00  0.00    +0.000 A 
ATOM      5  N   UNL     1       6.440   7.141  -6.673  0.00  0.00    +0.000 NA
ATOM      6  C   UNL     1       5.836   7.756  -5.622  0.00  0.00    +0.000 A 
ATOM      7  C   UNL     1       5.211   7.018  -4.616  0.00  0.00    +0.000 A 
BRANCH   6   8
ATOM      8  C   UNL     1       5.889   9.231  -5.588  0.00  0.00    +0.000 A 
ATOM      9  C   UNL     1       6.525   9.980  -6.577  0.00  0.00    +0.000 A 
ATOM     10  N   UNL     1       6.615  11.337  -6.552  0.00  0.00    +0.000 NA
ATOM     11  C   UNL     1       6.039  11.931  -5.487  0.00  0.00    +0.000 A 
ATOM     12  C   UNL     1       5.395  11.210  -4.499  0.00  0.00    +0.000 A 
ATOM     13  N   UNL     1       5.303   9.860  -4.525  0.00  0.00    +0.000 NA
ENDBRANCH   6   8
ENDBRANCH   1   2
BRANCH   1  14
ATOM     14  O   UNL     1       5.059   3.557  -3.374  0.00  0.00    +0.000 OA
BRANCH  14  18
ATOM     15  C   UNL     1       3.377   1.034  -0.504  0.00  0.00    +0.000 A 
ATOM     16  C   UNL     1       2.828   2.307  -0.679  0.00  0.00    +0.000 A 
ATOM     17  C   UNL     1       3.366   3.180  -1.627  0.00  0.00    +0.000 A 
ATOM     18  C   UNL     1       4.459   2.792  -2.408  0.00  0.00    +0.000 A 
ATOM     19  C   UNL     1       5.020   1.527  -2.214  0.00  0.00    +0.000 A 
ATOM     20  C   UNL     1       4.489   0.652  -1.262  0.00  0.00    +0.000 A 
BRANCH  15  22
ATOM     21  N   UNL     1       1.482   0.195   0.766  0.00  0.00    +0.000 N 
ATOM     22  C   UNL     1       2.817   0.083   0.489  0.00  0.00    +0.000 C 
ATOM     23  O   UNL     1       3.503  -0.786   1.010  0.00  0.00    +0.000 OA
ATOM     24  H   UNL     1       1.085  -0.520   1.363  0.00  0.00    +0.000 HD
ATOM     25  H   UNL     1       0.849   0.711   0.171  0.00  0.00    +0.000 HD
ENDBRANCH  15  22
ENDBRANCH  14  18
ENDBRANCH   1  14
TORSDOF 5
