REMARK  Name = 
REMARK  7 active torsions:
REMARK  status: ('A' for Active; 'I' for Inactive)
REMARK    1  A    between atoms: N_1  and  C_2
REMARK    2  A    between atoms: C_2  and  C_3
REMARK    3  A    between atoms: C_6  and  C_7
REMARK    4  A    between atoms: C_12  and  S_13
REMARK    5  A    between atoms: S_13  and  C_14
REMARK    6  A    between atoms: C_14  and  C_15
REMARK    7  A    between atoms: C_15  and  C_16
REMARK                            x       y       z     vdW  Elec       q    Type
REMARK                         _______ _______ _______ _____ _____    ______ ____
ROOT
ATOM      1  C   UNL     1       3.043  -1.315  -0.580  0.00  0.00    +0.000 A 
ATOM      2  C   UNL     1       4.106  -1.437  -1.505  0.00  0.00    +0.000 A 
ATOM      3  C   UNL     1       4.416  -2.655  -2.102  0.00  0.00    +0.000 A 
ATOM      4  C   UNL     1       3.673  -3.794  -1.790  0.00  0.00    +0.000 A 
ATOM      5  C   UNL     1       2.616  -3.681  -0.864  0.00  0.00    +0.000 A 
ATOM      6  C   UNL     1       2.296  -2.460  -0.240  0.00  0.00    +0.000 A 
ENDROOT
BRANCH   4   7
ATOM      7  C   UNL     1       3.991  -5.116  -2.443  0.00  0.00    +0.000 C 
ATOM      8  F   UNL     1       5.039  -5.053  -3.313  0.00  0.00    +0.000 F 
ATOM      9  F   UNL     1       4.321  -6.078  -1.538  0.00  0.00    +0.000 F 
ATOM     10  F   UNL     1       2.946  -5.614  -3.159  0.00  0.00    +0.000 F 
ENDBRANCH   4   7
BRANCH   1  11
ATOM     11  C   UNL     1       2.813   0.064  -0.009  0.00  0.00    +0.000 C 
BRANCH  11  12
ATOM     12  N   UNL     1       3.694   0.313   1.129  0.00  0.00    +0.000 NA
ATOM     13  H   UNL     1       3.976   1.291   1.130  0.00  0.00    +0.000 HD
ATOM     14  H   UNL     1       4.550  -0.231   1.031  0.00  0.00    +0.000 HD
ENDBRANCH  11  12
ENDBRANCH   1  11
BRANCH   6  15
ATOM     15  S   UNL     1       0.849  -2.474   0.831  0.00  0.00    +0.000 S 
BRANCH  15  16
ATOM     16  C   UNL     1       1.569  -2.012   2.450  0.00  0.00    +0.000 C 
BRANCH  16  17
ATOM     17  C   UNL     1       0.524  -2.077   3.572  0.00  0.00    +0.000 C 
BRANCH  17  18
ATOM     18  C   UNL     1       1.116  -1.624   4.889  0.00  0.00    +0.000 A 
ATOM     19  C   UNL     1       1.120  -0.272   5.247  0.00  0.00    +0.000 A 
ATOM     20  C   UNL     1       1.735   0.104   6.433  0.00  0.00    +0.000 A 
ATOM     21  N   UNL     1       2.335  -0.762   7.276  0.00  0.00    +0.000 NA
ATOM     22  C   UNL     1       2.315  -2.064   6.917  0.00  0.00    +0.000 A 
ATOM     23  C   UNL     1       1.727  -2.537   5.752  0.00  0.00    +0.000 A 
ENDBRANCH  17  18
ENDBRANCH  16  17
ENDBRANCH  15  16
ENDBRANCH   6  15
TORSDOF 7
