REMARK  Name = 
REMARK  4 active torsions:
REMARK  status: ('A' for Active; 'I' for Inactive)
REMARK    1  A    between atoms: N_1  and  C_2
REMARK    2  A    between atoms: C_2  and  C_3
REMARK    3  A    between atoms: C_6  and  C_7
REMARK    4  A    between atoms: C_7  and  N_8
REMARK                            x       y       z     vdW  Elec       q    Type
REMARK                         _______ _______ _______ _____ _____    ______ ____
ROOT
ATOM      1  C   UNL     1       3.963   4.747   2.701  0.00  0.00    +0.000 C 
ENDROOT
BRANCH   1   2
ATOM      2  N   UNL     1       3.138   5.838   2.216  0.00  0.00    +0.000 N 
ATOM      3  C   UNL     1       3.274   6.436   0.992  0.00  0.00    +0.000 A 
ATOM      4  N   UNL     1       2.405   7.407   0.826  0.00  0.00    +0.000 NA
ATOM      5  C   UNL     1       1.691   7.457   1.997  0.00  0.00    +0.000 A 
ATOM      6  C   UNL     1       0.637   8.307   2.354  0.00  0.00    +0.000 A 
ATOM      7  C   UNL     1       0.085   8.165   3.625  0.00  0.00    +0.000 A 
ATOM      8  F   UNL     1      -0.931   8.960   3.987  0.00  0.00    +0.000 F 
ATOM      9  C   UNL     1       0.560   7.222   4.532  0.00  0.00    +0.000 A 
ATOM     10  C   UNL     1       1.609   6.361   4.191  0.00  0.00    +0.000 A 
ATOM     11  C   UNL     1       2.146   6.498   2.905  0.00  0.00    +0.000 A 
ENDBRANCH   1   2
BRANCH   1  15
ATOM     12  C   UNL     1       3.500   1.118   0.495  0.00  0.00    +0.000 A 
ATOM     13  C   UNL     1       2.596   1.410   1.520  0.00  0.00    +0.000 A 
ATOM     14  C   UNL     1       2.712   2.603   2.232  0.00  0.00    +0.000 A 
ATOM     15  C   UNL     1       3.745   3.482   1.911  0.00  0.00    +0.000 A 
ATOM     16  N   UNL     1       4.618   3.233   0.901  0.00  0.00    +0.000 NA
ATOM     17  C   UNL     1       4.472   2.071   0.222  0.00  0.00    +0.000 A 
BRANCH  12  18
ATOM     18  C   UNL     1       3.471  -0.191  -0.241  0.00  0.00    +0.000 C 
BRANCH  18  19
ATOM     19  N   UNL     1       2.179  -0.445  -0.866  0.00  0.00    +0.000 NA
ATOM     20  H   UNL     1       2.232  -1.312  -1.398  0.00  0.00    +0.000 HD
ATOM     21  H   UNL     1       1.985   0.291  -1.544  0.00  0.00    +0.000 HD
ENDBRANCH  18  19
ENDBRANCH  12  18
ENDBRANCH   1  15
TORSDOF 4
