REMARK  Name = 
REMARK  8 active torsions:
REMARK  status: ('A' for Active; 'I' for Inactive)
REMARK    1  A    between atoms: C_1  and  C_2
REMARK    2  A    between atoms: C_2  and  C_3
REMARK    3  A    between atoms: C_2  and  C_4
REMARK    4  A    between atoms: C_2  and  C_22
REMARK    5  A    between atoms: C_5  and  C_6
REMARK    6  A    between atoms: C_10  and  C_11
REMARK    7  A    between atoms: C_15  and  C_16
REMARK    8  A    between atoms: C_25  and  C_26
REMARK                            x       y       z     vdW  Elec       q    Type
REMARK                         _______ _______ _______ _____ _____    ______ ____
ROOT
ATOM      1  C   UNL     1       3.008   0.092   1.471  0.00  0.00    +0.000 C 
ATOM      2  C   UNL     1       2.708   1.038   2.383  0.00  0.00    +0.000 C 
ENDROOT
BRANCH   2   3
ATOM      3  C   UNL     1       3.244   1.062   3.750  0.00  0.00    +0.000 A 
ATOM      4  C   UNL     1       2.901   2.090   4.618  0.00  0.00    +0.000 A 
ATOM      5  C   UNL     1       3.429   2.083   5.902  0.00  0.00    +0.000 A 
ATOM      6  C   UNL     1       4.268   1.038   6.285  0.00  0.00    +0.000 A 
ATOM      7  C   UNL     1       4.544   0.017   5.377  0.00  0.00    +0.000 A 
ATOM      8  N   UNL     1       4.051   0.040   4.115  0.00  0.00    +0.000 NA
BRANCH   7   9
ATOM      9  C   UNL     1       5.338  -1.181   5.724  0.00  0.00    +0.000 A 
ATOM     10  C   UNL     1       5.371  -1.691   7.032  0.00  0.00    +0.000 A 
ATOM     11  C   UNL     1       6.084  -2.850   7.346  0.00  0.00    +0.000 A 
ATOM     12  C   UNL     1       6.766  -3.541   6.349  0.00  0.00    +0.000 A 
ATOM     13  C   UNL     1       6.743  -3.081   5.027  0.00  0.00    +0.000 A 
ATOM     14  C   UNL     1       6.043  -1.896   4.734  0.00  0.00    +0.000 A 
BRANCH  13  15
ATOM     15  C   UNL     1       7.417  -3.854   3.921  0.00  0.00    +0.000 C 
ATOM     16  F   UNL     1       7.994  -5.014   4.345  0.00  0.00    +0.000 F 
ATOM     17  F   UNL     1       6.553  -4.212   2.932  0.00  0.00    +0.000 F 
ATOM     18  F   UNL     1       8.411  -3.146   3.313  0.00  0.00    +0.000 F 
ENDBRANCH  13  15
ENDBRANCH   7   9
ENDBRANCH   2   3
BRANCH   1  20
ATOM     19  C   UNL     1       3.472   0.688  -0.882  0.00  0.00    +0.000 C 
ATOM     20  C   UNL     1       2.455  -0.010   0.049  0.00  0.00    +0.000 C 
ATOM     21  C   UNL     1       2.429  -1.503  -0.357  0.00  0.00    +0.000 C 
BRANCH  20  22
ATOM     22  C   UNL     1       1.038   0.576  -0.063  0.00  0.00    +0.000 A 
ATOM     23  C   UNL     1       0.724   1.668  -0.887  0.00  0.00    +0.000 A 
ATOM     24  C   UNL     1      -0.558   2.209  -0.890  0.00  0.00    +0.000 A 
ATOM     25  C   UNL     1      -1.509   1.642  -0.060  0.00  0.00    +0.000 A 
ATOM     26  N   UNL     1      -1.270   0.574   0.747  0.00  0.00    +0.000 NA
ATOM     27  C   UNL     1      -0.010   0.073   0.720  0.00  0.00    +0.000 A 
BRANCH  25  28
ATOM     28  C   UNL     1      -2.885   2.235  -0.009  0.00  0.00    +0.000 C 
ATOM     29  N   UNL     1      -3.751   1.624   0.856  0.00  0.00    +0.000 N 
ATOM     30  O   UNL     1      -3.215   3.198  -0.685  0.00  0.00    +0.000 OA
ATOM     31  H   UNL     1      -3.438   0.820   1.388  0.00  0.00    +0.000 HD
ATOM     32  H   UNL     1      -4.699   1.958   0.933  0.00  0.00    +0.000 HD
ENDBRANCH  25  28
ENDBRANCH  20  22
ENDBRANCH   1  20
TORSDOF 6
