REMARK  Name = 
REMARK  10 active torsions:
REMARK  status: ('A' for Active; 'I' for Inactive)
REMARK    1  A    between atoms: C_1  and  C_2
REMARK    2  A    between atoms: C_2  and  N_3
REMARK    3  A    between atoms: C_2  and  C_4
REMARK    4  A    between atoms: C_7  and  C_8
REMARK    5  A    between atoms: C_8  and  N_9
REMARK    6  A    between atoms: C_11  and  C_12
REMARK    7  A    between atoms: C_12  and  C_13
REMARK    8  A    between atoms: C_12  and  C_14
REMARK    9  A    between atoms: C_12  and  C_15
REMARK   10  A    between atoms: C_18  and  C_19
REMARK                            x       y       z     vdW  Elec       q    Type
REMARK                         _______ _______ _______ _____ _____    ______ ____
ROOT
ATOM      1  N   UNL     1       5.094  -3.447  -4.935  0.00  0.00    +0.000 N 
ATOM      2  C   UNL     1       4.706  -3.419  -6.252  0.00  0.00    +0.000 A 
ATOM      3  C   UNL     1       5.712  -2.854  -7.019  0.00  0.00    +0.000 A 
ATOM      4  C   UNL     1       6.758  -2.507  -6.088  0.00  0.00    +0.000 A 
ATOM      5  C   UNL     1       8.012  -1.887  -6.217  0.00  0.00    +0.000 A 
ATOM      6  C   UNL     1       8.750  -1.693  -5.058  0.00  0.00    +0.000 A 
ATOM      7  N   UNL     1       8.355  -2.076  -3.815  0.00  0.00    +0.000 NA
ATOM      8  C   UNL     1       7.154  -2.687  -3.685  0.00  0.00    +0.000 A 
ATOM      9  C   UNL     1       6.351  -2.893  -4.807  0.00  0.00    +0.000 A 
ENDROOT
BRANCH   6  10
ATOM     10  C   UNL     1      10.072  -0.993  -5.161  0.00  0.00    +0.000 C 
ATOM     11  N   UNL     1      10.754  -0.819  -3.991  0.00  0.00    +0.000 N 
ATOM     12  O   UNL     1      10.524  -0.586  -6.227  0.00  0.00    +0.000 OA
ATOM     13  H   UNL     1      10.358  -1.147  -3.118  0.00  0.00    +0.000 HD
ATOM     14  H   UNL     1      11.641  -0.335  -4.006  0.00  0.00    +0.000 HD
ENDBRANCH   6  10
BRANCH   3  15
ATOM     15  C   UNL     1       5.698  -2.630  -8.535  0.00  0.00    +0.000 C 
ATOM     16  C   UNL     1       4.375  -3.117  -9.174  0.00  0.00    +0.000 C 
ATOM     17  C   UNL     1       5.846  -1.130  -8.866  0.00  0.00    +0.000 C 
ATOM     18  C   UNL     1       6.842  -3.411  -9.213  0.00  0.00    +0.000 C 
ENDBRANCH   3  15
BRANCH   1  19
ATOM     19  C   UNL     1       4.227  -3.881  -3.842  0.00  0.00    +0.000 C 
BRANCH  19  23
ATOM     20  C   UNL     1       4.495  -8.153  -3.130  0.00  0.00    +0.000 A 
ATOM     21  C   UNL     1       5.323  -7.259  -2.437  0.00  0.00    +0.000 A 
ATOM     22  C   UNL     1       5.238  -5.882  -2.661  0.00  0.00    +0.000 A 
ATOM     23  C   UNL     1       4.323  -5.364  -3.587  0.00  0.00    +0.000 A 
ATOM     24  C   UNL     1       3.490  -6.255  -4.277  0.00  0.00    +0.000 A 
ATOM     25  C   UNL     1       3.574  -7.630  -4.051  0.00  0.00    +0.000 A 
BRANCH  20  27
ATOM     26  C   UNL     1       5.060 -10.389  -4.145  0.00  0.00    +0.000 C 
ATOM     27  C   UNL     1       4.616  -9.645  -2.885  0.00  0.00    +0.000 C 
BRANCH  27  28
ATOM     28  N   UNL     1       3.360 -10.203  -2.380  0.00  0.00    +0.000 NA
ATOM     29  H   UNL     1       2.628 -10.082  -3.075  0.00  0.00    +0.000 HD
ATOM     30  H   UNL     1       3.068  -9.659  -1.568  0.00  0.00    +0.000 HD
ENDBRANCH  27  28
ENDBRANCH  20  27
ENDBRANCH  19  23
ENDBRANCH   1  19
TORSDOF 6
