REMARK  Name = 
REMARK  4 active torsions:
REMARK  status: ('A' for Active; 'I' for Inactive)
REMARK    1  A    between atoms: C_2  and  C_4
REMARK    2  A    between atoms: C_7  and  N_8
REMARK    3  A    between atoms: N_8  and  C_9
REMARK    4  A    between atoms: C_9  and  C_10
REMARK                            x       y       z     vdW  Elec       q    Type
REMARK                         _______ _______ _______ _____ _____    ______ ____
ROOT
ATOM      1  C   UNL     1       8.649  -1.786  -1.696  0.00  0.00    +0.000 A 
ATOM      2  C   UNL     1       8.791  -2.882  -2.533  0.00  0.00    +0.000 A 
ATOM      3  C   UNL     1       7.659  -3.645  -2.828  0.00  0.00    +0.000 A 
ATOM      4  C   UNL     1       6.413  -3.291  -2.307  0.00  0.00    +0.000 A 
ATOM      5  C   UNL     1       6.396  -2.189  -1.444  0.00  0.00    +0.000 A 
ATOM      6  N   UNL     1       7.466  -1.418  -1.130  0.00  0.00    +0.000 NA
ENDROOT
BRANCH   1   8
ATOM      7  N   UNL     1       9.610   0.091  -0.497  0.00  0.00    +0.000 N 
ATOM      8  C   UNL     1       9.840  -0.939  -1.370  0.00  0.00    +0.000 C 
ATOM      9  O   UNL     1      10.951  -1.144  -1.845  0.00  0.00    +0.000 OA
ATOM     10  H   UNL     1      10.369   0.695  -0.225  0.00  0.00    +0.000 HD
ATOM     11  H   UNL     1       8.679   0.218  -0.113  0.00  0.00    +0.000 HD
ENDBRANCH   1   8
BRANCH   4  12
ATOM     12  N   UNL     1       5.239  -4.038  -2.542  0.00  0.00    +0.000 N 
ATOM     13  H   UNL     1       4.396  -3.546  -2.257  0.00  0.00    +0.000 HD
BRANCH  12  14
ATOM     14  C   UNL     1       5.085  -4.905  -3.737  0.00  0.00    +0.000 C 
ATOM     15  C   UNL     1       5.138  -4.248  -5.107  0.00  0.00    +0.000 C 
ATOM     16  C   UNL     1       3.825  -4.721  -4.581  0.00  0.00    +0.000 C 
BRANCH  14  17
ATOM     17  C   UNL     1       5.468  -6.374  -3.521  0.00  0.00    +0.000 A 
ATOM     18  C   UNL     1       4.961  -7.090  -2.418  0.00  0.00    +0.000 A 
ATOM     19  C   UNL     1       5.218  -8.452  -2.239  0.00  0.00    +0.000 A 
ATOM     20  C   UNL     1       5.990  -9.141  -3.169  0.00  0.00    +0.000 A 
ATOM     21  C   UNL     1       6.524  -8.460  -4.257  0.00  0.00    +0.000 A 
ATOM     22  C   UNL     1       6.275  -7.093  -4.421  0.00  0.00    +0.000 A 
ENDBRANCH  14  17
ENDBRANCH  12  14
ENDBRANCH   4  12
TORSDOF 4
