REMARK  Name = 
REMARK  7 active torsions:
REMARK  status: ('A' for Active; 'I' for Inactive)
REMARK    1  A    between atoms: C_1  and  C_2
REMARK    2  A    between atoms: C_6  and  C_7
REMARK    3  A    between atoms: N_9  and  C_10
REMARK    4  A    between atoms: C_10  and  C_11
REMARK    5  A    between atoms: C_14  and  C_15
REMARK    6  A    between atoms: C_15  and  N_16
REMARK    7  A    between atoms: C_17  and  C_19
REMARK                            x       y       z     vdW  Elec       q    Type
REMARK                         _______ _______ _______ _____ _____    ______ ____
ROOT
ATOM      1  C   UNL     1      -5.199   3.818   0.042  0.00  0.00    +0.000 A 
ATOM      2  C   UNL     1      -5.773   2.539   0.064  0.00  0.00    +0.000 A 
ATOM      3  C   UNL     1      -7.164   2.371   0.161  0.00  0.00    +0.000 A 
ATOM      4  C   UNL     1      -8.021   3.478   0.216  0.00  0.00    +0.000 A 
ATOM      5  C   UNL     1      -7.447   4.757   0.220  0.00  0.00    +0.000 A 
ATOM      6  C   UNL     1      -6.056   4.925   0.117  0.00  0.00    +0.000 A 
ENDROOT
BRANCH   1   7
ATOM      7  C   UNL     1      -3.698   3.992  -0.027  0.00  0.00    +0.000 C 
BRANCH   7  10
ATOM      8  C   UNL     1      -1.834   4.212  -1.644  0.00  0.00    +0.000 C 
ATOM      9  O   UNL     1      -0.980   4.345  -0.778  0.00  0.00    +0.000 OA
ATOM     10  N   UNL     1      -3.183   4.045  -1.375  0.00  0.00    +0.000 N 
ATOM     11  H   UNL     1      -3.797   3.920  -2.174  0.00  0.00    +0.000 HD
BRANCH   8  17
ATOM     12  C   UNL     1      -3.400   3.916  -6.228  0.00  0.00    +0.000 C 
ATOM     13  C   UNL     1      -2.238   4.082  -5.297  0.00  0.00    +0.000 A 
ATOM     14  C   UNL     1      -0.944   4.235  -5.789  0.00  0.00    +0.000 A 
ATOM     15  C   UNL     1       0.107   4.380  -4.887  0.00  0.00    +0.000 A 
ATOM     16  C   UNL     1      -0.162   4.373  -3.522  0.00  0.00    +0.000 A 
ATOM     17  C   UNL     1      -1.480   4.220  -3.109  0.00  0.00    +0.000 A 
ATOM     18  N   UNL     1      -2.524   4.071  -3.972  0.00  0.00    +0.000 NA
ENDBRANCH   8  17
ENDBRANCH   7  10
ENDBRANCH   1   7
BRANCH   4  19
ATOM     19  C   UNL     1      -9.521   3.294   0.253  0.00  0.00    +0.000 C 
BRANCH  19  20
ATOM     20  N   UNL     1     -10.029   3.149   1.595  0.00  0.00    +0.000 N 
ATOM     21  C   UNL     1     -11.366   2.937   1.838  0.00  0.00    +0.000 C 
ATOM     22  O   UNL     1     -12.184   2.801   0.932  0.00  0.00    +0.000 OA
ATOM     23  H   UNL     1      -9.436   3.483   2.347  0.00  0.00    +0.000 HD
BRANCH  21  24
ATOM     24  C   UNL     1     -11.763   2.824   3.248  0.00  0.00    +0.000 A 
ATOM     25  C   UNL     1     -12.895   2.099   3.601  0.00  0.00    +0.000 A 
ATOM     26  S   UNL     1     -13.182   2.057   5.283  0.00  0.00    +0.000 S 
ATOM     27  C   UNL     1     -11.829   3.039   5.596  0.00  0.00    +0.000 A 
ATOM     28  N   UNL     1     -11.511   3.413   6.865  0.00  0.00    +0.000 NA
ATOM     29  C   UNL     1     -10.466   4.169   6.951  0.00  0.00    +0.000 A 
ATOM     30  N   UNL     1      -9.710   4.580   5.887  0.00  0.00    +0.000 N 
ATOM     31  C   UNL     1      -9.980   4.211   4.591  0.00  0.00    +0.000 A 
ATOM     32  O   UNL     1      -9.256   4.561   3.666  0.00  0.00    +0.000 OA
ATOM     33  C   UNL     1     -11.153   3.372   4.435  0.00  0.00    +0.000 A 
ATOM     34  H   UNL     1      -8.892   5.155   6.020  0.00  0.00    +0.000 HD
ENDBRANCH  21  24
ENDBRANCH  19  20
ENDBRANCH   4  19
TORSDOF 6
