REMARK  Name = 
REMARK  6 active torsions:
REMARK  status: ('A' for Active; 'I' for Inactive)
REMARK    1  A    between atoms: C_2  and  C_18
REMARK    2  A    between atoms: N_3  and  C_4
REMARK    3  A    between atoms: C_4  and  C_5
REMARK    4  A    between atoms: C_8  and  C_9
REMARK    5  A    between atoms: C_9  and  N_10
REMARK    6  A    between atoms: C_13  and  O_14
REMARK                            x       y       z     vdW  Elec       q    Type
REMARK                         _______ _______ _______ _____ _____    ______ ____
ROOT
ATOM      1  O   UNL     1       0.436   2.244  -2.621  0.00  0.00    +0.000 OA
ATOM      2  C   UNL     1       0.075   1.119  -2.948  0.00  0.00    +0.000 C 
ATOM      3  N   UNL     1       0.833  -0.006  -2.748  0.00  0.00    +0.000 N 
ATOM      4  H   UNL     1       0.578  -0.868  -3.218  0.00  0.00    +0.000 HD
ENDROOT
BRANCH   2   5
ATOM      5  C   UNL     1      -1.233   0.883  -3.552  0.00  0.00    +0.000 A 
ATOM      6  C   UNL     1      -2.313   1.714  -3.290  0.00  0.00    +0.000 A 
ATOM      7  S   UNL     1      -3.730   1.251  -4.128  0.00  0.00    +0.000 S 
ATOM      8  C   UNL     1      -2.927  -0.047  -4.883  0.00  0.00    +0.000 A 
ATOM      9  N   UNL     1      -3.566  -0.857  -5.770  0.00  0.00    +0.000 NA
ATOM     10  C   UNL     1      -2.814  -1.778  -6.284  0.00  0.00    +0.000 A 
ATOM     11  N   UNL     1      -1.492  -1.958  -5.986  0.00  0.00    +0.000 N 
ATOM     12  C   UNL     1      -0.836  -1.240  -5.044  0.00  0.00    +0.000 A 
ATOM     13  O   UNL     1       0.293  -1.566  -4.675  0.00  0.00    +0.000 OA
ATOM     14  C   UNL     1      -1.614  -0.147  -4.475  0.00  0.00    +0.000 A 
ATOM     15  H   UNL     1      -0.973  -2.737  -6.373  0.00  0.00    +0.000 HD
ENDBRANCH   2   5
BRANCH   3  16
ATOM     16  C   UNL     1       2.188   0.049  -2.284  0.00  0.00    +0.000 C 
BRANCH  16  17
ATOM     17  C   UNL     1       3.170   0.244  -3.411  0.00  0.00    +0.000 A 
ATOM     18  C   UNL     1       3.458   1.542  -3.842  0.00  0.00    +0.000 A 
ATOM     19  C   UNL     1       4.383   1.770  -4.861  0.00  0.00    +0.000 A 
ATOM     20  C   UNL     1       5.046   0.704  -5.488  0.00  0.00    +0.000 A 
ATOM     21  C   UNL     1       4.747  -0.600  -5.063  0.00  0.00    +0.000 A 
ATOM     22  C   UNL     1       3.809  -0.830  -4.045  0.00  0.00    +0.000 A 
BRANCH  20  23
ATOM     23  C   UNL     1       6.024   0.953  -6.625  0.00  0.00    +0.000 C 
BRANCH  23  24
ATOM     24  N   UNL     1       7.434   1.089  -6.222  0.00  0.00    +0.000 NA
ATOM     25  C   UNL     1       7.695   2.263  -5.382  0.00  0.00    +0.000 C 
ATOM     26  C   UNL     1       8.932   2.969  -5.921  0.00  0.00    +0.000 C 
ATOM     27  C   UNL     1       9.511   2.027  -6.956  0.00  0.00    +0.000 C 
ATOM     28  C   UNL     1       8.336   1.150  -7.388  0.00  0.00    +0.000 C 
BRANCH  27  29
ATOM     29  O   UNL     1      10.540   1.241  -6.361  0.00  0.00    +0.000 OA
ATOM     30  H   UNL     1      10.099   0.655  -5.719  0.00  0.00    +0.000 HD
ENDBRANCH  27  29
ENDBRANCH  23  24
ENDBRANCH  20  23
ENDBRANCH  16  17
ENDBRANCH   3  16
TORSDOF 6
