REMARK  Name = 
REMARK  9 active torsions:
REMARK  status: ('A' for Active; 'I' for Inactive)
REMARK    1  A    between atoms: C_1  and  C_2
REMARK    2  A    between atoms: C_2  and  C_3
REMARK    3  A    between atoms: C_3  and  N_4
REMARK    4  A    between atoms: C_3  and  C_17
REMARK    5  A    between atoms: C_5  and  C_7
REMARK    6  A    between atoms: C_20  and  C_21
REMARK    7  A    between atoms: C_21  and  N_22
REMARK    8  A    between atoms: N_22  and  C_23
REMARK    9  A    between atoms: C_23  and  C_24
REMARK                            x       y       z     vdW  Elec       q    Type
REMARK                         _______ _______ _______ _____ _____    ______ ____
ROOT
ATOM      1  C   UNL     1       2.992  -1.266   0.482  0.00  0.00    +0.000 C 
ENDROOT
BRANCH   1   2
ATOM      2  C   UNL     1       4.508  -1.272   0.498  0.00  0.00    +0.000 A 
ATOM      3  C   UNL     1       5.256  -0.092   0.468  0.00  0.00    +0.000 A 
ATOM      4  C   UNL     1       6.645  -0.146   0.504  0.00  0.00    +0.000 A 
ATOM      5  C   UNL     1       7.270  -1.387   0.561  0.00  0.00    +0.000 A 
ATOM      6  N   UNL     1       6.570  -2.551   0.576  0.00  0.00    +0.000 NA
ATOM      7  C   UNL     1       5.218  -2.468   0.549  0.00  0.00    +0.000 A 
BRANCH   5   8
ATOM      8  C   UNL     1       8.787  -1.473   0.574  0.00  0.00    +0.000 C 
BRANCH   8   9
ATOM      9  N   UNL     1       9.362  -2.266  -0.524  0.00  0.00    +0.000 NA
ATOM     10  H   UNL     1       8.927  -3.189  -0.479  0.00  0.00    +0.000 HD
BRANCH   9  11
ATOM     11  C   UNL     1       9.066  -1.686  -1.834  0.00  0.00    +0.000 C 
BRANCH  11  12
ATOM     12  C   UNL     1       9.650  -2.523  -2.946  0.00  0.00    +0.000 A 
ATOM     13  C   UNL     1       8.818  -3.116  -3.901  0.00  0.00    +0.000 A 
ATOM     14  C   UNL     1       9.393  -3.875  -4.908  0.00  0.00    +0.000 A 
ATOM     15  N   UNL     1      10.721  -4.081  -5.029  0.00  0.00    +0.000 NA
ATOM     16  C   UNL     1      11.509  -3.503  -4.096  0.00  0.00    +0.000 A 
ATOM     17  C   UNL     1      11.029  -2.723  -3.055  0.00  0.00    +0.000 A 
ENDBRANCH  11  12
ENDBRANCH   9  11
ENDBRANCH   8   9
ENDBRANCH   5   8
ENDBRANCH   1   2
BRANCH   1  18
ATOM     18  N   UNL     1       2.533  -0.710  -0.787  0.00  0.00    +0.000 N 
ATOM     19  C   UNL     1       1.313  -1.039  -1.335  0.00  0.00    +0.000 C 
ATOM     20  O   UNL     1       0.548  -1.835  -0.805  0.00  0.00    +0.000 OA
ATOM     21  H   UNL     1       3.132  -0.058  -1.269  0.00  0.00    +0.000 HD
BRANCH  19  22
ATOM     22  C   UNL     1       0.992  -0.337  -2.581  0.00  0.00    +0.000 A 
ATOM     23  C   UNL     1       1.373   0.969  -2.848  0.00  0.00    +0.000 A 
ATOM     24  S   UNL     1       0.817   1.542  -4.359  0.00  0.00    +0.000 S 
ATOM     25  C   UNL     1       0.032   0.069  -4.694  0.00  0.00    +0.000 A 
ATOM     26  N   UNL     1      -0.660  -0.109  -5.850  0.00  0.00    +0.000 NA
ATOM     27  C   UNL     1      -1.216  -1.268  -5.963  0.00  0.00    +0.000 A 
ATOM     28  N   UNL     1      -1.135  -2.269  -5.025  0.00  0.00    +0.000 N 
ATOM     29  C   UNL     1      -0.390  -2.162  -3.873  0.00  0.00    +0.000 A 
ATOM     30  O   UNL     1      -0.230  -3.134  -3.141  0.00  0.00    +0.000 OA
ATOM     31  C   UNL     1       0.207  -0.853  -3.676  0.00  0.00    +0.000 A 
ATOM     32  H   UNL     1      -1.557  -3.169  -5.189  0.00  0.00    +0.000 HD
ENDBRANCH  19  22
ENDBRANCH   1  18
BRANCH   1  34
ATOM     33  C   UNL     1       2.788  -0.989   3.035  0.00  0.00    +0.000 C 
ATOM     34  C   UNL     1       2.392  -0.465   1.659  0.00  0.00    +0.000 C 
ENDBRANCH   1  34
TORSDOF 8
