REMARK  Name = 
REMARK  9 active torsions:
REMARK  status: ('A' for Active; 'I' for Inactive)
REMARK    1  A    between atoms: C_1  and  O_2
REMARK    2  A    between atoms: O_2  and  C_3
REMARK    3  A    between atoms: C_10  and  C_11
REMARK    4  A    between atoms: N_13  and  C_14
REMARK    5  A    between atoms: C_14  and  C_15
REMARK    6  A    between atoms: C_18  and  C_19
REMARK    7  A    between atoms: C_19  and  S_20
REMARK    8  A    between atoms: S_20  and  C_21
REMARK    9  A    between atoms: C_21  and  C_22
REMARK                            x       y       z     vdW  Elec       q    Type
REMARK                         _______ _______ _______ _____ _____    ______ ____
ROOT
ATOM      1  C   UNL     1       3.115   0.185   3.331  0.00  0.00    +0.000 C 
ENDROOT
BRANCH   1   2
ATOM      2  C   UNL     1       2.005   1.193   3.185  0.00  0.00    +0.000 A 
ATOM      3  C   UNL     1       0.669   0.780   3.117  0.00  0.00    +0.000 A 
ATOM      4  C   UNL     1      -0.359   1.715   2.960  0.00  0.00    +0.000 A 
ATOM      5  C   UNL     1      -0.073   3.084   2.871  0.00  0.00    +0.000 A 
ATOM      6  C   UNL     1       1.268   3.489   2.903  0.00  0.00    +0.000 A 
ATOM      7  C   UNL     1       2.297   2.556   3.058  0.00  0.00    +0.000 A 
BRANCH   5   8
ATOM      8  C   UNL     1      -1.172   4.106   2.708  0.00  0.00    +0.000 C 
BRANCH   8   9
ATOM      9  S   UNL     1      -2.418   4.097   4.037  0.00  0.00    +0.000 S 
BRANCH   9  10
ATOM     10  C   UNL     1      -1.376   4.535   5.475  0.00  0.00    +0.000 C 
BRANCH  10  11
ATOM     11  C   UNL     1      -0.755   5.909   5.398  0.00  0.00    +0.000 A 
ATOM     12  N   UNL     1      -1.475   6.958   5.846  0.00  0.00    +0.000 NA
ATOM     13  C   UNL     1      -0.897   8.171   5.748  0.00  0.00    +0.000 A 
ATOM     14  C   UNL     1       0.356   8.376   5.225  0.00  0.00    +0.000 A 
ATOM     15  C   UNL     1       1.011   7.247   4.799  0.00  0.00    +0.000 A 
ATOM     16  N   UNL     1       0.484   6.012   4.874  0.00  0.00    +0.000 NA
ENDBRANCH  10  11
ENDBRANCH   9  10
ENDBRANCH   8   9
ENDBRANCH   5   8
ENDBRANCH   1   2
BRANCH   1  19
ATOM     17  C   UNL     1       4.541  -1.216   1.900  0.00  0.00    +0.000 C 
ATOM     18  O   UNL     1       5.052  -1.749   2.884  0.00  0.00    +0.000 OA
ATOM     19  N   UNL     1       3.580  -0.253   2.038  0.00  0.00    +0.000 N 
ATOM     20  H   UNL     1       3.195   0.205   1.224  0.00  0.00    +0.000 HD
BRANCH  17  28
ATOM     21  C   UNL     1       3.446  -0.273  -1.230  0.00  0.00    +0.000 A 
ATOM     22  N   UNL     1       3.237  -0.075  -2.547  0.00  0.00    +0.000 NA
ATOM     23  C   UNL     1       3.994  -0.753  -3.413  0.00  0.00    +0.000 A 
ATOM     24  N   UNL     1       4.955  -1.625  -3.123  0.00  0.00    +0.000 NA
ATOM     25  C   UNL     1       5.139  -1.786  -1.802  0.00  0.00    +0.000 A 
ATOM     26  S   UNL     1       6.325  -2.868  -1.249  0.00  0.00    +0.000 S 
ATOM     27  C   UNL     1       5.956  -2.520   0.372  0.00  0.00    +0.000 A 
ATOM     28  C   UNL     1       4.939  -1.585   0.531  0.00  0.00    +0.000 A 
ATOM     29  C   UNL     1       4.446  -1.152  -0.775  0.00  0.00    +0.000 A 
BRANCH  21  31
ATOM     30  C   UNL     1       1.424   0.850  -0.878  0.00  0.00    +0.000 C 
ATOM     31  O   UNL     1       2.681   0.448  -0.337  0.00  0.00    +0.000 OA
ENDBRANCH  21  31
ENDBRANCH  17  28
ENDBRANCH   1  19
TORSDOF 8
