REMARK  Name = 
REMARK  8 active torsions:
REMARK  status: ('A' for Active; 'I' for Inactive)
REMARK    1  A    between atoms: C_2  and  O_3
REMARK    2  A    between atoms: C_2  and  C_20
REMARK    3  A    between atoms: O_3  and  C_4
REMARK    4  A    between atoms: C_4  and  C_5
REMARK    5  A    between atoms: C_8  and  C_9
REMARK    6  A    between atoms: C_9  and  N_10
REMARK    7  A    between atoms: N_10  and  C_11
REMARK    8  A    between atoms: C_11  and  C_12
REMARK                            x       y       z     vdW  Elec       q    Type
REMARK                         _______ _______ _______ _____ _____    ______ ____
ROOT
ATOM      1  C   UNL     1       4.951  -0.618   2.605  0.00  0.00    +0.000 C 
ATOM      2  C   UNL     1       4.467  -2.048   2.887  0.00  0.00    +0.000 C 
ATOM      3  C   UNL     1       4.628  -2.467   4.349  0.00  0.00    +0.000 C 
ATOM      4  C   UNL     1       3.961  -1.488   5.330  0.00  0.00    +0.000 C 
ATOM      5  C   UNL     1       4.492  -0.067   5.077  0.00  0.00    +0.000 C 
ATOM      6  C   UNL     1       4.391   0.391   3.624  0.00  0.00    +0.000 C 
ENDROOT
BRANCH   1   7
ATOM      7  C   UNL     1       6.484  -0.573   2.488  0.00  0.00    +0.000 C 
BRANCH   7   8
ATOM      8  O   UNL     1       6.964   0.765   2.283  0.00  0.00    +0.000 OA
BRANCH   8  10
ATOM      9  O   UNL     1       6.498   0.645   0.052  0.00  0.00    +0.000 OA
ATOM     10  C   UNL     1       6.986   1.232   1.010  0.00  0.00    +0.000 C 
BRANCH  10  11
ATOM     11  C   UNL     1       7.615   2.549   0.894  0.00  0.00    +0.000 A 
ATOM     12  C   UNL     1       7.317   3.390  -0.169  0.00  0.00    +0.000 A 
ATOM     13  S   UNL     1       8.175   4.866  -0.124  0.00  0.00    +0.000 S 
ATOM     14  C   UNL     1       8.939   4.442   1.339  0.00  0.00    +0.000 A 
ATOM     15  N   UNL     1       9.799   5.301   1.948  0.00  0.00    +0.000 NA
ATOM     16  C   UNL     1      10.285   4.862   3.066  0.00  0.00    +0.000 A 
ATOM     17  N   UNL     1       9.996   3.641   3.613  0.00  0.00    +0.000 N 
ATOM     18  C   UNL     1       9.217   2.698   2.981  0.00  0.00    +0.000 A 
ATOM     19  O   UNL     1       9.144   1.558   3.428  0.00  0.00    +0.000 OA
ATOM     20  C   UNL     1       8.578   3.176   1.767  0.00  0.00    +0.000 A 
ATOM     21  H   UNL     1      10.441   3.336   4.466  0.00  0.00    +0.000 HD
ENDBRANCH  10  11
ENDBRANCH   8  10
ENDBRANCH   7   8
ENDBRANCH   1   7
BRANCH   4  22
ATOM     22  C   UNL     1       2.411  -1.575   5.314  0.00  0.00    +0.000 C 
BRANCH  22  23
ATOM     23  N   UNL     1       2.006  -2.923   5.716  0.00  0.00    +0.000 NA
ATOM     24  H   UNL     1       2.399  -3.144   6.630  0.00  0.00    +0.000 HD
BRANCH  23  25
ATOM     25  C   UNL     1       0.560  -3.135   5.762  0.00  0.00    +0.000 C 
BRANCH  25  26
ATOM     26  C   UNL     1       0.268  -4.558   6.174  0.00  0.00    +0.000 A 
ATOM     27  C   UNL     1       0.759  -5.646   5.441  0.00  0.00    +0.000 A 
ATOM     28  C   UNL     1       0.521  -6.946   5.877  0.00  0.00    +0.000 A 
ATOM     29  C   UNL     1      -0.213  -7.122   7.037  0.00  0.00    +0.000 A 
ATOM     30  N   UNL     1      -0.726  -6.104   7.762  0.00  0.00    +0.000 NA
ATOM     31  C   UNL     1      -0.477  -4.851   7.312  0.00  0.00    +0.000 A 
ENDBRANCH  25  26
ENDBRANCH  23  25
ENDBRANCH  22  23
ENDBRANCH   4  22
TORSDOF 8
