REMARK  Name = 
REMARK  10 active torsions:
REMARK  status: ('A' for Active; 'I' for Inactive)
REMARK    1  A    between atoms: C_1  and  C_2
REMARK    2  A    between atoms: C_2  and  C_3
REMARK    3  A    between atoms: C_2  and  C_4
REMARK    4  A    between atoms: C_2  and  C_5
REMARK    5  A    between atoms: C_7  and  O_8
REMARK    6  A    between atoms: O_8  and  C_9
REMARK    7  A    between atoms: C_9  and  C_10
REMARK    8  A    between atoms: C_13  and  C_14
REMARK    9  A    between atoms: C_14  and  N_15
REMARK   10  A    between atoms: C_19  and  C_20
REMARK                            x       y       z     vdW  Elec       q    Type
REMARK                         _______ _______ _______ _____ _____    ______ ____
ROOT
ATOM      1  C   UNL     1       3.039  -1.294   0.513  0.00  0.00    +0.000 A 
ATOM      2  C   UNL     1       2.406  -2.450   0.020  0.00  0.00    +0.000 A 
ATOM      3  C   UNL     1       2.830  -3.711   0.444  0.00  0.00    +0.000 A 
ATOM      4  N   UNL     1       3.846  -3.905   1.300  0.00  0.00    +0.000 NA
ATOM      5  C   UNL     1       4.470  -2.790   1.750  0.00  0.00    +0.000 A 
ATOM      6  C   UNL     1       4.111  -1.490   1.391  0.00  0.00    +0.000 A 
ENDROOT
BRANCH   5   7
ATOM      7  C   UNL     1       5.607  -3.005   2.695  0.00  0.00    +0.000 C 
ATOM      8  N   UNL     1       5.878  -4.312   3.007  0.00  0.00    +0.000 N 
ATOM      9  O   UNL     1       6.258  -2.085   3.168  0.00  0.00    +0.000 OA
ATOM     10  H   UNL     1       5.323  -5.056   2.601  0.00  0.00    +0.000 HD
ATOM     11  H   UNL     1       6.633  -4.520   3.642  0.00  0.00    +0.000 HD
ENDBRANCH   5   7
BRANCH   1  13
ATOM     12  C   UNL     1       1.090   0.317   0.485  0.00  0.00    +0.000 C 
ATOM     13  C   UNL     1       2.568   0.108   0.090  0.00  0.00    +0.000 C 
ATOM     14  C   UNL     1       2.708   0.249  -1.439  0.00  0.00    +0.000 C 
ATOM     15  C   UNL     1       3.374   1.250   0.753  0.00  0.00    +0.000 C 
ENDBRANCH   1  13
BRANCH   3  16
ATOM     16  O   UNL     1       2.156  -4.810  -0.045  0.00  0.00    +0.000 OA
BRANCH  16  17
ATOM     17  C   UNL     1       2.664  -6.046   0.474  0.00  0.00    +0.000 C 
BRANCH  17  18
ATOM     18  C   UNL     1       1.878  -7.191  -0.103  0.00  0.00    +0.000 A 
ATOM     19  C   UNL     1       2.492  -8.199  -0.848  0.00  0.00    +0.000 A 
ATOM     20  C   UNL     1       1.727  -9.246  -1.360  0.00  0.00    +0.000 A 
ATOM     21  C   UNL     1       0.355  -9.261  -1.121  0.00  0.00    +0.000 A 
ATOM     22  N   UNL     1      -0.261  -8.298  -0.389  0.00  0.00    +0.000 NA
ATOM     23  C   UNL     1       0.508  -7.297   0.102  0.00  0.00    +0.000 A 
BRANCH  21  24
ATOM     24  C   UNL     1      -0.507 -10.386  -1.656  0.00  0.00    +0.000 C 
BRANCH  24  25
ATOM     25  N   UNL     1      -0.489 -10.500  -3.119  0.00  0.00    +0.000 NA
ATOM     26  H   UNL     1      -0.888  -9.643  -3.505  0.00  0.00    +0.000 HD
ATOM     27  H   UNL     1      -1.127 -11.247  -3.389  0.00  0.00    +0.000 HD
ENDBRANCH  24  25
ENDBRANCH  21  24
ENDBRANCH  17  18
ENDBRANCH  16  17
ENDBRANCH   3  16
TORSDOF 7
