REMARK  Name = 
REMARK  5 active torsions:
REMARK  status: ('A' for Active; 'I' for Inactive)
REMARK    1  A    between atoms: C_2  and  C_4
REMARK    2  A    between atoms: C_7  and  S_8
REMARK    3  A    between atoms: S_8  and  C_9
REMARK    4  A    between atoms: C_9  and  C_10
REMARK    5  A    between atoms: C_14  and  C_15
REMARK                            x       y       z     vdW  Elec       q    Type
REMARK                         _______ _______ _______ _____ _____    ______ ____
ROOT
ATOM      1  C   UNL     1       5.452  -4.689   3.941  0.00  0.00    +0.000 C 
ENDROOT
BRANCH   1   2
ATOM      2  C   UNL     1       6.315  -5.522   4.856  0.00  0.00    +0.000 A 
ATOM      3  C   UNL     1       6.141  -6.901   4.900  0.00  0.00    +0.000 A 
ATOM      4  N   UNL     1       6.813  -7.725   5.732  0.00  0.00    +0.000 NA
ATOM      5  C   UNL     1       7.701  -7.144   6.578  0.00  0.00    +0.000 A 
ATOM      6  C   UNL     1       7.969  -5.778   6.651  0.00  0.00    +0.000 A 
ATOM      7  C   UNL     1       7.233  -4.974   5.765  0.00  0.00    +0.000 A 
BRANCH   6   8
ATOM      8  C   UNL     1       8.959  -5.205   7.591  0.00  0.00    +0.000 A 
ATOM      9  C   UNL     1      10.124  -5.909   7.957  0.00  0.00    +0.000 A 
ATOM     10  C   UNL     1      11.065  -5.355   8.832  0.00  0.00    +0.000 A 
ATOM     11  C   UNL     1      10.861  -4.083   9.345  0.00  0.00    +0.000 A 
ATOM     12  F   UNL     1      11.767  -3.549  10.174  0.00  0.00    +0.000 F 
ATOM     13  C   UNL     1       9.728  -3.359   9.009  0.00  0.00    +0.000 A 
ATOM     14  C   UNL     1       8.783  -3.920   8.145  0.00  0.00    +0.000 A 
ENDBRANCH   6   8
ENDBRANCH   1   2
BRANCH   1  15
ATOM     15  S   UNL     1       6.290  -3.233   3.223  0.00  0.00    +0.000 S 
BRANCH  15  19
ATOM     16  C   UNL     1       2.837  -1.371   0.948  0.00  0.00    +0.000 A 
ATOM     17  C   UNL     1       4.068  -0.716   0.966  0.00  0.00    +0.000 A 
ATOM     18  C   UNL     1       5.132  -1.287   1.669  0.00  0.00    +0.000 A 
ATOM     19  C   UNL     1       4.937  -2.499   2.328  0.00  0.00    +0.000 A 
ATOM     20  N   UNL     1       3.751  -3.146   2.322  0.00  0.00    +0.000 NA
ATOM     21  C   UNL     1       2.729  -2.567   1.644  0.00  0.00    +0.000 A 
BRANCH  16  23
ATOM     22  N   UNL     1       1.830  -0.012  -0.801  0.00  0.00    +0.000 N 
ATOM     23  C   UNL     1       1.638  -0.848   0.261  0.00  0.00    +0.000 C 
ATOM     24  O   UNL     1       0.512  -1.176   0.613  0.00  0.00    +0.000 OA
ATOM     25  H   UNL     1       0.997   0.246  -1.319  0.00  0.00    +0.000 HD
ATOM     26  H   UNL     1       2.718   0.080  -1.275  0.00  0.00    +0.000 HD
ENDBRANCH  16  23
ENDBRANCH  15  19
ENDBRANCH   1  15
TORSDOF 5
