REMARK  Name = 
REMARK  12 active torsions:
REMARK  status: ('A' for Active; 'I' for Inactive)
REMARK    1  A    between atoms: C_1  and  N_2
REMARK    2  A    between atoms: N_2  and  C_3
REMARK    3  A    between atoms: N_2  and  C_4
REMARK    4  A    between atoms: C_4  and  C_5
REMARK    5  A    between atoms: C_5  and  N_6
REMARK    6  A    between atoms: C_7  and  C_9
REMARK    7  A    between atoms: C_12  and  O_13
REMARK    8  A    between atoms: O_13  and  C_14
REMARK    9  A    between atoms: C_14  and  C_15
REMARK   10  A    between atoms: C_15  and  C_16
REMARK   11  A    between atoms: C_15  and  C_17
REMARK   12  A    between atoms: C_15  and  C_18
REMARK                            x       y       z     vdW  Elec       q    Type
REMARK                         _______ _______ _______ _____ _____    ______ ____
ROOT
ATOM      1  C   UNL     1       6.948  -3.380   2.629  0.00  0.00    +0.000 A 
ATOM      2  C   UNL     1       6.338  -4.636   2.581  0.00  0.00    +0.000 A 
ATOM      3  C   UNL     1       6.924  -5.729   3.229  0.00  0.00    +0.000 A 
ATOM      4  C   UNL     1       8.125  -5.579   3.929  0.00  0.00    +0.000 A 
ATOM      5  C   UNL     1       8.722  -4.318   3.994  0.00  0.00    +0.000 A 
ATOM      6  C   UNL     1       8.143  -3.224   3.345  0.00  0.00    +0.000 A 
ENDROOT
BRANCH   1   8
ATOM      7  N   UNL     1       5.087  -2.193   1.551  0.00  0.00    +0.000 N 
ATOM      8  C   UNL     1       6.430  -2.222   1.850  0.00  0.00    +0.000 C 
ATOM      9  O   UNL     1       7.207  -1.338   1.498  0.00  0.00    +0.000 OA
ATOM     10  H   UNL     1       4.431  -2.751   2.090  0.00  0.00    +0.000 HD
BRANCH   7  11
ATOM     11  C   UNL     1       4.554  -1.073   0.803  0.00  0.00    +0.000 C 
BRANCH  11  12
ATOM     12  C   UNL     1       3.027  -1.128   0.609  0.00  0.00    +0.000 C 
BRANCH  12  14
ATOM     13  C   UNL     1       2.467   0.065   2.654  0.00  0.00    +0.000 C 
ATOM     14  N   UNL     1       2.252  -1.157   1.870  0.00  0.00    +0.000 NA
ATOM     15  C   UNL     1       0.820  -1.285   1.572  0.00  0.00    +0.000 C 
ENDBRANCH  12  14
ENDBRANCH  11  12
ENDBRANCH   7  11
ENDBRANCH   1   8
BRANCH   4  16
ATOM     16  O   UNL     1       8.810  -6.576   4.569  0.00  0.00    +0.000 OA
BRANCH  16  17
ATOM     17  C   UNL     1       8.256  -7.896   4.500  0.00  0.00    +0.000 C 
BRANCH  17  18
ATOM     18  C   UNL     1       9.169  -8.912   5.252  0.00  0.00    +0.000 C 
ATOM     19  C   UNL     1      10.566  -8.891   4.585  0.00  0.00    +0.000 C 
ATOM     20  C   UNL     1       9.359  -8.459   6.717  0.00  0.00    +0.000 C 
BRANCH  18  21
ATOM     21  C   UNL     1       8.519 -10.306   5.235  0.00  0.00    +0.000 A 
ATOM     22  C   UNL     1       9.117 -11.431   4.652  0.00  0.00    +0.000 A 
ATOM     23  C   UNL     1       8.477 -12.670   4.679  0.00  0.00    +0.000 A 
ATOM     24  C   UNL     1       7.242 -12.759   5.290  0.00  0.00    +0.000 A 
ATOM     25  N   UNL     1       6.620 -11.712   5.864  0.00  0.00    +0.000 NA
ATOM     26  C   UNL     1       7.270 -10.524   5.828  0.00  0.00    +0.000 A 
ENDBRANCH  18  21
ENDBRANCH  17  18
ENDBRANCH  16  17
ENDBRANCH   4  16
TORSDOF 8
