REMARK  Name = 
REMARK  8 active torsions:
REMARK  status: ('A' for Active; 'I' for Inactive)
REMARK    1  A    between atoms: C_1  and  C_2
REMARK    2  A    between atoms: C_5  and  O_6
REMARK    3  A    between atoms: O_6  and  C_7
REMARK    4  A    between atoms: C_7  and  C_8
REMARK    5  A    between atoms: C_8  and  C_9
REMARK    6  A    between atoms: C_8  and  C_10
REMARK    7  A    between atoms: C_14  and  O_15
REMARK    8  A    between atoms: O_15  and  C_16
REMARK                            x       y       z     vdW  Elec       q    Type
REMARK                         _______ _______ _______ _____ _____    ______ ____
ROOT
ATOM      1  C   UNL     1       4.803   3.958   0.077  0.00  0.00    +0.000 A 
ATOM      2  C   UNL     1       5.516   5.167   0.045  0.00  0.00    +0.000 A 
ATOM      3  C   UNL     1       6.909   5.188   0.133  0.00  0.00    +0.000 A 
ATOM      4  C   UNL     1       7.626   3.999   0.255  0.00  0.00    +0.000 A 
ATOM      5  C   UNL     1       6.948   2.788   0.268  0.00  0.00    +0.000 A 
ATOM      6  C   UNL     1       5.550   2.767   0.180  0.00  0.00    +0.000 A 
ENDROOT
BRANCH   1   7
ATOM      7  C   UNL     1       3.277   3.890  -0.016  0.00  0.00    +0.000 C 
ATOM      8  C   UNL     1       2.688   3.220   1.236  0.00  0.00    +0.000 C 
BRANCH   7   9
ATOM      9  C   UNL     1       2.564   5.247  -0.215  0.00  0.00    +0.000 C 
BRANCH   9  10
ATOM     10  O   UNL     1       2.908   5.790  -1.493  0.00  0.00    +0.000 OA
BRANCH  10  15
ATOM     11  C   UNL     1       0.948  10.003  -0.381  0.00  0.00    +0.000 C 
ATOM     12  C   UNL     1       1.716   9.062  -1.232  0.00  0.00    +0.000 A 
ATOM     13  C   UNL     1       2.289   9.328  -2.462  0.00  0.00    +0.000 A 
ATOM     14  S   UNL     1       3.060   7.920  -3.066  0.00  0.00    +0.000 S 
ATOM     15  C   UNL     1       2.578   7.071  -1.661  0.00  0.00    +0.000 A 
ATOM     16  N   UNL     1       1.893   7.765  -0.780  0.00  0.00    +0.000 NA
ENDBRANCH  10  15
ENDBRANCH   9  10
ENDBRANCH   7   9
ENDBRANCH   1   7
BRANCH   5  17
ATOM     17  O   UNL     1       7.557   1.563   0.394  0.00  0.00    +0.000 OA
BRANCH  17  18
ATOM     18  C   UNL     1       8.958   1.452   0.047  0.00  0.00    +0.000 C 
ATOM     19  C   UNL     1       9.334   1.570  -1.444  0.00  0.00    +0.000 C 
ATOM     20  N   UNL     1      10.096   0.314  -1.366  0.00  0.00    +0.000 NA
ATOM     21  C   UNL     1       9.497   0.013  -0.056  0.00  0.00    +0.000 C 
ATOM     22  H   UNL     1      11.107   0.441  -1.342  0.00  0.00    +0.000 HD
ENDBRANCH  17  18
ENDBRANCH   5  17
TORSDOF 6
