REMARK  Name = 
REMARK  7 active torsions:
REMARK  status: ('A' for Active; 'I' for Inactive)
REMARK    1  A    between atoms: C_1  and  O_2
REMARK    2  A    between atoms: O_2  and  C_3
REMARK    3  A    between atoms: C_6  and  C_7
REMARK    4  A    between atoms: C_11  and  C_12
REMARK    5  A    between atoms: C_12  and  C_13
REMARK    6  A    between atoms: C_13  and  N_14
REMARK    7  A    between atoms: C_18  and  C_19
REMARK                            x       y       z     vdW  Elec       q    Type
REMARK                         _______ _______ _______ _____ _____    ______ ____
ROOT
ATOM      1  C   UNL     1       7.199   5.037   5.379  0.00  0.00    +0.000 C 
ENDROOT
BRANCH   1   6
ATOM      2  C   UNL     1       5.307   1.831   4.309  0.00  0.00    +0.000 A 
ATOM      3  C   UNL     1       5.807   0.936   5.265  0.00  0.00    +0.000 A 
ATOM      4  C   UNL     1       6.693   1.363   6.260  0.00  0.00    +0.000 A 
ATOM      5  C   UNL     1       7.125   2.690   6.302  0.00  0.00    +0.000 A 
ATOM      6  C   UNL     1       6.654   3.616   5.368  0.00  0.00    +0.000 A 
ATOM      7  C   UNL     1       5.717   3.173   4.416  0.00  0.00    +0.000 A 
BRANCH   2  11
ATOM      8  C   UNL     1       3.025   0.581   0.951  0.00  0.00    +0.000 A 
ATOM      9  C   UNL     1       2.848  -0.105   2.140  0.00  0.00    +0.000 A 
ATOM     10  C   UNL     1       3.563   0.314   3.266  0.00  0.00    +0.000 A 
ATOM     11  C   UNL     1       4.453   1.392   3.183  0.00  0.00    +0.000 A 
ATOM     12  C   UNL     1       4.526   2.012   1.930  0.00  0.00    +0.000 A 
ATOM     13  N   UNL     1       3.835   1.647   0.826  0.00  0.00    +0.000 NA
BRANCH   8  15
ATOM     14  C   UNL     1       2.621   0.876  -1.326  0.00  0.00    +0.000 C 
ATOM     15  O   UNL     1       2.348   0.110  -0.154  0.00  0.00    +0.000 OA
ENDBRANCH   8  15
ENDBRANCH   2  11
ENDBRANCH   1   6
BRANCH   1  16
ATOM     16  C   UNL     1       6.637   5.932   4.267  0.00  0.00    +0.000 C 
BRANCH  16  17
ATOM     17  N   UNL     1       7.212   7.278   4.260  0.00  0.00    +0.000 N 
ATOM     18  C   UNL     1       6.667   8.056   3.211  0.00  0.00    +0.000 A 
ATOM     19  C   UNL     1       7.109   9.363   3.043  0.00  0.00    +0.000 A 
ATOM     20  C   UNL     1       6.567  10.144   2.018  0.00  0.00    +0.000 A 
ATOM     21  C   UNL     1       5.594   9.609   1.172  0.00  0.00    +0.000 A 
ATOM     22  C   UNL     1       5.203   8.305   1.418  0.00  0.00    +0.000 A 
ATOM     23  N   UNL     1       5.713   7.534   2.409  0.00  0.00    +0.000 NA
ATOM     24  H   UNL     1       8.223   7.266   4.153  0.00  0.00    +0.000 HD
BRANCH  21  25
ATOM     25  C   UNL     1       5.029  10.436   0.080  0.00  0.00    +0.000 C 
ATOM     26  N   UNL     1       4.094   9.894  -0.757  0.00  0.00    +0.000 N 
ATOM     27  O   UNL     1       5.394  11.594  -0.088  0.00  0.00    +0.000 OA
ATOM     28  H   UNL     1       3.730   8.954  -0.720  0.00  0.00    +0.000 HD
ATOM     29  H   UNL     1       3.744  10.499  -1.490  0.00  0.00    +0.000 HD
ENDBRANCH  21  25
ENDBRANCH  16  17
ENDBRANCH   1  16
TORSDOF 6
