REMARK  Name = 
REMARK  3 active torsions:
REMARK  status: ('A' for Active; 'I' for Inactive)
REMARK    1  A    between atoms: C_2  and  C_4
REMARK    2  A    between atoms: N_8  and  C_9
REMARK    3  A    between atoms: C_9  and  C_10
REMARK                            x       y       z     vdW  Elec       q    Type
REMARK                         _______ _______ _______ _____ _____    ______ ____
ROOT
ATOM      1  C   UNL     1       3.168  -1.261   0.032  0.00  0.00    +0.000 A 
ATOM      2  C   UNL     1       4.479  -1.449   0.388  0.00  0.00    +0.000 A 
ATOM      3  N   UNL     1       5.189  -2.546   0.060  0.00  0.00    +0.000 NA
ATOM      4  C   UNL     1       4.562  -3.501  -0.648  0.00  0.00    +0.000 A 
ATOM      5  N   UNL     1       5.277  -4.604  -1.066  0.00  0.00    +0.000 N 
ATOM      6  N   UNL     1       3.281  -3.420  -1.026  0.00  0.00    +0.000 NA
ATOM      7  C   UNL     1       2.601  -2.300  -0.667  0.00  0.00    +0.000 A 
ATOM      8  H   UNL     1       4.642  -5.300  -1.434  0.00  0.00    +0.000 HD
ENDROOT
BRANCH   1  10
ATOM      9  N   UNL     1       3.085   1.104   0.565  0.00  0.00    +0.000 N 
ATOM     10  C   UNL     1       2.398  -0.067   0.397  0.00  0.00    +0.000 C 
ATOM     11  O   UNL     1       1.183  -0.116   0.520  0.00  0.00    +0.000 OA
ATOM     12  H   UNL     1       2.525   1.933   0.731  0.00  0.00    +0.000 HD
ATOM     13  H   UNL     1       4.029   1.251   0.234  0.00  0.00    +0.000 HD
ENDBRANCH   1  10
BRANCH   5  14
ATOM     14  C   UNL     1       6.276  -5.088  -0.135  0.00  0.00    +0.000 C 
BRANCH  14  15
ATOM     15  C   UNL     1       7.332  -5.842  -0.902  0.00  0.00    +0.000 A 
ATOM     16  C   UNL     1       8.041  -5.201  -1.925  0.00  0.00    +0.000 A 
ATOM     17  C   UNL     1       9.013  -5.908  -2.608  0.00  0.00    +0.000 A 
ATOM     18  N   UNL     1       9.333  -7.191  -2.337  0.00  0.00    +0.000 NA
ATOM     19  C   UNL     1       8.645  -7.789  -1.340  0.00  0.00    +0.000 A 
ATOM     20  C   UNL     1       7.651  -7.167  -0.600  0.00  0.00    +0.000 A 
ENDBRANCH  14  15
ENDBRANCH   5  14
TORSDOF 3
