REMARK  Name = 
REMARK  5 active torsions:
REMARK  status: ('A' for Active; 'I' for Inactive)
REMARK    1  A    between atoms: C_2  and  C_4
REMARK    2  A    between atoms: C_8  and  O_9
REMARK    3  A    between atoms: O_9  and  C_10
REMARK    4  A    between atoms: C_10  and  C_11
REMARK    5  A    between atoms: C_15  and  C_16
REMARK                            x       y       z     vdW  Elec       q    Type
REMARK                         _______ _______ _______ _____ _____    ______ ____
ROOT
ATOM      1  C   UNL     1       7.382   1.570   3.446  0.00  0.00    +0.000 C 
ENDROOT
BRANCH   1   2
ATOM      2  C   UNL     1       8.718   2.133   3.059  0.00  0.00    +0.000 A 
ATOM      3  C   UNL     1       9.790   1.301   2.774  0.00  0.00    +0.000 A 
ATOM      4  N   UNL     1      11.021   1.748   2.456  0.00  0.00    +0.000 NA
ATOM      5  C   UNL     1      11.186   3.093   2.403  0.00  0.00    +0.000 A 
ATOM      6  C   UNL     1      10.189   4.041   2.652  0.00  0.00    +0.000 A 
ATOM      7  C   UNL     1       8.929   3.516   2.977  0.00  0.00    +0.000 A 
BRANCH   6   8
ATOM      8  C   UNL     1      10.445   5.498   2.602  0.00  0.00    +0.000 A 
ATOM      9  C   UNL     1       9.447   6.407   2.194  0.00  0.00    +0.000 A 
ATOM     10  C   UNL     1       9.678   7.786   2.176  0.00  0.00    +0.000 A 
ATOM     11  C   UNL     1      10.919   8.276   2.553  0.00  0.00    +0.000 A 
ATOM     12  F   UNL     1      11.142   9.596   2.537  0.00  0.00    +0.000 F 
ATOM     13  C   UNL     1      11.930   7.415   2.949  0.00  0.00    +0.000 A 
ATOM     14  C   UNL     1      11.692   6.037   2.978  0.00  0.00    +0.000 A 
ENDBRANCH   6   8
ENDBRANCH   1   2
BRANCH   1  15
ATOM     15  O   UNL     1       6.601   1.367   2.271  0.00  0.00    +0.000 OA
BRANCH  15  20
ATOM     16  C   UNL     1       3.377  -0.014   1.330  0.00  0.00    +0.000 A 
ATOM     17  C   UNL     1       2.807  -0.332   2.569  0.00  0.00    +0.000 A 
ATOM     18  C   UNL     1       3.515  -0.087   3.742  0.00  0.00    +0.000 A 
ATOM     19  C   UNL     1       4.790   0.480   3.686  0.00  0.00    +0.000 A 
ATOM     20  C   UNL     1       5.362   0.811   2.456  0.00  0.00    +0.000 A 
ATOM     21  C   UNL     1       4.647   0.572   1.280  0.00  0.00    +0.000 A 
BRANCH  16  23
ATOM     22  N   UNL     1       3.314  -0.540  -1.043  0.00  0.00    +0.000 N 
ATOM     23  C   UNL     1       2.601  -0.308   0.099  0.00  0.00    +0.000 C 
ATOM     24  O   UNL     1       1.378  -0.387   0.112  0.00  0.00    +0.000 OA
ATOM     25  H   UNL     1       2.786  -0.845  -1.850  0.00  0.00    +0.000 HD
ATOM     26  H   UNL     1       4.308  -0.722  -1.036  0.00  0.00    +0.000 HD
ENDBRANCH  16  23
ENDBRANCH  15  20
ENDBRANCH   1  15
TORSDOF 5
