REMARK  Name = 
REMARK  4 active torsions:
REMARK  status: ('A' for Active; 'I' for Inactive)
REMARK    1  A    between atoms: C_2  and  C_4
REMARK    2  A    between atoms: N_8  and  C_9
REMARK    3  A    between atoms: C_9  and  C_10
REMARK    4  A    between atoms: C_14  and  C_15
REMARK                            x       y       z     vdW  Elec       q    Type
REMARK                         _______ _______ _______ _____ _____    ______ ____
ROOT
ATOM      1  C   UNL     1       5.181  -5.170  -2.733  0.00  0.00    +0.000 C 
ATOM      2  C   UNL     1       5.295  -4.857  -4.221  0.00  0.00    +0.000 C 
ATOM      3  C   UNL     1       3.987  -5.301  -3.658  0.00  0.00    +0.000 C 
ENDROOT
BRANCH   1   8
ATOM      4  C   UNL     1       3.274  -2.999   1.590  0.00  0.00    +0.000 A 
ATOM      5  C   UNL     1       2.572  -3.563   0.529  0.00  0.00    +0.000 A 
ATOM      6  C   UNL     1       3.264  -3.948  -0.622  0.00  0.00    +0.000 A 
ATOM      7  C   UNL     1       4.638  -3.753  -0.695  0.00  0.00    +0.000 A 
ATOM      8  N   UNL     1       5.388  -4.007  -1.849  0.00  0.00    +0.000 N 
ATOM      9  N   UNL     1       5.329  -3.206   0.328  0.00  0.00    +0.000 NA
ATOM     10  C   UNL     1       4.642  -2.840   1.441  0.00  0.00    +0.000 A 
ATOM     11  H   UNL     1       6.355  -3.841  -1.573  0.00  0.00    +0.000 HD
BRANCH   4  13
ATOM     12  N   UNL     1       1.431  -3.096   3.173  0.00  0.00    +0.000 N 
ATOM     13  C   UNL     1       2.628  -2.528   2.832  0.00  0.00    +0.000 C 
ATOM     14  O   UNL     1       3.151  -1.682   3.544  0.00  0.00    +0.000 OA
ATOM     15  H   UNL     1       1.054  -2.832   4.076  0.00  0.00    +0.000 HD
ATOM     16  H   UNL     1       1.102  -3.959   2.767  0.00  0.00    +0.000 HD
ENDBRANCH   4  13
ENDBRANCH   1   8
BRANCH   1  17
ATOM     17  C   UNL     1       5.830  -6.445  -2.200  0.00  0.00    +0.000 A 
ATOM     18  C   UNL     1       7.131  -6.823  -2.566  0.00  0.00    +0.000 A 
ATOM     19  C   UNL     1       7.753  -7.928  -1.988  0.00  0.00    +0.000 A 
ATOM     20  C   UNL     1       7.091  -8.670  -1.010  0.00  0.00    +0.000 A 
ATOM     21  C   UNL     1       5.794  -8.331  -0.594  0.00  0.00    +0.000 A 
ATOM     22  C   UNL     1       5.178  -7.234  -1.229  0.00  0.00    +0.000 A 
BRANCH  21  23
ATOM     23  C   UNL     1       5.126  -9.042   0.518  0.00  0.00    +0.000 A 
ATOM     24  C   UNL     1       5.844  -9.453   1.651  0.00  0.00    +0.000 A 
ATOM     25  C   UNL     1       5.182 -10.074   2.697  0.00  0.00    +0.000 A 
ATOM     26  N   UNL     1       3.856 -10.315   2.706  0.00  0.00    +0.000 NA
ATOM     27  C   UNL     1       3.171  -9.920   1.614  0.00  0.00    +0.000 A 
ATOM     28  C   UNL     1       3.746  -9.299   0.517  0.00  0.00    +0.000 A 
ENDBRANCH  21  23
ENDBRANCH   1  17
TORSDOF 4
