REMARK  Name = 
REMARK  3 active torsions:
REMARK  status: ('A' for Active; 'I' for Inactive)
REMARK    1  A    between atoms: C_2  and  C_4
REMARK    2  A    between atoms: N_8  and  C_9
REMARK    3  A    between atoms: C_9  and  C_10
REMARK                            x       y       z     vdW  Elec       q    Type
REMARK                         _______ _______ _______ _____ _____    ______ ____
ROOT
ATOM      1  C   UNL     1       2.812   0.484   2.533  0.00  0.00    +0.000 A 
ATOM      2  C   UNL     1       3.864   0.186   1.675  0.00  0.00    +0.000 A 
ATOM      3  C   UNL     1       4.774  -0.799   2.047  0.00  0.00    +0.000 A 
ATOM      4  C   UNL     1       4.609  -1.478   3.257  0.00  0.00    +0.000 A 
ATOM      5  N   UNL     1       5.544  -2.502   3.534  0.00  0.00    +0.000 N 
ATOM      6  N   UNL     1       3.600  -1.188   4.101  0.00  0.00    +0.000 NA
ATOM      7  C   UNL     1       2.738  -0.204   3.735  0.00  0.00    +0.000 A 
ATOM      8  H   UNL     1       6.477  -2.118   3.455  0.00  0.00    +0.000 HD
ENDROOT
BRANCH   1  10
ATOM      9  N   UNL     1       1.531   1.730   0.890  0.00  0.00    +0.000 N 
ATOM     10  C   UNL     1       1.788   1.500   2.213  0.00  0.00    +0.000 C 
ATOM     11  O   UNL     1       1.173   2.086   3.093  0.00  0.00    +0.000 OA
ATOM     12  H   UNL     1       0.755   2.345   0.689  0.00  0.00    +0.000 HD
ATOM     13  H   UNL     1       1.821   1.091   0.165  0.00  0.00    +0.000 HD
ENDBRANCH   1  10
BRANCH   5  14
ATOM     14  C   UNL     1       5.323  -3.546   4.555  0.00  0.00    +0.000 C 
ATOM     15  C   UNL     1       5.119  -4.933   3.954  0.00  0.00    +0.000 C 
ATOM     16  C   UNL     1       3.984  -4.258   4.649  0.00  0.00    +0.000 C 
BRANCH  14  17
ATOM     17  C   UNL     1       6.138  -3.468   5.862  0.00  0.00    +0.000 C 
ATOM     18  C   UNL     1       5.862  -2.203   6.678  0.00  0.00    +0.000 C 
ATOM     19  C   UNL     1       6.651  -0.990   6.191  0.00  0.00    +0.000 C 
ATOM     20  N   UNL     1       8.091  -1.251   6.103  0.00  0.00    +0.000 NA
ATOM     21  C   UNL     1       8.407  -2.408   5.273  0.00  0.00    +0.000 C 
ATOM     22  C   UNL     1       7.650  -3.668   5.682  0.00  0.00    +0.000 C 
ATOM     23  H   UNL     1       8.448  -1.408   7.044  0.00  0.00    +0.000 HD
ENDBRANCH  14  17
ENDBRANCH   5  14
TORSDOF 3
