REMARK  Name = 
REMARK  8 active torsions:
REMARK  status: ('A' for Active; 'I' for Inactive)
REMARK    1  A    between atoms: N_1  and  C_2
REMARK    2  A    between atoms: C_2  and  C_3
REMARK    3  A    between atoms: C_3  and  N_4
REMARK    4  A    between atoms: C_3  and  C_17
REMARK    5  A    between atoms: C_5  and  C_7
REMARK    6  A    between atoms: C_20  and  O_21
REMARK    7  A    between atoms: O_21  and  C_22
REMARK    8  A    between atoms: C_22  and  C_23
REMARK                            x       y       z     vdW  Elec       q    Type
REMARK                         _______ _______ _______ _____ _____    ______ ____
ROOT
ATOM      1  C   UNL     1       2.899   1.507   0.269  0.00  0.00    +0.000 C 
ENDROOT
BRANCH   1   2
ATOM      2  C   UNL     1       4.417   1.514   0.155  0.00  0.00    +0.000 A 
ATOM      3  C   UNL     1       5.023   1.762  -1.089  0.00  0.00    +0.000 A 
ATOM      4  C   UNL     1       6.404   1.958  -1.180  0.00  0.00    +0.000 A 
ATOM      5  C   UNL     1       7.197   1.905  -0.036  0.00  0.00    +0.000 A 
ATOM      6  C   UNL     1       6.624   1.520   1.174  0.00  0.00    +0.000 A 
ATOM      7  C   UNL     1       5.247   1.321   1.266  0.00  0.00    +0.000 A 
BRANCH   5   8
ATOM      8  O   UNL     1       8.510   2.262  -0.186  0.00  0.00    +0.000 OA
BRANCH   8   9
ATOM      9  C   UNL     1       9.125   2.762   1.009  0.00  0.00    +0.000 C 
BRANCH   9  10
ATOM     10  C   UNL     1      10.308   3.639   0.678  0.00  0.00    +0.000 A 
ATOM     11  C   UNL     1      10.138   4.764  -0.129  0.00  0.00    +0.000 A 
ATOM     12  C   UNL     1      11.231   5.589  -0.369  0.00  0.00    +0.000 A 
ATOM     13  C   UNL     1      12.458   5.274   0.200  0.00  0.00    +0.000 A 
ATOM     14  C   UNL     1      12.541   4.145   0.997  0.00  0.00    +0.000 A 
ATOM     15  N   UNL     1      11.498   3.329   1.254  0.00  0.00    +0.000 NA
ENDBRANCH   9  10
ENDBRANCH   8   9
ENDBRANCH   5   8
ENDBRANCH   1   2
BRANCH   1  16
ATOM     16  N   UNL     1       2.379   0.172   0.036  0.00  0.00    +0.000 N 
ATOM     17  C   UNL     1       1.144  -0.032  -0.524  0.00  0.00    +0.000 C 
ATOM     18  O   UNL     1       0.436   0.908  -0.882  0.00  0.00    +0.000 OA
ATOM     19  H   UNL     1       2.842  -0.593   0.518  0.00  0.00    +0.000 HD
BRANCH  17  20
ATOM     20  C   UNL     1       0.713  -1.419  -0.717  0.00  0.00    +0.000 A 
ATOM     21  C   UNL     1      -0.245  -1.709  -1.678  0.00  0.00    +0.000 A 
ATOM     22  S   UNL     1      -0.629  -3.366  -1.784  0.00  0.00    +0.000 S 
ATOM     23  C   UNL     1       0.441  -3.748  -0.516  0.00  0.00    +0.000 A 
ATOM     24  N   UNL     1       0.567  -5.029  -0.073  0.00  0.00    +0.000 NA
ATOM     25  C   UNL     1       1.381  -5.167   0.918  0.00  0.00    +0.000 A 
ATOM     26  N   UNL     1       2.093  -4.148   1.498  0.00  0.00    +0.000 N 
ATOM     27  C   UNL     1       2.035  -2.849   1.048  0.00  0.00    +0.000 A 
ATOM     28  O   UNL     1       2.752  -1.979   1.534  0.00  0.00    +0.000 OA
ATOM     29  C   UNL     1       1.105  -2.630  -0.041  0.00  0.00    +0.000 A 
ATOM     30  H   UNL     1       2.730  -4.330   2.258  0.00  0.00    +0.000 HD
ENDBRANCH  17  20
ENDBRANCH   1  16
BRANCH   1  31
ATOM     31  C   UNL     1       2.400   2.119   1.622  0.00  0.00    +0.000 C 
BRANCH  31  32
ATOM     32  N   UNL     1       0.946   2.230   1.791  0.00  0.00    +0.000 NA
ATOM     33  H   UNL     1       0.680   3.214   1.786  0.00  0.00    +0.000 HD
ATOM     34  H   UNL     1       0.480   1.834   0.967  0.00  0.00    +0.000 HD
ENDBRANCH  31  32
ENDBRANCH   1  31
TORSDOF 8
