REMARK  Name = 
REMARK  9 active torsions:
REMARK  status: ('A' for Active; 'I' for Inactive)
REMARK    1  A    between atoms: C_2  and  C_3
REMARK    2  A    between atoms: C_3  and  N_4
REMARK    3  A    between atoms: C_3  and  C_20
REMARK    4  A    between atoms: N_4  and  C_5
REMARK    5  A    between atoms: C_5  and  C_6
REMARK    6  A    between atoms: C_9  and  C_10
REMARK    7  A    between atoms: C_10  and  N_11
REMARK    8  A    between atoms: N_11  and  C_12
REMARK    9  A    between atoms: C_12  and  C_13
REMARK                            x       y       z     vdW  Elec       q    Type
REMARK                         _______ _______ _______ _____ _____    ______ ____
ROOT
ATOM      1  N   UNL     1       2.500  -1.640  -1.714  0.00  0.00    +0.000 NA
ATOM      2  H   UNL     1       2.141  -1.911  -2.630  0.00  0.00    +0.000 HD
ENDROOT
BRANCH   1   3
ATOM      3  C   UNL     1       3.970  -1.518  -1.815  0.00  0.00    +0.000 C 
BRANCH   3   4
ATOM      4  C   UNL     1       4.485  -2.886  -2.228  0.00  0.00    +0.000 A 
ATOM      5  C   UNL     1       4.233  -4.063  -1.537  0.00  0.00    +0.000 A 
ATOM      6  S   UNL     1       4.922  -5.442  -2.273  0.00  0.00    +0.000 S 
ATOM      7  C   UNL     1       5.578  -4.511  -3.538  0.00  0.00    +0.000 A 
ATOM      8  N   UNL     1       6.286  -5.087  -4.542  0.00  0.00    +0.000 NA
ATOM      9  C   UNL     1       6.717  -4.259  -5.438  0.00  0.00    +0.000 A 
ATOM     10  N   UNL     1       6.515  -2.901  -5.405  0.00  0.00    +0.000 N 
ATOM     11  C   UNL     1       5.824  -2.268  -4.397  0.00  0.00    +0.000 A 
ATOM     12  O   UNL     1       5.683  -1.047  -4.365  0.00  0.00    +0.000 OA
ATOM     13  C   UNL     1       5.298  -3.168  -3.388  0.00  0.00    +0.000 A 
ATOM     14  H   UNL     1       6.892  -2.305  -6.130  0.00  0.00    +0.000 HD
ENDBRANCH   3   4
BRANCH   3  16
ATOM     15  N   UNL     1       5.128  -0.741   0.437  0.00  0.00    +0.000 NA
ATOM     16  C   UNL     1       4.637  -1.102  -0.551  0.00  0.00    +0.000 C 
ENDBRANCH   3  16
ENDBRANCH   1   3
BRANCH   1  17
ATOM     17  C   UNL     1       1.867  -0.380  -1.322  0.00  0.00    +0.000 C 
BRANCH  17  18
ATOM     18  C   UNL     1       0.371  -0.515  -1.293  0.00  0.00    +0.000 A 
ATOM     19  C   UNL     1      -0.266  -1.447  -0.467  0.00  0.00    +0.000 A 
ATOM     20  C   UNL     1      -1.653  -1.549  -0.476  0.00  0.00    +0.000 A 
ATOM     21  C   UNL     1      -2.377  -0.708  -1.313  0.00  0.00    +0.000 A 
ATOM     22  N   UNL     1      -1.784   0.243  -2.085  0.00  0.00    +0.000 NA
ATOM     23  C   UNL     1      -0.436   0.305  -2.070  0.00  0.00    +0.000 A 
BRANCH  21  24
ATOM     24  C   UNL     1      -3.887  -0.839  -1.401  0.00  0.00    +0.000 C 
BRANCH  24  25
ATOM     25  N   UNL     1      -4.445  -0.424  -2.700  0.00  0.00    +0.000 NA
ATOM     26  H   UNL     1      -4.059   0.508  -2.877  0.00  0.00    +0.000 HD
BRANCH  25  27
ATOM     27  C   UNL     1      -3.989  -1.298  -3.793  0.00  0.00    +0.000 C 
BRANCH  27  28
ATOM     28  C   UNL     1      -4.580  -0.848  -5.133  0.00  0.00    +0.000 C 
ATOM     29  C   UNL     1      -6.097  -0.926  -5.173  0.00  0.00    +0.000 C 
ATOM     30  C   UNL     1      -6.363  -1.087  -6.646  0.00  0.00    +0.000 C 
ATOM     31  C   UNL     1      -5.192  -1.930  -7.105  0.00  0.00    +0.000 C 
ATOM     32  O   UNL     1      -4.105  -1.689  -6.201  0.00  0.00    +0.000 OA
ENDBRANCH  27  28
ENDBRANCH  25  27
ENDBRANCH  24  25
ENDBRANCH  21  24
ENDBRANCH  17  18
ENDBRANCH   1  17
TORSDOF 9
