REMARK  Name = 
REMARK  8 active torsions:
REMARK  status: ('A' for Active; 'I' for Inactive)
REMARK    1  A    between atoms: C_1  and  O_2
REMARK    2  A    between atoms: O_2  and  C_3
REMARK    3  A    between atoms: C_10  and  C_11
REMARK    4  A    between atoms: N_13  and  C_14
REMARK    5  A    between atoms: C_14  and  C_15
REMARK    6  A    between atoms: C_18  and  C_19
REMARK    7  A    between atoms: C_19  and  C_20
REMARK    8  A    between atoms: C_20  and  N_21
REMARK                            x       y       z     vdW  Elec       q    Type
REMARK                         _______ _______ _______ _____ _____    ______ ____
ROOT
ATOM      1  C   UNL     1       2.874   2.439   2.393  0.00  0.00    +0.000 C 
ENDROOT
BRANCH   1   2
ATOM      2  C   UNL     1       1.681   3.023   1.674  0.00  0.00    +0.000 A 
ATOM      3  C   UNL     1       0.580   2.218   1.364  0.00  0.00    +0.000 A 
ATOM      4  C   UNL     1      -0.493   2.720   0.616  0.00  0.00    +0.000 A 
ATOM      5  C   UNL     1      -0.502   4.046   0.160  0.00  0.00    +0.000 A 
ATOM      6  C   UNL     1       0.580   4.865   0.520  0.00  0.00    +0.000 A 
ATOM      7  C   UNL     1       1.662   4.360   1.258  0.00  0.00    +0.000 A 
BRANCH   5   8
ATOM      8  C   UNL     1      -1.606   4.624  -0.714  0.00  0.00    +0.000 C 
BRANCH   8   9
ATOM      9  C   UNL     1      -2.755   3.668  -1.074  0.00  0.00    +0.000 C 
BRANCH   9  10
ATOM     10  N   UNL     1      -3.755   4.309  -1.920  0.00  0.00    +0.000 N 
ATOM     11  C   UNL     1      -4.820   3.456  -2.222  0.00  0.00    +0.000 A 
ATOM     12  N   UNL     1      -5.175   2.503  -1.346  0.00  0.00    +0.000 NA
ATOM     13  C   UNL     1      -6.168   1.671  -1.700  0.00  0.00    +0.000 A 
ATOM     14  C   UNL     1      -6.832   1.758  -2.895  0.00  0.00    +0.000 A 
ATOM     15  C   UNL     1      -6.410   2.771  -3.721  0.00  0.00    +0.000 A 
ATOM     16  N   UNL     1      -5.407   3.621  -3.415  0.00  0.00    +0.000 NA
ATOM     17  H   UNL     1      -3.427   4.666  -2.816  0.00  0.00    +0.000 HD
ENDBRANCH   9  10
ENDBRANCH   8   9
ENDBRANCH   5   8
ENDBRANCH   1   2
BRANCH   1  20
ATOM     18  C   UNL     1       4.968   1.238   1.894  0.00  0.00    +0.000 C 
ATOM     19  O   UNL     1       5.224   1.146   3.093  0.00  0.00    +0.000 OA
ATOM     20  N   UNL     1       3.833   1.875   1.464  0.00  0.00    +0.000 N 
ATOM     21  H   UNL     1       3.642   1.967   0.475  0.00  0.00    +0.000 HD
BRANCH  18  29
ATOM     22  C   UNL     1       4.887   1.061  -1.554  0.00  0.00    +0.000 A 
ATOM     23  N   UNL     1       5.080   0.812  -2.864  0.00  0.00    +0.000 NA
ATOM     24  C   UNL     1       6.178   0.142  -3.222  0.00  0.00    +0.000 A 
ATOM     25  N   UNL     1       7.127  -0.319  -2.419  0.00  0.00    +0.000 NA
ATOM     26  C   UNL     1       6.886  -0.067  -1.121  0.00  0.00    +0.000 A 
ATOM     27  S   UNL     1       8.001  -0.580   0.053  0.00  0.00    +0.000 S 
ATOM     28  C   UNL     1       7.048   0.056   1.307  0.00  0.00    +0.000 A 
ATOM     29  C   UNL     1       5.875   0.669   0.876  0.00  0.00    +0.000 A 
ATOM     30  C   UNL     1       5.793   0.601  -0.581  0.00  0.00    +0.000 A 
BRANCH  22  32
ATOM     31  C   UNL     1       3.368   2.683  -2.226  0.00  0.00    +0.000 C 
ATOM     32  O   UNL     1       3.763   1.780  -1.195  0.00  0.00    +0.000 OA
ENDBRANCH  22  32
ENDBRANCH  18  29
ENDBRANCH   1  20
TORSDOF 7
