REMARK  Name = 
REMARK  9 active torsions:
REMARK  status: ('A' for Active; 'I' for Inactive)
REMARK    1  A    between atoms: C_1  and  C_2
REMARK    2  A    between atoms: C_2  and  N_3
REMARK    3  A    between atoms: N_3  and  C_4
REMARK    4  A    between atoms: N_3  and  C_11
REMARK    5  A    between atoms: C_4  and  C_5
REMARK    6  A    between atoms: C_11  and  C_12
REMARK    7  A    between atoms: C_15  and  C_16
REMARK    8  A    between atoms: C_16  and  N_17
REMARK    9  A    between atoms: C_18  and  C_20
REMARK                            x       y       z     vdW  Elec       q    Type
REMARK                         _______ _______ _______ _____ _____    ______ ____
ROOT
ATOM      1  C   UNL     1       4.992  -1.335  -2.415  0.00  0.00    +0.000 A 
ATOM      2  N   UNL     1       5.572  -0.514  -3.314  0.00  0.00    +0.000 NA
ATOM      3  C   UNL     1       5.936  -1.065  -4.486  0.00  0.00    +0.000 A 
ATOM      4  C   UNL     1       5.751  -2.394  -4.802  0.00  0.00    +0.000 A 
ATOM      5  C   UNL     1       5.209  -3.160  -3.791  0.00  0.00    +0.000 A 
ATOM      6  N   UNL     1       4.813  -2.662  -2.602  0.00  0.00    +0.000 NA
ENDROOT
BRANCH   1   7
ATOM      7  C   UNL     1       4.403  -0.712  -1.152  0.00  0.00    +0.000 C 
BRANCH   7   8
ATOM      8  N   UNL     1       3.265   0.233  -1.382  0.00  0.00    +0.000 NA
BRANCH   8  10
ATOM      9  C   UNL     1       0.963   0.393  -2.421  0.00  0.00    +0.000 C 
ATOM     10  C   UNL     1       2.159  -0.481  -2.054  0.00  0.00    +0.000 C 
ENDBRANCH   8  10
BRANCH   8  11
ATOM     11  C   UNL     1       2.831   0.834  -0.109  0.00  0.00    +0.000 C 
BRANCH  11  12
ATOM     12  C   UNL     1       3.880   1.667   0.591  0.00  0.00    +0.000 A 
ATOM     13  C   UNL     1       4.516   2.747  -0.036  0.00  0.00    +0.000 A 
ATOM     14  C   UNL     1       5.432   3.517   0.675  0.00  0.00    +0.000 A 
ATOM     15  C   UNL     1       5.688   3.185   1.994  0.00  0.00    +0.000 A 
ATOM     16  N   UNL     1       5.105   2.146   2.633  0.00  0.00    +0.000 NA
ATOM     17  C   UNL     1       4.217   1.419   1.919  0.00  0.00    +0.000 A 
ENDBRANCH  11  12
ENDBRANCH   8  11
ENDBRANCH   7   8
ENDBRANCH   1   7
BRANCH   4  18
ATOM     18  C   UNL     1       6.109  -2.948  -6.138  0.00  0.00    +0.000 C 
BRANCH  18  19
ATOM     19  N   UNL     1       7.490  -3.346  -6.214  0.00  0.00    +0.000 N 
ATOM     20  C   UNL     1       7.986  -3.936  -7.350  0.00  0.00    +0.000 C 
ATOM     21  O   UNL     1       7.266  -4.161  -8.320  0.00  0.00    +0.000 OA
ATOM     22  H   UNL     1       8.136  -2.954  -5.533  0.00  0.00    +0.000 HD
BRANCH  20  23
ATOM     23  C   UNL     1       9.394  -4.353  -7.326  0.00  0.00    +0.000 A 
ATOM     24  C   UNL     1       9.936  -5.030  -8.411  0.00  0.00    +0.000 A 
ATOM     25  S   UNL     1      11.493  -5.661  -8.110  0.00  0.00    +0.000 S 
ATOM     26  C   UNL     1      11.512  -5.006  -6.540  0.00  0.00    +0.000 A 
ATOM     27  N   UNL     1      12.537  -5.254  -5.682  0.00  0.00    +0.000 NA
ATOM     28  C   UNL     1      12.431  -4.661  -4.539  0.00  0.00    +0.000 A 
ATOM     29  N   UNL     1      11.416  -3.807  -4.192  0.00  0.00    +0.000 N 
ATOM     30  C   UNL     1      10.386  -3.495  -5.044  0.00  0.00    +0.000 A 
ATOM     31  O   UNL     1       9.550  -2.643  -4.760  0.00  0.00    +0.000 OA
ATOM     32  C   UNL     1      10.395  -4.228  -6.294  0.00  0.00    +0.000 A 
ATOM     33  H   UNL     1      11.431  -3.317  -3.310  0.00  0.00    +0.000 HD
ENDBRANCH  20  23
ENDBRANCH  18  19
ENDBRANCH   4  18
TORSDOF 8
