REMARK  Name = 
REMARK  8 active torsions:
REMARK  status: ('A' for Active; 'I' for Inactive)
REMARK    1  A    between atoms: C_1  and  C_2
REMARK    2  A    between atoms: C_2  and  N_3
REMARK    3  A    between atoms: C_2  and  C_25
REMARK    4  A    between atoms: N_3  and  C_4
REMARK    5  A    between atoms: C_4  and  C_5
REMARK    6  A    between atoms: C_8  and  C_9
REMARK    7  A    between atoms: C_9  and  N_10
REMARK    8  A    between atoms: C_11  and  C_13
REMARK                            x       y       z     vdW  Elec       q    Type
REMARK                         _______ _______ _______ _____ _____    ______ ____
ROOT
ATOM      1  C   UNL     1      -1.043  -0.153   1.317  0.00  0.00    +0.000 A 
ATOM      2  C   UNL     1      -1.696   0.864   0.633  0.00  0.00    +0.000 A 
ATOM      3  C   UNL     1      -3.083   0.957   0.723  0.00  0.00    +0.000 A 
ATOM      4  C   UNL     1      -3.770   0.037   1.503  0.00  0.00    +0.000 A 
ATOM      5  N   UNL     1      -3.113  -0.962   2.130  0.00  0.00    +0.000 NA
ATOM      6  N   UNL     1      -1.744  -1.053   2.043  0.00  0.00    +0.000 NA
ENDROOT
BRANCH   1   7
ATOM      7  C   UNL     1       0.470  -0.245   1.338  0.00  0.00    +0.000 C 
BRANCH   7   8
ATOM      8  N   UNL     1       0.974  -1.496   0.772  0.00  0.00    +0.000 NA
ATOM      9  H   UNL     1       0.595  -1.624  -0.166  0.00  0.00    +0.000 HD
BRANCH   8  11
ATOM     10  C   UNL     1       3.131  -1.478   2.074  0.00  0.00    +0.000 C 
ATOM     11  C   UNL     1       2.437  -1.597   0.708  0.00  0.00    +0.000 C 
BRANCH  11  12
ATOM     12  C   UNL     1       2.813  -2.928   0.073  0.00  0.00    +0.000 A 
ATOM     13  C   UNL     1       3.616  -2.978  -1.076  0.00  0.00    +0.000 A 
ATOM     14  C   UNL     1       3.974  -4.205  -1.639  0.00  0.00    +0.000 A 
ATOM     15  C   UNL     1       3.534  -5.396  -1.062  0.00  0.00    +0.000 A 
ATOM     16  C   UNL     1       2.730  -5.365   0.072  0.00  0.00    +0.000 A 
ATOM     17  C   UNL     1       2.367  -4.139   0.633  0.00  0.00    +0.000 A 
ENDBRANCH  11  12
ENDBRANCH   8  11
ENDBRANCH   7   8
ENDBRANCH   1   7
BRANCH   4  18
ATOM     18  C   UNL     1      -5.268   0.094   1.652  0.00  0.00    +0.000 C 
BRANCH  18  19
ATOM     19  N   UNL     1      -5.929  -0.681   0.626  0.00  0.00    +0.000 N 
ATOM     20  C   UNL     1      -7.162  -0.349   0.135  0.00  0.00    +0.000 C 
ATOM     21  O   UNL     1      -7.760   0.663   0.490  0.00  0.00    +0.000 OA
ATOM     22  H   UNL     1      -5.594  -1.633   0.521  0.00  0.00    +0.000 HD
BRANCH  20  23
ATOM     23  C   UNL     1      -7.699  -1.231  -0.909  0.00  0.00    +0.000 A 
ATOM     24  C   UNL     1      -8.611  -0.735  -1.833  0.00  0.00    +0.000 A 
ATOM     25  S   UNL     1      -9.089  -1.881  -3.003  0.00  0.00    +0.000 S 
ATOM     26  C   UNL     1      -8.136  -3.095  -2.286  0.00  0.00    +0.000 A 
ATOM     27  N   UNL     1      -8.113  -4.359  -2.786  0.00  0.00    +0.000 NA
ATOM     28  C   UNL     1      -7.368  -5.180  -2.124  0.00  0.00    +0.000 A 
ATOM     29  N   UNL     1      -6.636  -4.852  -1.013  0.00  0.00    +0.000 N 
ATOM     30  C   UNL     1      -6.602  -3.581  -0.497  0.00  0.00    +0.000 A 
ATOM     31  O   UNL     1      -5.885  -3.300   0.463  0.00  0.00    +0.000 OA
ATOM     32  C   UNL     1      -7.438  -2.625  -1.186  0.00  0.00    +0.000 A 
ATOM     33  H   UNL     1      -6.057  -5.536  -0.551  0.00  0.00    +0.000 HD
ENDBRANCH  20  23
ENDBRANCH  18  19
ENDBRANCH   4  18
TORSDOF 7
