REMARK  Name = 
REMARK  5 active torsions:
REMARK  status: ('A' for Active; 'I' for Inactive)
REMARK    1  A    between atoms: C_1  and  C_2
REMARK    2  A    between atoms: C_2  and  C_3
REMARK    3  A    between atoms: C_2  and  N_10
REMARK    4  A    between atoms: C_3  and  C_4
REMARK    5  A    between atoms: C_13  and  C_14
REMARK                            x       y       z     vdW  Elec       q    Type
REMARK                         _______ _______ _______ _____ _____    ______ ____
ROOT
ATOM      1  N   UNL     1       2.866  -1.413  -0.549  0.00  0.00    +0.000 NA
ATOM      2  C   UNL     1       2.378  -2.545   0.250  0.00  0.00    +0.000 C 
ATOM      3  C   UNL     1       2.896  -3.886  -0.277  0.00  0.00    +0.000 C 
ATOM      4  C   UNL     1       2.513  -4.099  -1.740  0.00  0.00    +0.000 C 
ATOM      5  C   UNL     1       3.034  -2.919  -2.553  0.00  0.00    +0.000 C 
ATOM      6  C   UNL     1       2.562  -1.580  -1.985  0.00  0.00    +0.000 C 
ENDROOT
BRANCH   4   7
ATOM      7  C   UNL     1       1.008  -4.285  -1.917  0.00  0.00    +0.000 C 
ATOM      8  N   UNL     1       0.467  -5.329  -1.229  0.00  0.00    +0.000 N 
ATOM      9  O   UNL     1       0.295  -3.584  -2.626  0.00  0.00    +0.000 OA
ATOM     10  H   UNL     1       1.028  -6.040  -0.782  0.00  0.00    +0.000 HD
ATOM     11  H   UNL     1      -0.520  -5.508  -1.368  0.00  0.00    +0.000 HD
ENDBRANCH   4   7
BRANCH   1  13
ATOM     12  C   UNL     1       2.764   0.171   1.436  0.00  0.00    +0.000 C 
ATOM     13  C   UNL     1       2.389  -0.096  -0.037  0.00  0.00    +0.000 C 
BRANCH  13  14
ATOM     14  C   UNL     1       2.870   1.127  -0.880  0.00  0.00    +0.000 C 
BRANCH  14  15
ATOM     15  C   UNL     1       4.359   1.383  -0.972  0.00  0.00    +0.000 A 
ATOM     16  C   UNL     1       4.817   2.678  -1.242  0.00  0.00    +0.000 A 
ATOM     17  C   UNL     1       6.184   2.931  -1.333  0.00  0.00    +0.000 A 
ATOM     18  C   UNL     1       7.061   1.870  -1.168  0.00  0.00    +0.000 A 
ATOM     19  N   UNL     1       6.669   0.609  -0.931  0.00  0.00    +0.000 NA
ATOM     20  C   UNL     1       5.334   0.395  -0.843  0.00  0.00    +0.000 A 
ENDBRANCH  14  15
ENDBRANCH  13  14
ENDBRANCH   1  13
TORSDOF 4
