REMARK  Name = 
REMARK  6 active torsions:
REMARK  status: ('A' for Active; 'I' for Inactive)
REMARK    1  A    between atoms: C_1  and  C_2
REMARK    2  A    between atoms: C_2  and  C_3
REMARK    3  A    between atoms: C_2  and  C_14
REMARK    4  A    between atoms: C_3  and  N_4
REMARK    5  A    between atoms: N_4  and  C_5
REMARK    6  A    between atoms: C_8  and  C_9
REMARK                            x       y       z     vdW  Elec       q    Type
REMARK                         _______ _______ _______ _____ _____    ______ ____
ROOT
ATOM      1  N   UNL     1       2.779  -0.894  -2.238  0.00  0.00    +0.000 N 
ATOM      2  H   UNL     1       1.771  -1.051  -2.251  0.00  0.00    +0.000 HD
ENDROOT
BRANCH   1   3
ATOM      3  C   UNL     1       3.302  -0.891  -3.538  0.00  0.00    +0.000 A 
ATOM      4  C   UNL     1       2.629  -1.575  -4.555  0.00  0.00    +0.000 A 
ATOM      5  C   UNL     1       3.145  -1.604  -5.852  0.00  0.00    +0.000 A 
ATOM      6  C   UNL     1       4.354  -0.969  -6.088  0.00  0.00    +0.000 A 
ATOM      7  N   UNL     1       5.083  -0.347  -5.122  0.00  0.00    +0.000 NA
ATOM      8  C   UNL     1       4.546  -0.348  -3.881  0.00  0.00    +0.000 A 
BRANCH   6   9
ATOM      9  C   UNL     1       4.927  -0.927  -7.470  0.00  0.00    +0.000 C 
ATOM     10  N   UNL     1       6.118  -0.260  -7.584  0.00  0.00    +0.000 N 
ATOM     11  O   UNL     1       4.375  -1.439  -8.432  0.00  0.00    +0.000 OA
ATOM     12  H   UNL     1       6.535   0.155  -6.758  0.00  0.00    +0.000 HD
ATOM     13  H   UNL     1       6.559  -0.171  -8.487  0.00  0.00    +0.000 HD
ENDBRANCH   6   9
ENDBRANCH   1   3
BRANCH   1  14
ATOM     14  C   UNL     1       3.119   0.242  -1.383  0.00  0.00    +0.000 C 
BRANCH  14  16
ATOM     15  C   UNL     1       2.823  -0.949   0.874  0.00  0.00    +0.000 C 
ATOM     16  C   UNL     1       2.358   0.086  -0.102  0.00  0.00    +0.000 C 
BRANCH  16  17
ATOM     17  C   UNL     1       0.967   0.556  -0.067  0.00  0.00    +0.000 A 
ATOM     18  C   UNL     1       0.655   1.898  -0.319  0.00  0.00    +0.000 A 
ATOM     19  C   UNL     1      -0.677   2.312  -0.386  0.00  0.00    +0.000 A 
ATOM     20  C   UNL     1      -1.704   1.389  -0.206  0.00  0.00    +0.000 A 
ATOM     21  C   UNL     1      -1.405   0.057   0.071  0.00  0.00    +0.000 A 
ATOM     22  C   UNL     1      -0.074  -0.354   0.150  0.00  0.00    +0.000 A 
ENDBRANCH  16  17
ENDBRANCH  14  16
ENDBRANCH   1  14
TORSDOF 5
