REMARK  Name = 
REMARK  6 active torsions:
REMARK  status: ('A' for Active; 'I' for Inactive)
REMARK    1  A    between atoms: C_2  and  C_3
REMARK    2  A    between atoms: N_7  and  C_8
REMARK    3  A    between atoms: C_8  and  C_9
REMARK    4  A    between atoms: C_9  and  C_10
REMARK    5  A    between atoms: C_12  and  N_13
REMARK    6  A    between atoms: N_13  and  C_14
REMARK                            x       y       z     vdW  Elec       q    Type
REMARK                         _______ _______ _______ _____ _____    ______ ____
ROOT
ATOM      1  C   UNL     1      -6.587   2.472  -0.327  0.00  0.00    +0.000 A 
ATOM      2  C   UNL     1      -7.961   2.408  -0.430  0.00  0.00    +0.000 A 
ATOM      3  C   UNL     1      -8.660   3.602  -0.416  0.00  0.00    +0.000 A 
ATOM      4  N   UNL     1      -8.047   4.789  -0.322  0.00  0.00    +0.000 NA
ATOM      5  C   UNL     1      -6.708   4.755  -0.268  0.00  0.00    +0.000 A 
ATOM      6  N   UNL     1      -5.940   3.653  -0.261  0.00  0.00    +0.000 NA
ENDROOT
BRANCH   3   7
ATOM      7  N   UNL     1     -10.065   3.523  -0.486  0.00  0.00    +0.000 N 
ATOM      8  H   UNL     1     -10.325   3.114  -1.380  0.00  0.00    +0.000 HD
BRANCH   7   9
ATOM      9  C   UNL     1     -10.949   4.571  -0.064  0.00  0.00    +0.000 C 
ATOM     10  C   UNL     1     -12.414   4.259  -0.435  0.00  0.00    +0.000 C 
ATOM     11  N   UNL     1     -12.578   5.651  -0.899  0.00  0.00    +0.000 NA
ATOM     12  C   UNL     1     -11.102   5.776  -1.007  0.00  0.00    +0.000 C 
ATOM     13  H   UNL     1     -12.981   6.260  -0.187  0.00  0.00    +0.000 HD
ENDBRANCH   7   9
ENDBRANCH   3   7
BRANCH   1  14
ATOM     14  C   UNL     1      -5.792   1.188  -0.257  0.00  0.00    +0.000 C 
BRANCH  14  15
ATOM     15  C   UNL     1      -4.291   1.437  -0.169  0.00  0.00    +0.000 C 
BRANCH  15  20
ATOM     16  C   UNL     1       0.578  -0.043   0.216  0.00  0.00    +0.000 A 
ATOM     17  C   UNL     1      -0.005   1.215   0.167  0.00  0.00    +0.000 A 
ATOM     18  C   UNL     1      -1.388   1.323   0.053  0.00  0.00    +0.000 A 
ATOM     19  C   UNL     1      -2.169   0.171  -0.014  0.00  0.00    +0.000 A 
ATOM     20  N   UNL     1      -3.536   0.204  -0.127  0.00  0.00    +0.000 N 
ATOM     21  N   UNL     1      -1.614  -1.055   0.029  0.00  0.00    +0.000 NA
ATOM     22  C   UNL     1      -0.263  -1.140   0.146  0.00  0.00    +0.000 A 
ATOM     23  H   UNL     1      -3.975  -0.707  -0.196  0.00  0.00    +0.000 HD
BRANCH  16  25
ATOM     24  N   UNL     1       3.140  -0.320   0.425  0.00  0.00    +0.000 NA
ATOM     25  C   UNL     1       1.991  -0.204   0.333  0.00  0.00    +0.000 C 
ENDBRANCH  16  25
ENDBRANCH  15  20
ENDBRANCH  14  15
ENDBRANCH   1  14
TORSDOF 6
