REMARK  Name = 
REMARK  8 active torsions:
REMARK  status: ('A' for Active; 'I' for Inactive)
REMARK    1  A    between atoms: C_1  and  C_2
REMARK    2  A    between atoms: C_2  and  C_3
REMARK    3  A    between atoms: C_2  and  C_4
REMARK    4  A    between atoms: C_4  and  N_5
REMARK    5  A    between atoms: C_4  and  C_6
REMARK    6  A    between atoms: C_6  and  C_7
REMARK    7  A    between atoms: N_9  and  C_10
REMARK    8  A    between atoms: C_10  and  C_11
REMARK                            x       y       z     vdW  Elec       q    Type
REMARK                         _______ _______ _______ _____ _____    ______ ____
ROOT
ATOM      1  C   UNL     1       4.847  -2.078  -1.997  0.00  0.00    +0.000 A 
ATOM      2  C   UNL     1       5.483  -1.806  -3.196  0.00  0.00    +0.000 A 
ATOM      3  N   UNL     1       5.722  -2.992  -3.851  0.00  0.00    +0.000 N 
ATOM      4  C   UNL     1       5.192  -4.042  -3.128  0.00  0.00    +0.000 A 
ATOM      5  C   UNL     1       5.152  -5.423  -3.390  0.00  0.00    +0.000 A 
ATOM      6  C   UNL     1       4.532  -6.263  -2.459  0.00  0.00    +0.000 A 
ATOM      7  C   UNL     1       3.951  -5.741  -1.308  0.00  0.00    +0.000 A 
ATOM      8  C   UNL     1       3.975  -4.367  -1.072  0.00  0.00    +0.000 A 
ATOM      9  C   UNL     1       4.621  -3.494  -1.975  0.00  0.00    +0.000 A 
ENDROOT
BRANCH   1  10
ATOM     10  C   UNL     1       4.409  -1.063  -0.971  0.00  0.00    +0.000 C 
BRANCH  10  11
ATOM     11  C   UNL     1       5.210  -1.063   0.364  0.00  0.00    +0.000 C 
BRANCH  11  13
ATOM     12  C   UNL     1       5.503   0.015   2.679  0.00  0.00    +0.000 C 
ATOM     13  C   UNL     1       4.717   0.035   1.357  0.00  0.00    +0.000 C 
ATOM     14  C   UNL     1       4.797   1.447   0.768  0.00  0.00    +0.000 C 
ENDBRANCH  11  13
BRANCH  11  15
ATOM     15  N   UNL     1       5.117  -2.366   1.036  0.00  0.00    +0.000 NA
ATOM     16  H   UNL     1       4.197  -2.479   1.457  0.00  0.00    +0.000 HD
ATOM     17  H   UNL     1       5.800  -2.439   1.784  0.00  0.00    +0.000 HD
ENDBRANCH  11  15
ENDBRANCH  10  11
ENDBRANCH   1  10
BRANCH   3  18
ATOM     18  C   UNL     1       6.317  -3.089  -5.179  0.00  0.00    +0.000 C 
BRANCH  18  19
ATOM     19  C   UNL     1       7.818  -3.192  -5.164  0.00  0.00    +0.000 A 
ATOM     20  C   UNL     1       8.613  -2.197  -4.598  0.00  0.00    +0.000 A 
ATOM     21  N   UNL     1       9.966  -2.188  -4.682  0.00  0.00    +0.000 NA
ATOM     22  C   UNL     1      10.510  -3.228  -5.349  0.00  0.00    +0.000 A 
ATOM     23  C   UNL     1       9.738  -4.230  -5.907  0.00  0.00    +0.000 A 
ATOM     24  N   UNL     1       8.386  -4.231  -5.838  0.00  0.00    +0.000 NA
ENDBRANCH  18  19
ENDBRANCH   3  18
TORSDOF 6
