REMARK  Name = 
REMARK  6 active torsions:
REMARK  status: ('A' for Active; 'I' for Inactive)
REMARK    1  A    between atoms: C_2  and  C_4
REMARK    2  A    between atoms: C_7  and  O_8
REMARK    3  A    between atoms: O_8  and  C_9
REMARK    4  A    between atoms: C_9  and  C_10
REMARK    5  A    between atoms: C_10  and  C_13
REMARK    6  A    between atoms: C_17  and  C_18
REMARK                            x       y       z     vdW  Elec       q    Type
REMARK                         _______ _______ _______ _____ _____    ______ ____
ROOT
ATOM      1  C   UNL     1       5.879  -0.297  -7.093  0.00  0.00    +0.000 C 
ATOM      2  F   UNL     1       7.164   0.029  -6.767  0.00  0.00    +0.000 F 
ATOM      3  F   UNL     1       5.873  -1.654  -7.251  0.00  0.00    +0.000 F 
ENDROOT
BRANCH   1   4
ATOM      4  C   UNL     1       5.420   0.421  -8.350  0.00  0.00    +0.000 A 
ATOM      5  C   UNL     1       4.526  -0.194  -9.233  0.00  0.00    +0.000 A 
ATOM      6  C   UNL     1       4.079   0.487 -10.360  0.00  0.00    +0.000 A 
ATOM      7  C   UNL     1       4.509   1.795 -10.604  0.00  0.00    +0.000 A 
ATOM      8  C   UNL     1       5.380   2.462  -9.724  0.00  0.00    +0.000 A 
ATOM      9  C   UNL     1       5.842   1.739  -8.609  0.00  0.00    +0.000 A 
BRANCH   8  10
ATOM     10  C   UNL     1       5.747   3.884  -9.929  0.00  0.00    +0.000 A 
ATOM     11  C   UNL     1       4.829   4.796 -10.475  0.00  0.00    +0.000 A 
ATOM     12  C   UNL     1       5.181   6.130 -10.609  0.00  0.00    +0.000 A 
ATOM     13  N   UNL     1       6.374   6.631 -10.237  0.00  0.00    +0.000 NA
ATOM     14  C   UNL     1       7.254   5.752  -9.715  0.00  0.00    +0.000 A 
ATOM     15  C   UNL     1       6.995   4.398  -9.552  0.00  0.00    +0.000 A 
ENDBRANCH   8  10
ENDBRANCH   1   4
BRANCH   1  16
ATOM     16  C   UNL     1       4.956   0.075  -5.921  0.00  0.00    +0.000 C 
BRANCH  16  17
ATOM     17  O   UNL     1       5.345  -0.621  -4.730  0.00  0.00    +0.000 OA
BRANCH  17  21
ATOM     18  C   UNL     1       3.231  -0.095  -1.170  0.00  0.00    +0.000 A 
ATOM     19  C   UNL     1       2.822   0.621  -2.301  0.00  0.00    +0.000 A 
ATOM     20  C   UNL     1       3.503   0.473  -3.515  0.00  0.00    +0.000 A 
ATOM     21  C   UNL     1       4.598  -0.388  -3.608  0.00  0.00    +0.000 A 
ATOM     22  C   UNL     1       5.012  -1.093  -2.475  0.00  0.00    +0.000 A 
ATOM     23  C   UNL     1       4.339  -0.945  -1.259  0.00  0.00    +0.000 A 
BRANCH  18  25
ATOM     24  N   UNL     1       1.218   0.390   0.112  0.00  0.00    +0.000 N 
ATOM     25  C   UNL     1       2.541   0.044   0.138  0.00  0.00    +0.000 C 
ATOM     26  O   UNL     1       3.115  -0.179   1.196  0.00  0.00    +0.000 OA
ATOM     27  H   UNL     1       0.737   0.368   1.003  0.00  0.00    +0.000 HD
ATOM     28  H   UNL     1       0.657   0.317  -0.723  0.00  0.00    +0.000 HD
ENDBRANCH  18  25
ENDBRANCH  17  21
ENDBRANCH  16  17
ENDBRANCH   1  16
TORSDOF 6
