REMARK  Name = 
REMARK  5 active torsions:
REMARK  status: ('A' for Active; 'I' for Inactive)
REMARK    1  A    between atoms: C_1  and  C_2
REMARK    2  A    between atoms: C_2  and  O_3
REMARK    3  A    between atoms: C_2  and  C_13
REMARK    4  A    between atoms: O_3  and  C_4
REMARK    5  A    between atoms: C_7  and  C_8
REMARK                            x       y       z     vdW  Elec       q    Type
REMARK                         _______ _______ _______ _____ _____    ______ ____
ROOT
ATOM      1  C   UNL     1       2.467   0.527   2.412  0.00  0.00    +0.000 A 
ATOM      2  C   UNL     1       2.305  -0.024   3.680  0.00  0.00    +0.000 A 
ATOM      3  N   UNL     1       1.880   0.695   4.748  0.00  0.00    +0.000 NA
ATOM      4  C   UNL     1       1.646   2.014   4.484  0.00  0.00    +0.000 A 
ATOM      5  C   UNL     1       1.849   2.573   3.227  0.00  0.00    +0.000 A 
ATOM      6  N   UNL     1       2.265   1.840   2.160  0.00  0.00    +0.000 NA
ENDROOT
BRANCH   4   7
ATOM      7  C   UNL     1       1.108   2.845   5.595  0.00  0.00    +0.000 C 
ATOM      8  N   UNL     1       0.859   2.175   6.763  0.00  0.00    +0.000 N 
ATOM      9  O   UNL     1       0.884   4.042   5.471  0.00  0.00    +0.000 OA
ATOM     10  H   UNL     1       1.037   1.178   6.822  0.00  0.00    +0.000 HD
ATOM     11  H   UNL     1       0.460   2.668   7.550  0.00  0.00    +0.000 HD
ENDBRANCH   4   7
BRANCH   1  12
ATOM     12  O   UNL     1       2.819  -0.333   1.397  0.00  0.00    +0.000 OA
BRANCH  12  14
ATOM     13  C   UNL     1       0.892   0.145  -0.060  0.00  0.00    +0.000 C 
ATOM     14  C   UNL     1       2.420   0.082   0.082  0.00  0.00    +0.000 C 
BRANCH  14  15
ATOM     15  C   UNL     1       2.914  -0.967  -0.912  0.00  0.00    +0.000 A 
ATOM     16  C   UNL     1       3.270  -0.591  -2.219  0.00  0.00    +0.000 A 
ATOM     17  C   UNL     1       3.585  -1.557  -3.181  0.00  0.00    +0.000 A 
ATOM     18  C   UNL     1       3.552  -2.910  -2.848  0.00  0.00    +0.000 A 
ATOM     19  C   UNL     1       3.219  -3.285  -1.553  0.00  0.00    +0.000 A 
ATOM     20  F   UNL     1       3.176  -4.586  -1.233  0.00  0.00    +0.000 F 
ATOM     21  C   UNL     1       2.903  -2.334  -0.589  0.00  0.00    +0.000 A 
ENDBRANCH  14  15
ENDBRANCH  12  14
ENDBRANCH   1  12
TORSDOF 4
