REMARK  Name = 
REMARK  5 active torsions:
REMARK  status: ('A' for Active; 'I' for Inactive)
REMARK    1  A    between atoms: N_1  and  C_2
REMARK    2  A    between atoms: C_2  and  C_3
REMARK    3  A    between atoms: C_6  and  C_7
REMARK    4  A    between atoms: C_7  and  N_8
REMARK    5  A    between atoms: C_13  and  C_14
REMARK                            x       y       z     vdW  Elec       q    Type
REMARK                         _______ _______ _______ _____ _____    ______ ____
ROOT
ATOM      1  N   UNL     1       4.089  -4.954  -2.866  0.00  0.00    +0.000 N 
ATOM      2  C   UNL     1       4.123  -6.307  -2.635  0.00  0.00    +0.000 A 
ATOM      3  C   UNL     1       4.018  -6.950  -3.844  0.00  0.00    +0.000 A 
ATOM      4  C   UNL     1       3.980  -5.955  -4.856  0.00  0.00    +0.000 A 
ATOM      5  C   UNL     1       3.873  -6.018  -6.263  0.00  0.00    +0.000 A 
ATOM      6  C   UNL     1       3.892  -4.836  -7.015  0.00  0.00    +0.000 A 
ATOM      7  C   UNL     1       4.054  -3.607  -6.363  0.00  0.00    +0.000 A 
ATOM      8  C   UNL     1       4.149  -3.519  -4.966  0.00  0.00    +0.000 A 
ATOM      9  C   UNL     1       4.085  -4.711  -4.228  0.00  0.00    +0.000 A 
ENDROOT
BRANCH   6  10
ATOM     10  C   UNL     1       3.730  -4.823  -8.500  0.00  0.00    +0.000 C 
ATOM     11  N   UNL     1       3.575  -6.011  -9.160  0.00  0.00    +0.000 N 
ATOM     12  O   UNL     1       3.720  -3.773  -9.132  0.00  0.00    +0.000 OA
ATOM     13  H   UNL     1       3.557  -6.921  -8.730  0.00  0.00    +0.000 HD
ATOM     14  H   UNL     1       3.437  -5.957 -10.161  0.00  0.00    +0.000 HD
ENDBRANCH   6  10
BRANCH   1  15
ATOM     15  C   UNL     1       4.089  -3.961  -1.802  0.00  0.00    +0.000 C 
BRANCH  15  19
ATOM     16  C   UNL     1       2.186  -4.577   0.757  0.00  0.00    +0.000 C 
ATOM     17  C   UNL     1       2.285  -3.080   1.046  0.00  0.00    +0.000 C 
ATOM     18  C   UNL     1       2.794  -2.439  -0.248  0.00  0.00    +0.000 C 
ATOM     19  C   UNL     1       2.683  -3.503  -1.357  0.00  0.00    +0.000 C 
ATOM     20  C   UNL     1       1.813  -4.601  -0.726  0.00  0.00    +0.000 C 
BRANCH  16  21
ATOM     21  C   UNL     1       1.182  -5.277   1.675  0.00  0.00    +0.000 C 
BRANCH  21  22
ATOM     22  N   UNL     1       1.085  -6.701   1.377  0.00  0.00    +0.000 NA
ATOM     23  H   UNL     1       0.465  -7.146   2.052  0.00  0.00    +0.000 HD
ATOM     24  H   UNL     1       1.996  -7.143   1.493  0.00  0.00    +0.000 HD
ENDBRANCH  21  22
ENDBRANCH  16  21
ENDBRANCH  15  19
ENDBRANCH   1  15
TORSDOF 5
