REMARK  Name = 
REMARK  5 active torsions:
REMARK  status: ('A' for Active; 'I' for Inactive)
REMARK    1  A    between atoms: N_1  and  C_2
REMARK    2  A    between atoms: C_2  and  C_3
REMARK    3  A    between atoms: C_6  and  O_7
REMARK    4  A    between atoms: O_7  and  C_8
REMARK    5  A    between atoms: C_8  and  C_9
REMARK                            x       y       z     vdW  Elec       q    Type
REMARK                         _______ _______ _______ _____ _____    ______ ____
ROOT
ATOM      1  C   UNL     1       2.793  -0.763  -1.242  0.00  0.00    +0.000 A 
ATOM      2  C   UNL     1       3.386  -0.153  -2.349  0.00  0.00    +0.000 A 
ATOM      3  C   UNL     1       3.760  -0.921  -3.452  0.00  0.00    +0.000 A 
ATOM      4  C   UNL     1       3.532  -2.290  -3.423  0.00  0.00    +0.000 A 
ATOM      5  N   UNL     1       2.988  -2.908  -2.354  0.00  0.00    +0.000 NA
ATOM      6  C   UNL     1       2.631  -2.141  -1.299  0.00  0.00    +0.000 A 
ENDROOT
BRANCH   1   7
ATOM      7  C   UNL     1       2.355   0.026  -0.043  0.00  0.00    +0.000 C 
BRANCH   7   8
ATOM      8  N   UNL     1       1.339   1.011  -0.399  0.00  0.00    +0.000 NA
ATOM      9  H   UNL     1       0.998   1.464   0.447  0.00  0.00    +0.000 HD
ATOM     10  H   UNL     1       0.539   0.529  -0.807  0.00  0.00    +0.000 HD
ENDBRANCH   7   8
ENDBRANCH   1   7
BRANCH   4  11
ATOM     11  O   UNL     1       3.892  -3.153  -4.417  0.00  0.00    +0.000 OA
BRANCH  11  12
ATOM     12  C   UNL     1       3.769  -2.643  -5.745  0.00  0.00    +0.000 C 
BRANCH  12  13
ATOM     13  C   UNL     1       4.079  -3.744  -6.740  0.00  0.00    +0.000 A 
ATOM     14  N   UNL     1       3.053  -4.483  -7.211  0.00  0.00    +0.000 NA
ATOM     15  C   UNL     1       3.368  -5.466  -8.079  0.00  0.00    +0.000 A 
ATOM     16  C   UNL     1       4.651  -5.727  -8.499  0.00  0.00    +0.000 A 
ATOM     17  C   UNL     1       5.622  -4.909  -7.975  0.00  0.00    +0.000 A 
ATOM     18  N   UNL     1       5.368  -3.913  -7.105  0.00  0.00    +0.000 NA
ENDBRANCH  12  13
ENDBRANCH  11  12
ENDBRANCH   4  11
TORSDOF 5
