REMARK  Name = 
REMARK  4 active torsions:
REMARK  status: ('A' for Active; 'I' for Inactive)
REMARK    1  A    between atoms: C_2  and  C_4
REMARK    2  A    between atoms: C_7  and  O_8
REMARK    3  A    between atoms: O_8  and  C_9
REMARK    4  A    between atoms: C_9  and  C_10
REMARK                            x       y       z     vdW  Elec       q    Type
REMARK                         _______ _______ _______ _____ _____    ______ ____
ROOT
ATOM      1  C   UNL     1       2.892  -0.300   1.419  0.00  0.00    +0.000 A 
ATOM      2  C   UNL     1       2.839  -0.363   2.819  0.00  0.00    +0.000 A 
ATOM      3  C   UNL     1       3.775  -1.125   3.522  0.00  0.00    +0.000 A 
ATOM      4  C   UNL     1       4.740  -1.848   2.829  0.00  0.00    +0.000 A 
ATOM      5  C   UNL     1       4.827  -1.752   1.437  0.00  0.00    +0.000 A 
ATOM      6  C   UNL     1       3.894  -0.989   0.730  0.00  0.00    +0.000 A 
ENDROOT
BRANCH   1   8
ATOM      7  N   UNL     1       1.236   1.480   1.261  0.00  0.00    +0.000 N 
ATOM      8  C   UNL     1       1.867   0.441   0.638  0.00  0.00    +0.000 C 
ATOM      9  O   UNL     1       1.605   0.143  -0.520  0.00  0.00    +0.000 OA
ATOM     10  H   UNL     1       0.584   2.013   0.700  0.00  0.00    +0.000 HD
ATOM     11  H   UNL     1       1.586   1.904   2.107  0.00  0.00    +0.000 HD
ENDBRANCH   1   8
BRANCH   4  12
ATOM     12  O   UNL     1       5.661  -2.665   3.426  0.00  0.00    +0.000 OA
BRANCH  12  13
ATOM     13  C   UNL     1       5.264  -3.429   4.598  0.00  0.00    +0.000 C 
ATOM     14  C   UNL     1       5.057  -4.895   4.227  0.00  0.00    +0.000 C 
ATOM     15  C   UNL     1       3.897  -4.087   4.690  0.00  0.00    +0.000 C 
BRANCH  13  16
ATOM     16  C   UNL     1       6.039  -3.116   5.863  0.00  0.00    +0.000 A 
ATOM     17  C   UNL     1       7.424  -3.316   5.943  0.00  0.00    +0.000 A 
ATOM     18  C   UNL     1       8.128  -3.004   7.104  0.00  0.00    +0.000 A 
ATOM     19  C   UNL     1       7.424  -2.491   8.179  0.00  0.00    +0.000 A 
ATOM     20  N   UNL     1       6.093  -2.277   8.161  0.00  0.00    +0.000 NA
ATOM     21  C   UNL     1       5.444  -2.589   7.012  0.00  0.00    +0.000 A 
ENDBRANCH  13  16
ENDBRANCH  12  13
ENDBRANCH   4  12
TORSDOF 4
