REMARK  Name = 
REMARK  6 active torsions:
REMARK  status: ('A' for Active; 'I' for Inactive)
REMARK    1  A    between atoms: C_2  and  C_19
REMARK    2  A    between atoms: N_3  and  C_4
REMARK    3  A    between atoms: C_4  and  C_5
REMARK    4  A    between atoms: C_8  and  C_9
REMARK    5  A    between atoms: C_9  and  O_10
REMARK    6  A    between atoms: C_9  and  C_11
REMARK                            x       y       z     vdW  Elec       q    Type
REMARK                         _______ _______ _______ _____ _____    ______ ____
ROOT
ATOM      1  C   UNL     1       2.234   1.837   1.713  0.00  0.00    +0.000 C 
ENDROOT
BRANCH   1   2
ATOM      2  C   UNL     1       3.174   2.701   2.515  0.00  0.00    +0.000 A 
ATOM      3  C   UNL     1       4.197   2.133   3.271  0.00  0.00    +0.000 A 
ATOM      4  N   UNL     1       5.045   2.862   4.040  0.00  0.00    +0.000 NA
ATOM      5  C   UNL     1       4.852   4.212   4.014  0.00  0.00    +0.000 A 
ATOM      6  C   UNL     1       3.846   4.780   3.240  0.00  0.00    +0.000 A 
ATOM      7  N   UNL     1       2.990   4.048   2.485  0.00  0.00    +0.000 NA
BRANCH   5   8
ATOM      8  C   UNL     1       5.760   5.085   4.861  0.00  0.00    +0.000 C 
BRANCH   8   9
ATOM      9  C   UNL     1       6.942   5.660   4.110  0.00  0.00    +0.000 A 
ATOM     10  C   UNL     1       7.106   7.048   3.992  0.00  0.00    +0.000 A 
ATOM     11  C   UNL     1       8.227   7.577   3.348  0.00  0.00    +0.000 A 
ATOM     12  C   UNL     1       9.195   6.726   2.819  0.00  0.00    +0.000 A 
ATOM     13  C   UNL     1       9.042   5.346   2.921  0.00  0.00    +0.000 A 
ATOM     14  C   UNL     1       7.921   4.816   3.559  0.00  0.00    +0.000 A 
ENDBRANCH   8   9
BRANCH   8  15
ATOM     15  O   UNL     1       6.292   4.342   5.964  0.00  0.00    +0.000 OA
ATOM     16  H   UNL     1       6.231   3.405   5.686  0.00  0.00    +0.000 HD
ENDBRANCH   8  15
ENDBRANCH   5   8
ENDBRANCH   1   2
BRANCH   1  19
ATOM     17  O   UNL     1       4.015  -0.192   1.005  0.00  0.00    +0.000 OA
ATOM     18  C   UNL     1       3.562   0.517   0.110  0.00  0.00    +0.000 C 
ATOM     19  N   UNL     1       2.713   1.557   0.377  0.00  0.00    +0.000 N 
ATOM     20  H   UNL     1       2.291   2.081  -0.382  0.00  0.00    +0.000 HD
BRANCH  18  21
ATOM     21  C   UNL     1       3.941   0.318  -1.292  0.00  0.00    +0.000 A 
ATOM     22  C   UNL     1       5.143  -0.304  -1.599  0.00  0.00    +0.000 A 
ATOM     23  S   UNL     1       5.421  -0.463  -3.273  0.00  0.00    +0.000 S 
ATOM     24  C   UNL     1       3.922   0.253  -3.648  0.00  0.00    +0.000 A 
ATOM     25  N   UNL     1       3.513   0.388  -4.937  0.00  0.00    +0.000 NA
ATOM     26  C   UNL     1       2.338   0.906  -5.071  0.00  0.00    +0.000 A 
ATOM     27  N   UNL     1       1.539   1.313  -4.034  0.00  0.00    +0.000 N 
ATOM     28  C   UNL     1       1.935   1.250  -2.718  0.00  0.00    +0.000 A 
ATOM     29  O   UNL     1       1.238   1.710  -1.818  0.00  0.00    +0.000 OA
ATOM     30  C   UNL     1       3.234   0.635  -2.509  0.00  0.00    +0.000 A 
ATOM     31  H   UNL     1       0.638   1.730  -4.210  0.00  0.00    +0.000 HD
ENDBRANCH  18  21
ENDBRANCH   1  19
TORSDOF 6
