REMARK  Name = 
REMARK  10 active torsions:
REMARK  status: ('A' for Active; 'I' for Inactive)
REMARK    1  A    between atoms: N_1  and  C_2
REMARK    2  A    between atoms: C_2  and  C_3
REMARK    3  A    between atoms: C_3  and  N_4
REMARK    4  A    between atoms: C_3  and  C_20
REMARK    5  A    between atoms: N_4  and  C_5
REMARK    6  A    between atoms: C_5  and  C_6
REMARK    7  A    between atoms: C_9  and  C_10
REMARK    8  A    between atoms: C_10  and  N_11
REMARK    9  A    between atoms: N_11  and  C_12
REMARK   10  A    between atoms: C_12  and  C_13
REMARK                            x       y       z     vdW  Elec       q    Type
REMARK                         _______ _______ _______ _____ _____    ______ ____
ROOT
ATOM      1  N   UNL     1       2.362   0.766   2.274  0.00  0.00    +0.000 NA
ATOM      2  H   UNL     1       2.794   1.433   2.913  0.00  0.00    +0.000 HD
ENDROOT
BRANCH   1   3
ATOM      3  C   UNL     1       2.846   1.089   0.914  0.00  0.00    +0.000 C 
BRANCH   3   4
ATOM      4  C   UNL     1       4.367   1.132   0.960  0.00  0.00    +0.000 A 
ATOM      5  C   UNL     1       5.177   0.332   1.754  0.00  0.00    +0.000 A 
ATOM      6  S   UNL     1       6.845   0.624   1.532  0.00  0.00    +0.000 S 
ATOM      7  C   UNL     1       6.539   1.805   0.343  0.00  0.00    +0.000 A 
ATOM      8  N   UNL     1       7.554   2.453  -0.290  0.00  0.00    +0.000 NA
ATOM      9  C   UNL     1       7.162   3.298  -1.185  0.00  0.00    +0.000 A 
ATOM     10  N   UNL     1       5.854   3.563  -1.501  0.00  0.00    +0.000 N 
ATOM     11  C   UNL     1       4.792   2.937  -0.888  0.00  0.00    +0.000 A 
ATOM     12  O   UNL     1       3.632   3.180  -1.197  0.00  0.00    +0.000 OA
ATOM     13  C   UNL     1       5.186   1.978   0.128  0.00  0.00    +0.000 A 
ATOM     14  H   UNL     1       5.620   4.235  -2.219  0.00  0.00    +0.000 HD
ENDBRANCH   3   4
BRANCH   3  15
ATOM     15  C   UNL     1       2.354   0.100  -0.191  0.00  0.00    +0.000 C 
BRANCH  15  16
ATOM     16  N   UNL     1       2.697  -1.306   0.064  0.00  0.00    +0.000 NA
ATOM     17  H   UNL     1       2.216  -1.909  -0.597  0.00  0.00    +0.000 HD
ATOM     18  H   UNL     1       2.385  -1.550   1.004  0.00  0.00    +0.000 HD
ENDBRANCH  15  16
ENDBRANCH   3  15
ENDBRANCH   1   3
BRANCH   1  19
ATOM     19  C   UNL     1       0.910   0.882   2.391  0.00  0.00    +0.000 C 
BRANCH  19  20
ATOM     20  C   UNL     1       0.449   0.571   3.788  0.00  0.00    +0.000 A 
ATOM     21  C   UNL     1      -0.362  -0.536   4.046  0.00  0.00    +0.000 A 
ATOM     22  C   UNL     1      -0.766  -0.810   5.348  0.00  0.00    +0.000 A 
ATOM     23  C   UNL     1      -0.339   0.031   6.371  0.00  0.00    +0.000 A 
ATOM     24  N   UNL     1       0.434   1.124   6.147  0.00  0.00    +0.000 NA
ATOM     25  C   UNL     1       0.802   1.369   4.870  0.00  0.00    +0.000 A 
BRANCH  23  26
ATOM     26  C   UNL     1      -0.771  -0.230   7.799  0.00  0.00    +0.000 C 
BRANCH  26  27
ATOM     27  N   UNL     1      -1.499   0.887   8.412  0.00  0.00    +0.000 NA
ATOM     28  H   UNL     1      -0.915   1.719   8.294  0.00  0.00    +0.000 HD
BRANCH  27  29
ATOM     29  C   UNL     1      -2.763   1.155   7.716  0.00  0.00    +0.000 C 
BRANCH  29  30
ATOM     30  C   UNL     1      -3.456   2.276   8.415  0.00  0.00    +0.000 A 
ATOM     31  C   UNL     1      -3.893   2.345   9.722  0.00  0.00    +0.000 A 
ATOM     32  N   UNL     1      -4.426   3.594   9.860  0.00  0.00    +0.000 N 
ATOM     33  C   UNL     1      -4.309   4.227   8.657  0.00  0.00    +0.000 A 
ATOM     34  N   UNL     1      -3.736   3.459   7.761  0.00  0.00    +0.000 NA
ATOM     35  H   UNL     1      -4.823   3.986  10.702  0.00  0.00    +0.000 HD
ENDBRANCH  29  30
ENDBRANCH  27  29
ENDBRANCH  26  27
ENDBRANCH  23  26
ENDBRANCH  19  20
ENDBRANCH   1  19
TORSDOF 10
