REMARK  Name = 
REMARK  8 active torsions:
REMARK  status: ('A' for Active; 'I' for Inactive)
REMARK    1  A    between atoms: C_2  and  C_21
REMARK    2  A    between atoms: N_3  and  C_4
REMARK    3  A    between atoms: C_4  and  C_5
REMARK    4  A    between atoms: C_8  and  C_9
REMARK    5  A    between atoms: C_9  and  C_10
REMARK    6  A    between atoms: C_10  and  O_11
REMARK    7  A    between atoms: C_10  and  C_12
REMARK    8  A    between atoms: C_12  and  C_13
REMARK                            x       y       z     vdW  Elec       q    Type
REMARK                         _______ _______ _______ _____ _____    ______ ____
ROOT
ATOM      1  C   UNL     1       3.169  -2.684   2.501  0.00  0.00    +0.000 A 
ATOM      2  C   UNL     1       4.229  -2.157   3.239  0.00  0.00    +0.000 A 
ATOM      3  C   UNL     1       5.046  -3.008   3.976  0.00  0.00    +0.000 A 
ATOM      4  C   UNL     1       4.792  -4.379   3.957  0.00  0.00    +0.000 A 
ATOM      5  N   UNL     1       3.795  -4.922   3.218  0.00  0.00    +0.000 NA
ATOM      6  C   UNL     1       3.020  -4.067   2.505  0.00  0.00    +0.000 A 
ENDROOT
BRANCH   1   7
ATOM      7  C   UNL     1       2.240  -1.792   1.734  0.00  0.00    +0.000 C 
BRANCH   7  10
ATOM      8  O   UNL     1       3.633   0.525   0.946  0.00  0.00    +0.000 OA
ATOM      9  C   UNL     1       3.450  -0.366   0.122  0.00  0.00    +0.000 C 
ATOM     10  N   UNL     1       2.738  -1.501   0.414  0.00  0.00    +0.000 N 
ATOM     11  H   UNL     1       2.723  -2.265  -0.251  0.00  0.00    +0.000 HD
BRANCH   9  12
ATOM     12  C   UNL     1       3.948  -0.248  -1.255  0.00  0.00    +0.000 A 
ATOM     13  C   UNL     1       4.256   1.003  -1.773  0.00  0.00    +0.000 A 
ATOM     14  S   UNL     1       4.848   0.955  -3.373  0.00  0.00    +0.000 S 
ATOM     15  C   UNL     1       4.750  -0.743  -3.416  0.00  0.00    +0.000 A 
ATOM     16  N   UNL     1       5.162  -1.440  -4.509  0.00  0.00    +0.000 NA
ATOM     17  C   UNL     1       5.079  -2.721  -4.385  0.00  0.00    +0.000 A 
ATOM     18  N   UNL     1       4.598  -3.372  -3.277  0.00  0.00    +0.000 N 
ATOM     19  C   UNL     1       4.075  -2.710  -2.198  0.00  0.00    +0.000 A 
ATOM     20  O   UNL     1       3.488  -3.305  -1.308  0.00  0.00    +0.000 OA
ATOM     21  C   UNL     1       4.225  -1.262  -2.245  0.00  0.00    +0.000 A 
ATOM     22  H   UNL     1       4.512  -4.376  -3.267  0.00  0.00    +0.000 HD
ENDBRANCH   9  12
ENDBRANCH   7  10
ENDBRANCH   1   7
BRANCH   4  23
ATOM     23  C   UNL     1       5.661  -5.323   4.757  0.00  0.00    +0.000 C 
BRANCH  23  24
ATOM     24  C   UNL     1       6.894  -5.764   3.957  0.00  0.00    +0.000 C 
BRANCH  24  25
ATOM     25  O   UNL     1       7.724  -4.619   3.715  0.00  0.00    +0.000 OA
ATOM     26  H   UNL     1       8.237  -4.436   4.521  0.00  0.00    +0.000 HD
ENDBRANCH  24  25
BRANCH  24  27
ATOM     27  C   UNL     1       7.694  -6.844   4.711  0.00  0.00    +0.000 C 
BRANCH  27  28
ATOM     28  C   UNL     1       8.908  -7.299   3.934  0.00  0.00    +0.000 A 
ATOM     29  C   UNL     1       8.770  -7.937   2.703  0.00  0.00    +0.000 A 
ATOM     30  C   UNL     1       9.914  -8.259   1.978  0.00  0.00    +0.000 A 
ATOM     31  C   UNL     1      11.162  -7.955   2.505  0.00  0.00    +0.000 A 
ATOM     32  C   UNL     1      11.213  -7.347   3.748  0.00  0.00    +0.000 A 
ATOM     33  N   UNL     1      10.121  -7.014   4.472  0.00  0.00    +0.000 NA
ENDBRANCH  27  28
ENDBRANCH  24  27
ENDBRANCH  23  24
ENDBRANCH   4  23
TORSDOF 8
