REMARK  Name = 
REMARK  5 active torsions:
REMARK  status: ('A' for Active; 'I' for Inactive)
REMARK    1  A    between atoms: C_2  and  C_4
REMARK    2  A    between atoms: C_7  and  O_8
REMARK    3  A    between atoms: O_8  and  C_9
REMARK    4  A    between atoms: C_9  and  C_10
REMARK    5  A    between atoms: C_15  and  C_16
REMARK                            x       y       z     vdW  Elec       q    Type
REMARK                         _______ _______ _______ _____ _____    ______ ____
ROOT
ATOM      1  C   UNL     1       5.744  -7.083  -0.895  0.00  0.00    +0.000 A 
ATOM      2  C   UNL     1       7.106  -6.891  -0.655  0.00  0.00    +0.000 A 
ATOM      3  C   UNL     1       7.941  -7.992  -0.517  0.00  0.00    +0.000 A 
ATOM      4  F   UNL     1       9.247  -7.802  -0.289  0.00  0.00    +0.000 F 
ATOM      5  C   UNL     1       7.450  -9.292  -0.615  0.00  0.00    +0.000 A 
ATOM      6  C   UNL     1       6.085  -9.532  -0.845  0.00  0.00    +0.000 A 
ATOM      7  C   UNL     1       5.249  -8.402  -0.974  0.00  0.00    +0.000 A 
ENDROOT
BRANCH   6   8
ATOM      8  C   UNL     1       5.554 -10.911  -0.953  0.00  0.00    +0.000 A 
ATOM      9  C   UNL     1       4.480 -11.236  -1.794  0.00  0.00    +0.000 A 
ATOM     10  N   UNL     1       3.940 -12.474  -1.942  0.00  0.00    +0.000 NA
ATOM     11  C   UNL     1       4.506 -13.465  -1.219  0.00  0.00    +0.000 A 
ATOM     12  C   UNL     1       5.572 -13.263  -0.366  0.00  0.00    +0.000 A 
ATOM     13  F   UNL     1       6.098 -14.284   0.322  0.00  0.00    +0.000 F 
ATOM     14  C   UNL     1       6.097 -11.983  -0.227  0.00  0.00    +0.000 A 
ENDBRANCH   6   8
BRANCH   1  15
ATOM     15  C   UNL     1       4.811  -5.903  -1.067  0.00  0.00    +0.000 C 
BRANCH  15  16
ATOM     16  O   UNL     1       4.226  -6.000  -2.367  0.00  0.00    +0.000 OA
BRANCH  16  20
ATOM     17  C   UNL     1       1.594  -3.089  -3.406  0.00  0.00    +0.000 A 
ATOM     18  C   UNL     1       2.209  -3.057  -2.161  0.00  0.00    +0.000 A 
ATOM     19  N   UNL     1       3.099  -4.004  -1.755  0.00  0.00    +0.000 NA
ATOM     20  C   UNL     1       3.345  -4.982  -2.657  0.00  0.00    +0.000 A 
ATOM     21  C   UNL     1       2.730  -5.011  -3.906  0.00  0.00    +0.000 A 
ATOM     22  N   UNL     1       1.837  -4.075  -4.317  0.00  0.00    +0.000 NA
BRANCH  17  24
ATOM     23  N   UNL     1       0.037  -2.166  -5.016  0.00  0.00    +0.000 N 
ATOM     24  C   UNL     1       0.624  -2.026  -3.788  0.00  0.00    +0.000 C 
ATOM     25  O   UNL     1       0.362  -1.086  -3.048  0.00  0.00    +0.000 OA
ATOM     26  H   UNL     1      -0.636  -1.481  -5.330  0.00  0.00    +0.000 HD
ATOM     27  H   UNL     1       0.266  -2.961  -5.603  0.00  0.00    +0.000 HD
ENDBRANCH  17  24
ENDBRANCH  16  20
ENDBRANCH  15  16
ENDBRANCH   1  15
TORSDOF 5
