REMARK  Name = 
REMARK  5 active torsions:
REMARK  status: ('A' for Active; 'I' for Inactive)
REMARK    1  A    between atoms: C_1  and  C_2
REMARK    2  A    between atoms: C_2  and  C_3
REMARK    3  A    between atoms: C_2  and  C_14
REMARK    4  A    between atoms: C_3  and  N_4
REMARK    5  A    between atoms: C_9  and  C_10
REMARK                            x       y       z     vdW  Elec       q    Type
REMARK                         _______ _______ _______ _____ _____    ______ ____
ROOT
ATOM      1  N   UNL     1       2.832  -0.226  -2.352  0.00  0.00    +0.000 N 
ATOM      2  C   UNL     1       3.385   0.112  -3.572  0.00  0.00    +0.000 A 
ATOM      3  N   UNL     1       2.664  -0.227  -4.648  0.00  0.00    +0.000 NA
ATOM      4  C   UNL     1       3.183   0.047  -5.860  0.00  0.00    +0.000 A 
ATOM      5  C   UNL     1       4.393   0.658  -6.037  0.00  0.00    +0.000 A 
ATOM      6  C   UNL     1       5.045   0.977  -4.872  0.00  0.00    +0.000 A 
ATOM      7  N   UNL     1       4.570   0.722  -3.629  0.00  0.00    +0.000 NA
ATOM      8  H   UNL     1       1.840  -0.365  -2.514  0.00  0.00    +0.000 HD
ENDROOT
BRANCH   6   9
ATOM      9  C   UNL     1       6.376   1.654  -4.933  0.00  0.00    +0.000 C 
ATOM     10  N   UNL     1       6.952   1.929  -3.723  0.00  0.00    +0.000 N 
ATOM     11  O   UNL     1       6.921   1.941  -5.992  0.00  0.00    +0.000 OA
ATOM     12  H   UNL     1       6.489   1.632  -2.871  0.00  0.00    +0.000 HD
ATOM     13  H   UNL     1       7.870   2.346  -3.690  0.00  0.00    +0.000 HD
ENDBRANCH   6   9
BRANCH   1  14
ATOM     14  C   UNL     1       3.146   0.662  -1.254  0.00  0.00    +0.000 C 
BRANCH  14  16
ATOM     15  C   UNL     1       2.924  -1.126   0.578  0.00  0.00    +0.000 C 
ATOM     16  C   UNL     1       2.417   0.135  -0.050  0.00  0.00    +0.000 C 
BRANCH  16  17
ATOM     17  C   UNL     1       1.011   0.525   0.126  0.00  0.00    +0.000 A 
ATOM     18  C   UNL     1       0.655   1.872   0.265  0.00  0.00    +0.000 A 
ATOM     19  C   UNL     1      -0.689   2.244   0.343  0.00  0.00    +0.000 A 
ATOM     20  C   UNL     1      -1.687   1.274   0.280  0.00  0.00    +0.000 A 
ATOM     21  C   UNL     1      -1.343  -0.071   0.162  0.00  0.00    +0.000 A 
ATOM     22  C   UNL     1      -0.001  -0.443   0.096  0.00  0.00    +0.000 A 
ENDBRANCH  16  17
ENDBRANCH  14  16
ENDBRANCH   1  14
TORSDOF 4
