REMARK  Name = 
REMARK  4 active torsions:
REMARK  status: ('A' for Active; 'I' for Inactive)
REMARK    1  A    between atoms: N_1  and  C_2
REMARK    2  A    between atoms: C_2  and  C_3
REMARK    3  A    between atoms: C_6  and  C_7
REMARK    4  A    between atoms: C_7  and  N_8
REMARK                            x       y       z     vdW  Elec       q    Type
REMARK                         _______ _______ _______ _____ _____    ______ ____
ROOT
ATOM      1  C   UNL     1       4.597   5.527   0.784  0.00  0.00    +0.000 C 
ENDROOT
BRANCH   1   2
ATOM      2  N   UNL     1       4.787   6.534  -0.259  0.00  0.00    +0.000 N 
ATOM      3  C   UNL     1       5.650   6.381  -1.323  0.00  0.00    +0.000 A 
ATOM      4  C   UNL     1       5.594   7.527  -2.079  0.00  0.00    +0.000 A 
ATOM      5  C   UNL     1       5.057   8.524  -1.231  0.00  0.00    +0.000 A 
ATOM      6  C   UNL     1       5.090   9.932  -1.243  0.00  0.00    +0.000 A 
ATOM      7  C   UNL     1       4.431  10.647  -0.238  0.00  0.00    +0.000 A 
ATOM      8  C   UNL     1       3.646   9.969   0.697  0.00  0.00    +0.000 A 
ATOM      9  C   UNL     1       3.612   8.573   0.724  0.00  0.00    +0.000 A 
ATOM     10  F   UNL     1       2.859   7.950   1.639  0.00  0.00    +0.000 F 
ATOM     11  C   UNL     1       4.404   7.863  -0.185  0.00  0.00    +0.000 A 
ENDBRANCH   1   2
BRANCH   1  15
ATOM     12  C   UNL     1       2.673   1.852  -0.524  0.00  0.00    +0.000 A 
ATOM     13  C   UNL     1       4.056   2.008  -0.617  0.00  0.00    +0.000 A 
ATOM     14  C   UNL     1       4.680   3.191  -0.205  0.00  0.00    +0.000 A 
ATOM     15  C   UNL     1       3.926   4.267   0.297  0.00  0.00    +0.000 A 
ATOM     16  C   UNL     1       2.531   4.126   0.354  0.00  0.00    +0.000 A 
ATOM     17  C   UNL     1       1.920   2.937  -0.046  0.00  0.00    +0.000 A 
BRANCH  12  18
ATOM     18  C   UNL     1       1.972   0.594  -0.990  0.00  0.00    +0.000 C 
BRANCH  18  19
ATOM     19  N   UNL     1       2.724  -0.635  -0.720  0.00  0.00    +0.000 NA
ATOM     20  H   UNL     1       2.170  -1.432  -1.030  0.00  0.00    +0.000 HD
ATOM     21  H   UNL     1       2.834  -0.739   0.287  0.00  0.00    +0.000 HD
ENDBRANCH  18  19
ENDBRANCH  12  18
ENDBRANCH   1  15
TORSDOF 4
