REMARK  Name = 
REMARK  7 active torsions:
REMARK  status: ('A' for Active; 'I' for Inactive)
REMARK    1  A    between atoms: C_1  and  C_2
REMARK    2  A    between atoms: C_2  and  C_3
REMARK    3  A    between atoms: C_7  and  C_8
REMARK    4  A    between atoms: C_8  and  C_9
REMARK    5  A    between atoms: C_9  and  N_10
REMARK    6  A    between atoms: C_14  and  C_15
REMARK    7  A    between atoms: C_23  and  O_24
REMARK                            x       y       z     vdW  Elec       q    Type
REMARK                         _______ _______ _______ _____ _____    ______ ____
ROOT
ATOM      1  C   UNL     1       3.035   0.344   1.466  0.00  0.00    +0.000 A 
ATOM      2  C   UNL     1       2.727   1.589   2.023  0.00  0.00    +0.000 A 
ATOM      3  C   UNL     1       3.030   1.875   3.356  0.00  0.00    +0.000 A 
ATOM      4  C   UNL     1       3.618   0.906   4.171  0.00  0.00    +0.000 A 
ATOM      5  C   UNL     1       3.934  -0.353   3.651  0.00  0.00    +0.000 A 
ATOM      6  C   UNL     1       3.693  -0.580   2.288  0.00  0.00    +0.000 A 
ENDROOT
BRANCH   1   8
ATOM      7  C   UNL     1       1.007  -0.025   0.103  0.00  0.00    +0.000 C 
ATOM      8  C   UNL     1       2.556  -0.049   0.054  0.00  0.00    +0.000 C 
ATOM      9  C   UNL     1       3.091   0.961  -0.992  0.00  0.00    +0.000 C 
ATOM     10  C   UNL     1       2.712   0.592  -2.427  0.00  0.00    +0.000 C 
ATOM     11  C   UNL     1       3.147  -0.826  -2.789  0.00  0.00    +0.000 C 
ATOM     12  C   UNL     1       2.620  -1.852  -1.794  0.00  0.00    +0.000 C 
ATOM     13  C   UNL     1       3.017  -1.478  -0.373  0.00  0.00    +0.000 C 
BRANCH  11  14
ATOM     14  O   UNL     1       2.680  -1.150  -4.092  0.00  0.00    +0.000 OA
ATOM     15  H   UNL     1       1.710  -1.199  -4.058  0.00  0.00    +0.000 HD
ENDBRANCH  11  14
ENDBRANCH   1   8
BRANCH   5  16
ATOM     16  C   UNL     1       4.429  -1.469   4.560  0.00  0.00    +0.000 C 
BRANCH  16  17
ATOM     17  C   UNL     1       4.707  -2.785   3.813  0.00  0.00    +0.000 C 
BRANCH  17  18
ATOM     18  N   UNL     1       5.118  -3.885   4.688  0.00  0.00    +0.000 N 
ATOM     19  C   UNL     1       5.351  -5.064   3.935  0.00  0.00    +0.000 A 
ATOM     20  C   UNL     1       5.754  -6.238   4.584  0.00  0.00    +0.000 A 
ATOM     21  N   UNL     1       5.971  -7.426   3.954  0.00  0.00    +0.000 NA
ATOM     22  C   UNL     1       5.777  -7.392   2.608  0.00  0.00    +0.000 A 
ATOM     23  C   UNL     1       5.402  -6.239   1.941  0.00  0.00    +0.000 A 
ATOM     24  N   UNL     1       5.193  -5.063   2.590  0.00  0.00    +0.000 NA
ATOM     25  H   UNL     1       4.405  -4.091   5.384  0.00  0.00    +0.000 HD
BRANCH  22  26
ATOM     26  C   UNL     1       5.952  -8.656   1.840  0.00  0.00    +0.000 C 
ATOM     27  N   UNL     1       6.320  -9.763   2.568  0.00  0.00    +0.000 N 
ATOM     28  O   UNL     1       5.774  -8.714   0.631  0.00  0.00    +0.000 OA
ATOM     29  H   UNL     1       6.464  -9.694   3.571  0.00  0.00    +0.000 HD
ATOM     30  H   UNL     1       6.450 -10.644   2.096  0.00  0.00    +0.000 HD
ENDBRANCH  22  26
ENDBRANCH  17  18
ENDBRANCH  16  17
ENDBRANCH   5  16
TORSDOF 6
