REMARK  Name = 
REMARK  4 active torsions:
REMARK  status: ('A' for Active; 'I' for Inactive)
REMARK    1  A    between atoms: C_2  and  C_4
REMARK    2  A    between atoms: N_8  and  C_9
REMARK    3  A    between atoms: C_9  and  C_10
REMARK    4  A    between atoms: C_15  and  C_16
REMARK                            x       y       z     vdW  Elec       q    Type
REMARK                         _______ _______ _______ _____ _____    ______ ____
ROOT
ATOM      1  C   UNL     1       6.721   2.859  -3.800  0.00  0.00    +0.000 C 
ENDROOT
BRANCH   1   6
ATOM      2  C   UNL     1       6.877  -1.865  -2.397  0.00  0.00    +0.000 A 
ATOM      3  C   UNL     1       6.369  -1.210  -3.490  0.00  0.00    +0.000 A 
ATOM      4  N   UNL     1       6.635   0.082  -3.773  0.00  0.00    +0.000 NA
ATOM      5  C   UNL     1       7.429   0.751  -2.920  0.00  0.00    +0.000 A 
ATOM      6  N   UNL     1       7.766   2.064  -3.188  0.00  0.00    +0.000 N 
ATOM      7  N   UNL     1       7.959   0.207  -1.819  0.00  0.00    +0.000 NA
ATOM      8  C   UNL     1       7.665  -1.095  -1.573  0.00  0.00    +0.000 A 
ATOM      9  H   UNL     1       8.173   2.459  -2.348  0.00  0.00    +0.000 HD
BRANCH   2  11
ATOM     10  N   UNL     1       6.251  -4.104  -3.105  0.00  0.00    +0.000 N 
ATOM     11  C   UNL     1       6.576  -3.265  -2.074  0.00  0.00    +0.000 C 
ATOM     12  O   UNL     1       6.636  -3.672  -0.921  0.00  0.00    +0.000 OA
ATOM     13  H   UNL     1       6.124  -5.080  -2.865  0.00  0.00    +0.000 HD
ATOM     14  H   UNL     1       6.424  -3.890  -4.077  0.00  0.00    +0.000 HD
ENDBRANCH   2  11
ENDBRANCH   1   6
BRANCH   1  15
ATOM     15  C   UNL     1       7.346   3.996  -4.573  0.00  0.00    +0.000 A 
ATOM     16  C   UNL     1       6.998   5.325  -4.327  0.00  0.00    +0.000 A 
ATOM     17  C   UNL     1       7.563   6.330  -5.099  0.00  0.00    +0.000 A 
ATOM     18  F   UNL     1       7.218   7.605  -4.871  0.00  0.00    +0.000 F 
ATOM     19  C   UNL     1       8.479   6.044  -6.110  0.00  0.00    +0.000 A 
ATOM     20  C   UNL     1       8.855   4.721  -6.391  0.00  0.00    +0.000 A 
ATOM     21  C   UNL     1       8.259   3.712  -5.610  0.00  0.00    +0.000 A 
BRANCH  20  22
ATOM     22  C   UNL     1       9.831   4.397  -7.458  0.00  0.00    +0.000 A 
ATOM     23  C   UNL     1      10.703   3.294  -7.350  0.00  0.00    +0.000 A 
ATOM     24  C   UNL     1      11.625   2.982  -8.357  0.00  0.00    +0.000 A 
ATOM     25  C   UNL     1      11.703   3.776  -9.495  0.00  0.00    +0.000 A 
ATOM     26  C   UNL     1      10.858   4.868  -9.616  0.00  0.00    +0.000 A 
ATOM     27  F   UNL     1      10.933   5.642 -10.706  0.00  0.00    +0.000 F 
ATOM     28  C   UNL     1       9.931   5.178  -8.623  0.00  0.00    +0.000 A 
ENDBRANCH  20  22
ENDBRANCH   1  15
TORSDOF 4
