REMARK  Name = 
REMARK  9 active torsions:
REMARK  status: ('A' for Active; 'I' for Inactive)
REMARK    1  A    between atoms: C_1  and  C_2
REMARK    2  A    between atoms: C_2  and  C_3
REMARK    3  A    between atoms: C_2  and  C_4
REMARK    4  A    between atoms: C_2  and  C_5
REMARK    5  A    between atoms: C_9  and  C_10
REMARK    6  A    between atoms: N_16  and  C_17
REMARK    7  A    between atoms: C_17  and  C_18
REMARK    8  A    between atoms: C_21  and  O_22
REMARK    9  A    between atoms: O_22  and  C_23
REMARK                            x       y       z     vdW  Elec       q    Type
REMARK                         _______ _______ _______ _____ _____    ______ ____
ROOT
ATOM      1  C   UNL     1       2.714  -1.442  -0.250  0.00  0.00    +0.000 A 
ATOM      2  N   UNL     1       2.143  -2.583   0.116  0.00  0.00    +0.000 NA
ATOM      3  C   UNL     1       2.903  -3.582  -0.375  0.00  0.00    +0.000 A 
ATOM      4  C   UNL     1       2.711  -4.955  -0.290  0.00  0.00    +0.000 A 
ATOM      5  C   UNL     1       3.681  -5.695  -0.934  0.00  0.00    +0.000 A 
ATOM      6  N   UNL     1       4.745  -5.168  -1.602  0.00  0.00    +0.000 NA
ATOM      7  N   UNL     1       4.920  -3.838  -1.680  0.00  0.00    +0.000 NA
ATOM      8  C   UNL     1       3.992  -3.088  -1.059  0.00  0.00    +0.000 A 
ATOM      9  N   UNL     1       3.896  -1.708  -0.946  0.00  0.00    +0.000 N 
ENDROOT
BRANCH   5  10
ATOM     10  C   UNL     1       3.539  -7.188  -0.913  0.00  0.00    +0.000 C 
ATOM     11  N   UNL     1       4.493  -7.906  -1.580  0.00  0.00    +0.000 N 
ATOM     12  O   UNL     1       2.617  -7.749  -0.336  0.00  0.00    +0.000 OA
ATOM     13  H   UNL     1       5.257  -7.450  -2.058  0.00  0.00    +0.000 HD
ATOM     14  H   UNL     1       4.416  -8.914  -1.590  0.00  0.00    +0.000 HD
ENDBRANCH   5  10
BRANCH   1  16
ATOM     15  C   UNL     1       0.736  -0.438   0.908  0.00  0.00    +0.000 C 
ATOM     16  C   UNL     1       2.028  -0.120   0.092  0.00  0.00    +0.000 C 
ATOM     17  C   UNL     1       1.570   0.625  -1.169  0.00  0.00    +0.000 C 
ATOM     18  C   UNL     1       2.889   0.764   0.995  0.00  0.00    +0.000 C 
ENDBRANCH   1  16
BRANCH   9  19
ATOM     19  C   UNL     1       4.866  -0.800  -1.566  0.00  0.00    +0.000 C 
BRANCH  19  20
ATOM     20  C   UNL     1       6.013  -0.436  -0.643  0.00  0.00    +0.000 A 
ATOM     21  C   UNL     1       6.859  -1.408  -0.089  0.00  0.00    +0.000 A 
ATOM     22  C   UNL     1       7.787  -1.081   0.914  0.00  0.00    +0.000 A 
ATOM     23  C   UNL     1       7.922   0.235   1.343  0.00  0.00    +0.000 A 
ATOM     24  C   UNL     1       7.172   1.224   0.701  0.00  0.00    +0.000 A 
ATOM     25  C   UNL     1       6.249   0.900  -0.298  0.00  0.00    +0.000 A 
BRANCH  23  26
ATOM     26  O   UNL     1       8.727   0.718   2.327  0.00  0.00    +0.000 OA
BRANCH  26  27
ATOM     27  C   UNL     1       9.571  -0.139   3.076  0.00  0.00    +0.000 C 
ATOM     28  F   UNL     1      10.132  -1.111   2.329  0.00  0.00    +0.000 F 
ATOM     29  F   UNL     1      10.575   0.612   3.586  0.00  0.00    +0.000 F 
ATOM     30  F   UNL     1       8.898  -0.691   4.106  0.00  0.00    +0.000 F 
ENDBRANCH  26  27
ENDBRANCH  23  26
ENDBRANCH  19  20
ENDBRANCH   9  19
TORSDOF 6
