REMARK  Name = 
REMARK  4 active torsions:
REMARK  status: ('A' for Active; 'I' for Inactive)
REMARK    1  A    between atoms: C_2  and  C_4
REMARK    2  A    between atoms: N_8  and  C_9
REMARK    3  A    between atoms: C_9  and  C_10
REMARK    4  A    between atoms: C_14  and  C_15
REMARK                            x       y       z     vdW  Elec       q    Type
REMARK                         _______ _______ _______ _____ _____    ______ ____
ROOT
ATOM      1  C   UNL     1       4.825   5.343  -2.846  0.00  0.00    +0.000 C 
ATOM      2  C   UNL     1       5.190   6.376  -1.794  0.00  0.00    +0.000 C 
ATOM      3  C   UNL     1       3.785   6.296  -2.287  0.00  0.00    +0.000 C 
ENDROOT
BRANCH   1   8
ATOM      4  C   UNL     1       2.769   0.535  -2.929  0.00  0.00    +0.000 A 
ATOM      5  C   UNL     1       2.181   1.751  -3.275  0.00  0.00    +0.000 A 
ATOM      6  C   UNL     1       2.915   2.932  -3.125  0.00  0.00    +0.000 A 
ATOM      7  C   UNL     1       4.218   2.866  -2.647  0.00  0.00    +0.000 A 
ATOM      8  N   UNL     1       5.002   3.975  -2.364  0.00  0.00    +0.000 N 
ATOM      9  N   UNL     1       4.803   1.690  -2.334  0.00  0.00    +0.000 NA
ATOM     10  C   UNL     1       4.070   0.558  -2.460  0.00  0.00    +0.000 A 
ATOM     11  H   UNL     1       5.943   3.643  -2.173  0.00  0.00    +0.000 HD
BRANCH   4  13
ATOM     12  N   UNL     1       1.059  -0.883  -3.913  0.00  0.00    +0.000 N 
ATOM     13  C   UNL     1       2.071  -0.763  -3.004  0.00  0.00    +0.000 C 
ATOM     14  O   UNL     1       2.410  -1.711  -2.307  0.00  0.00    +0.000 OA
ATOM     15  H   UNL     1       0.668  -1.810  -4.028  0.00  0.00    +0.000 HD
ATOM     16  H   UNL     1       0.938  -0.227  -4.672  0.00  0.00    +0.000 HD
ENDBRANCH   4  13
ENDBRANCH   1   8
BRANCH   1  17
ATOM     17  C   UNL     1       5.201   5.504  -4.314  0.00  0.00    +0.000 A 
ATOM     18  C   UNL     1       6.525   5.356  -4.752  0.00  0.00    +0.000 A 
ATOM     19  C   UNL     1       6.823   5.232  -6.109  0.00  0.00    +0.000 A 
ATOM     20  C   UNL     1       5.799   5.261  -7.058  0.00  0.00    +0.000 A 
ATOM     21  C   UNL     1       4.462   5.452  -6.678  0.00  0.00    +0.000 A 
ATOM     22  C   UNL     1       4.200   5.603  -5.304  0.00  0.00    +0.000 A 
BRANCH  21  23
ATOM     23  C   UNL     1       3.356   5.393  -7.663  0.00  0.00    +0.000 A 
ATOM     24  C   UNL     1       2.244   6.242  -7.595  0.00  0.00    +0.000 A 
ATOM     25  N   UNL     1       1.170   6.187  -8.427  0.00  0.00    +0.000 NA
ATOM     26  C   UNL     1       1.207   5.243  -9.392  0.00  0.00    +0.000 A 
ATOM     27  C   UNL     1       2.260   4.364  -9.553  0.00  0.00    +0.000 A 
ATOM     28  F   UNL     1       2.235   3.436 -10.515  0.00  0.00    +0.000 F 
ATOM     29  C   UNL     1       3.339   4.431  -8.676  0.00  0.00    +0.000 A 
ENDBRANCH  21  23
ENDBRANCH   1  17
TORSDOF 4
