REMARK  Name = 
REMARK  3 active torsions:
REMARK  status: ('A' for Active; 'I' for Inactive)
REMARK    1  A    between atoms: C_2  and  C_3
REMARK    2  A    between atoms: C_6  and  C_7
REMARK    3  A    between atoms: C_7  and  C_8
REMARK                            x       y       z     vdW  Elec       q    Type
REMARK                         _______ _______ _______ _____ _____    ______ ____
ROOT
ATOM      1  C   UNL     1       7.929   0.261  -0.046  0.00  0.00    +0.000 C 
ATOM      2  C   UNL     1       8.807  -0.344  -1.144  0.00  0.00    +0.000 C 
ATOM      3  C   UNL     1       8.845  -0.943   0.220  0.00  0.00    +0.000 C 
ENDROOT
BRANCH   1   7
ATOM      4  C   UNL     1       3.731  -0.470  -0.178  0.00  0.00    +0.000 A 
ATOM      5  N   UNL     1       4.283   0.129  -1.246  0.00  0.00    +0.000 NA
ATOM      6  C   UNL     1       5.618   0.359  -1.172  0.00  0.00    +0.000 A 
ATOM      7  C   UNL     1       6.429   0.013  -0.095  0.00  0.00    +0.000 A 
ATOM      8  C   UNL     1       5.722  -0.582   0.940  0.00  0.00    +0.000 A 
ATOM      9  N   UNL     1       4.393  -0.842   0.933  0.00  0.00    +0.000 NA
BRANCH   4  11
ATOM     10  N   UNL     1       1.186  -1.031  -0.262  0.00  0.00    +0.000 NA
ATOM     11  C   UNL     1       2.318  -0.774  -0.228  0.00  0.00    +0.000 C 
ENDBRANCH   4  11
ENDBRANCH   1   7
BRANCH   1  12
ATOM     12  C   UNL     1       8.407   1.588   0.549  0.00  0.00    +0.000 A 
ATOM     13  C   UNL     1       8.625   1.720   1.932  0.00  0.00    +0.000 A 
ATOM     14  C   UNL     1       9.302   2.822   2.455  0.00  0.00    +0.000 A 
ATOM     15  C   UNL     1       9.719   3.848   1.612  0.00  0.00    +0.000 A 
ATOM     16  C   UNL     1       9.425   3.789   0.253  0.00  0.00    +0.000 A 
ATOM     17  C   UNL     1       8.776   2.669  -0.271  0.00  0.00    +0.000 A 
ENDBRANCH   1  12
TORSDOF 3
