REMARK  Name = 
REMARK  6 active torsions:
REMARK  status: ('A' for Active; 'I' for Inactive)
REMARK    1  A    between atoms: C_2  and  C_5
REMARK    2  A    between atoms: N_3  and  O_4
REMARK    3  A    between atoms: C_9  and  N_10
REMARK    4  A    between atoms: N_10  and  C_11
REMARK    5  A    between atoms: C_11  and  C_12
REMARK    6  A    between atoms: C_12  and  C_13
REMARK                            x       y       z     vdW  Elec       q    Type
REMARK                         _______ _______ _______ _____ _____    ______ ____
ROOT
ATOM      1  C   UNL     1       2.919  -1.564  -0.086  0.00  0.00    +0.000 A 
ATOM      2  C   UNL     1       4.233  -1.665   0.342  0.00  0.00    +0.000 A 
ATOM      3  N   UNL     1       5.120  -2.539  -0.193  0.00  0.00    +0.000 NA
ATOM      4  C   UNL     1       4.656  -3.333  -1.190  0.00  0.00    +0.000 A 
ATOM      5  C   UNL     1       3.365  -3.301  -1.723  0.00  0.00    +0.000 A 
ATOM      6  C   UNL     1       2.487  -2.392  -1.133  0.00  0.00    +0.000 A 
ENDROOT
BRANCH   1   8
ATOM      7  O   UNL     1       2.422   0.455   1.035  0.00  0.00    +0.000 OA
ATOM      8  C   UNL     1       2.008  -0.589   0.553  0.00  0.00    +0.000 C 
ATOM      9  N   UNL     1       0.675  -0.944   0.575  0.00  0.00    +0.000 N 
ATOM     10  H   UNL     1       0.368  -1.911   0.547  0.00  0.00    +0.000 HD
BRANCH   9  11
ATOM     11  O   UNL     1      -0.183  -0.035   1.236  0.00  0.00    +0.000 OA
ATOM     12  H   UNL     1       0.423   0.710   1.442  0.00  0.00    +0.000 HD
ENDBRANCH   9  11
ENDBRANCH   1   8
BRANCH   5  13
ATOM     13  N   UNL     1       2.966  -4.245  -2.685  0.00  0.00    +0.000 N 
ATOM     14  H   UNL     1       3.765  -4.717  -3.104  0.00  0.00    +0.000 HD
BRANCH  13  15
ATOM     15  C   UNL     1       1.970  -3.844  -3.689  0.00  0.00    +0.000 C 
BRANCH  15  16
ATOM     16  C   UNL     1       1.699  -5.000  -4.663  0.00  0.00    +0.000 C 
BRANCH  16  17
ATOM     17  C   UNL     1       0.660  -4.637  -5.696  0.00  0.00    +0.000 A 
ATOM     18  C   UNL     1      -0.168  -5.617  -6.238  0.00  0.00    +0.000 A 
ATOM     19  C   UNL     1      -1.112  -5.247  -7.194  0.00  0.00    +0.000 A 
ATOM     20  C   UNL     1      -1.194  -3.919  -7.594  0.00  0.00    +0.000 A 
ATOM     21  C   UNL     1      -0.319  -3.013  -7.026  0.00  0.00    +0.000 A 
ATOM     22  N   UNL     1       0.605  -3.345  -6.098  0.00  0.00    +0.000 NA
ENDBRANCH  16  17
ENDBRANCH  15  16
ENDBRANCH  13  15
ENDBRANCH   5  13
TORSDOF 6
