REMARK  Name = 
REMARK  6 active torsions:
REMARK  status: ('A' for Active; 'I' for Inactive)
REMARK    1  A    between atoms: C_2  and  C_25
REMARK    2  A    between atoms: N_3  and  C_4
REMARK    3  A    between atoms: C_4  and  C_5
REMARK    4  A    between atoms: C_8  and  C_9
REMARK    5  A    between atoms: C_9  and  N_10
REMARK    6  A    between atoms: C_11  and  C_13
REMARK                            x       y       z     vdW  Elec       q    Type
REMARK                         _______ _______ _______ _____ _____    ______ ____
ROOT
ATOM      1  C   UNL     1       3.280   3.531   0.206  0.00  0.00    +0.000 A 
ATOM      2  C   UNL     1       2.768   4.828   0.125  0.00  0.00    +0.000 A 
ATOM      3  C   UNL     1       3.626   5.922   0.232  0.00  0.00    +0.000 A 
ATOM      4  C   UNL     1       4.982   5.696   0.453  0.00  0.00    +0.000 A 
ATOM      5  N   UNL     1       5.500   4.444   0.553  0.00  0.00    +0.000 NA
ATOM      6  C   UNL     1       4.646   3.402   0.425  0.00  0.00    +0.000 A 
ENDROOT
BRANCH   1   7
ATOM      7  C   UNL     1       2.399   2.325   0.066  0.00  0.00    +0.000 C 
BRANCH   7  10
ATOM      8  O   UNL     1       0.530   0.288   0.402  0.00  0.00    +0.000 OA
ATOM      9  C   UNL     1       0.967   0.852   1.402  0.00  0.00    +0.000 C 
ATOM     10  N   UNL     1       1.882   1.877   1.336  0.00  0.00    +0.000 N 
ATOM     11  H   UNL     1       2.337   2.182   2.184  0.00  0.00    +0.000 HD
BRANCH   9  12
ATOM     12  C   UNL     1       0.565   0.473   2.740  0.00  0.00    +0.000 A 
ATOM     13  C   UNL     1       0.814   1.039   3.981  0.00  0.00    +0.000 A 
ATOM     14  C   UNL     1       0.165   0.254   4.965  0.00  0.00    +0.000 A 
ATOM     15  C   UNL     1      -0.471  -0.774   4.311  0.00  0.00    +0.000 A 
ATOM     16  N   UNL     1      -0.232  -0.630   2.970  0.00  0.00    +0.000 N 
ATOM     17  H   UNL     1      -0.583  -1.235   2.235  0.00  0.00    +0.000 HD
ENDBRANCH   9  12
ENDBRANCH   7  10
ENDBRANCH   1   7
BRANCH   4  18
ATOM     18  C   UNL     1       5.941   6.856   0.572  0.00  0.00    +0.000 C 
BRANCH  18  19
ATOM     19  N   UNL     1       6.508   7.240  -0.702  0.00  0.00    +0.000 N 
ATOM     20  C   UNL     1       6.056   8.314  -1.420  0.00  0.00    +0.000 C 
ATOM     21  O   UNL     1       5.115   9.004  -1.032  0.00  0.00    +0.000 OA
ATOM     22  H   UNL     1       7.133   6.564  -1.132  0.00  0.00    +0.000 HD
BRANCH  20  23
ATOM     23  C   UNL     1       6.796   8.651  -2.644  0.00  0.00    +0.000 A 
ATOM     24  C   UNL     1       6.718   9.940  -3.158  0.00  0.00    +0.000 A 
ATOM     25  S   UNL     1       7.665  10.181  -4.555  0.00  0.00    +0.000 S 
ATOM     26  C   UNL     1       8.182   8.561  -4.550  0.00  0.00    +0.000 A 
ATOM     27  N   UNL     1       9.013   8.091  -5.520  0.00  0.00    +0.000 NA
ATOM     28  C   UNL     1       9.301   6.837  -5.413  0.00  0.00    +0.000 A 
ATOM     29  N   UNL     1       8.841   6.013  -4.419  0.00  0.00    +0.000 N 
ATOM     30  C   UNL     1       8.042   6.456  -3.392  0.00  0.00    +0.000 A 
ATOM     31  O   UNL     1       7.718   5.712  -2.473  0.00  0.00    +0.000 OA
ATOM     32  C   UNL     1       7.660   7.852  -3.483  0.00  0.00    +0.000 A 
ATOM     33  H   UNL     1       9.120   5.044  -4.379  0.00  0.00    +0.000 HD
ENDBRANCH  20  23
ENDBRANCH  18  19
ENDBRANCH   4  18
TORSDOF 6
