REMARK  Name = 
REMARK  10 active torsions:
REMARK  status: ('A' for Active; 'I' for Inactive)
REMARK    1  A    between atoms: C_2  and  C_3
REMARK    2  A    between atoms: C_3  and  N_4
REMARK    3  A    between atoms: C_5  and  C_7
REMARK    4  A    between atoms: N_17  and  CA_18
REMARK    5  A    between atoms: CA_18  and  C_19
REMARK    6  A    between atoms: CA_18  and  C_21
REMARK    7  A    between atoms: C_19  and  O_20
REMARK    8  A    between atoms: C_24  and  C_25
REMARK    9  A    between atoms: C_25  and  N_26
REMARK   10  A    between atoms: C_27  and  C_29
REMARK                            x       y       z     vdW  Elec       q    Type
REMARK                         _______ _______ _______ _____ _____    ______ ____
ROOT
ATOM      1  CA  UNL     1       4.407   0.132   1.193  0.00  0.00    +0.000 C 
ENDROOT
BRANCH   1   2
ATOM      2  C   UNL     1       4.924   0.356   2.607  0.00  0.00    +0.000 A 
ATOM      3  C   UNL     1       6.164  -0.189   2.981  0.00  0.00    +0.000 A 
ATOM      4  C   UNL     1       6.674  -0.003   4.272  0.00  0.00    +0.000 A 
ATOM      5  C   UNL     1       5.954   0.731   5.222  0.00  0.00    +0.000 A 
ATOM      6  C   UNL     1       4.739   1.310   4.843  0.00  0.00    +0.000 A 
ATOM      7  C   UNL     1       4.232   1.128   3.552  0.00  0.00    +0.000 A 
BRANCH   5   8
ATOM      8  C   UNL     1       6.490   0.933   6.615  0.00  0.00    +0.000 C 
BRANCH   8   9
ATOM      9  N   UNL     1       7.323   2.108   6.692  0.00  0.00    +0.000 N 
ATOM     10  C   UNL     1       7.840   2.538   7.889  0.00  0.00    +0.000 C 
ATOM     11  O   UNL     1       7.600   1.971   8.954  0.00  0.00    +0.000 OA
ATOM     12  H   UNL     1       7.598   2.556   5.830  0.00  0.00    +0.000 HD
BRANCH  10  13
ATOM     13  C   UNL     1       8.685   3.696   7.811  0.00  0.00    +0.000 A 
ATOM     14  C   UNL     1       9.067   4.530   6.776  0.00  0.00    +0.000 A 
ATOM     15  C   UNL     1       9.913   5.489   7.364  0.00  0.00    +0.000 A 
ATOM     16  N   UNL     1      10.063   5.293   8.674  0.00  0.00    +0.000 NA
ATOM     17  N   UNL     1       9.309   4.211   8.922  0.00  0.00    +0.000 N 
ATOM     18  H   UNL     1       9.249   3.856   9.872  0.00  0.00    +0.000 HD
ENDBRANCH  10  13
ENDBRANCH   8   9
ENDBRANCH   5   8
ENDBRANCH   1   2
BRANCH   1  21
ATOM     19  O   UNL     1       4.937  -0.171  -1.564  0.00  0.00    +0.000 OA
ATOM     20  C   UNL     1       5.148   0.922  -1.040  0.00  0.00    +0.000 C 
ATOM     21  N   UNL     1       4.954   1.149   0.304  0.00  0.00    +0.000 N 
ATOM     22  H   UNL     1       5.293   2.022   0.703  0.00  0.00    +0.000 HD
BRANCH  20  23
ATOM     23  C   UNL     1       5.727   2.113  -1.808  0.00  0.00    +0.000 C 
BRANCH  23  24
ATOM     24  N   UNL     1       7.175   2.087  -1.798  0.00  0.00    +0.000 N 
ATOM     25  C   UNL     1       7.903   2.607  -0.762  0.00  0.00    +0.000 C 
ATOM     26  O   UNL     1       7.355   3.091   0.228  0.00  0.00    +0.000 OA
ATOM     27  H   UNL     1       7.641   1.749  -2.635  0.00  0.00    +0.000 HD
BRANCH  25  28
ATOM     28  C   UNL     1       9.364   2.497  -0.860  0.00  0.00    +0.000 A 
ATOM     29  C   UNL     1      10.134   2.535   0.295  0.00  0.00    +0.000 A 
ATOM     30  S   UNL     1      11.806   2.361   0.012  0.00  0.00    +0.000 S 
ATOM     31  C   UNL     1      11.569   2.279  -1.671  0.00  0.00    +0.000 A 
ATOM     32  N   UNL     1      12.624   2.155  -2.519  0.00  0.00    +0.000 NA
ATOM     33  C   UNL     1      12.306   2.146  -3.770  0.00  0.00    +0.000 A 
ATOM     34  N   UNL     1      11.025   2.242  -4.249  0.00  0.00    +0.000 N 
ATOM     35  C   UNL     1       9.924   2.313  -3.429  0.00  0.00    +0.000 A 
ATOM     36  O   UNL     1       8.784   2.304  -3.886  0.00  0.00    +0.000 OA
ATOM     37  C   UNL     1      10.229   2.360  -2.011  0.00  0.00    +0.000 A 
ATOM     38  H   UNL     1      10.843   2.207  -5.242  0.00  0.00    +0.000 HD
ENDBRANCH  25  28
ENDBRANCH  23  24
ENDBRANCH  20  23
ENDBRANCH   1  21
BRANCH   1  39
ATOM     39  C   UNL     1       2.856   0.058   1.094  0.00  0.00    +0.000 C 
BRANCH  39  40
ATOM     40  O   UNL     1       2.370  -0.217  -0.221  0.00  0.00    +0.000 OA
ATOM     41  H   UNL     1       3.065  -0.701  -0.710  0.00  0.00    +0.000 HD
ENDBRANCH  39  40
ENDBRANCH   1  39
TORSDOF 10
