REMARK  Name = 
REMARK  9 active torsions:
REMARK  status: ('A' for Active; 'I' for Inactive)
REMARK    1  A    between atoms: C_1  and  C_2
REMARK    2  A    between atoms: C_4  and  C_5
REMARK    3  A    between atoms: C_5  and  N_6
REMARK    4  A    between atoms: N_6  and  C_7
REMARK    5  A    between atoms: C_10  and  C_11
REMARK    6  A    between atoms: C_11  and  N_12
REMARK    7  A    between atoms: C_13  and  C_15
REMARK    8  A    between atoms: C_26  and  C_27
REMARK    9  A    between atoms: C_29  and  C_30
REMARK                            x       y       z     vdW  Elec       q    Type
REMARK                         _______ _______ _______ _____ _____    ______ ____
ROOT
ATOM      1  C   UNL     1       5.061  -5.027  -0.074  0.00  0.00    +0.000 A 
ATOM      2  N   UNL     1       6.038  -5.327   0.809  0.00  0.00    +0.000 NA
ATOM      3  C   UNL     1       6.512  -6.600   0.844  0.00  0.00    +0.000 A 
ATOM      4  C   UNL     1       6.037  -7.643   0.062  0.00  0.00    +0.000 A 
ATOM      5  C   UNL     1       5.000  -7.332  -0.815  0.00  0.00    +0.000 A 
ATOM      6  C   UNL     1       4.520  -6.015  -0.914  0.00  0.00    +0.000 A 
ATOM      7  C   UNL     1       3.431  -5.701  -1.904  0.00  0.00    +0.000 C 
ENDROOT
BRANCH   1   8
ATOM      8  N   UNL     1       4.673  -3.690  -0.246  0.00  0.00    +0.000 N 
ATOM      9  H   UNL     1       3.747  -3.617  -0.645  0.00  0.00    +0.000 HD
BRANCH   8  10
ATOM     10  C   UNL     1       4.776  -2.818   0.921  0.00  0.00    +0.000 C 
BRANCH  10  14
ATOM     11  C   UNL     1       9.464  -1.820   2.317  0.00  0.00    +0.000 C 
ATOM     12  C   UNL     1       8.205  -1.475   1.586  0.00  0.00    +0.000 A 
ATOM     13  C   UNL     1       7.135  -2.337   1.584  0.00  0.00    +0.000 A 
ATOM     14  C   UNL     1       6.006  -1.940   0.905  0.00  0.00    +0.000 A 
ATOM     15  N   UNL     1       5.942  -0.751   0.248  0.00  0.00    +0.000 NA
ATOM     16  C   UNL     1       7.042   0.018   0.283  0.00  0.00    +0.000 A 
ATOM     17  C   UNL     1       7.015   1.319  -0.461  0.00  0.00    +0.000 C 
ATOM     18  N   UNL     1       8.179  -0.285   0.938  0.00  0.00    +0.000 NA
ENDBRANCH  10  14
ENDBRANCH   8  10
ENDBRANCH   1   8
BRANCH   4  19
ATOM     19  C   UNL     1       6.741  -8.964   0.002  0.00  0.00    +0.000 C 
BRANCH  19  20
ATOM     20  N   UNL     1       6.250 -10.070   0.813  0.00  0.00    +0.000 N 
ATOM     21  C   UNL     1       6.937 -11.262   0.640  0.00  0.00    +0.000 C 
ATOM     22  O   UNL     1       7.836 -11.316  -0.206  0.00  0.00    +0.000 OA
ATOM     23  H   UNL     1       5.600  -9.939   1.583  0.00  0.00    +0.000 HD
BRANCH  21  24
ATOM     24  C   UNL     1       6.629 -12.460   1.412  0.00  0.00    +0.000 A 
ATOM     25  C   UNL     1       7.491 -13.551   1.278  0.00  0.00    +0.000 A 
ATOM     26  S   UNL     1       6.994 -14.954   2.093  0.00  0.00    +0.000 S 
ATOM     27  C   UNL     1       5.520 -14.220   2.503  0.00  0.00    +0.000 A 
ATOM     28  N   UNL     1       4.486 -14.966   2.971  0.00  0.00    +0.000 NA
ATOM     29  C   UNL     1       3.417 -14.288   3.214  0.00  0.00    +0.000 A 
ATOM     30  N   UNL     1       3.329 -12.919   3.136  0.00  0.00    +0.000 N 
ATOM     31  C   UNL     1       4.382 -12.115   2.742  0.00  0.00    +0.000 A 
ATOM     32  O   UNL     1       4.349 -10.891   2.821  0.00  0.00    +0.000 OA
ATOM     33  C   UNL     1       5.526 -12.855   2.255  0.00  0.00    +0.000 A 
ATOM     34  H   UNL     1       2.495 -12.453   3.462  0.00  0.00    +0.000 HD
ENDBRANCH  21  24
ENDBRANCH  19  20
ENDBRANCH   4  19
TORSDOF 6
