REMARK  Name = 
REMARK  7 active torsions:
REMARK  status: ('A' for Active; 'I' for Inactive)
REMARK    1  A    between atoms: N_1  and  S_2
REMARK    2  A    between atoms: S_2  and  C_5
REMARK    3  A    between atoms: C_9  and  C_10
REMARK    4  A    between atoms: C_10  and  C_11
REMARK    5  A    between atoms: C_14  and  C_15
REMARK    6  A    between atoms: C_15  and  N_16
REMARK    7  A    between atoms: C_17  and  C_19
REMARK                            x       y       z     vdW  Elec       q    Type
REMARK                         _______ _______ _______ _____ _____    ______ ____
ROOT
ATOM      1  C   UNL     1       5.609   4.175   4.009  0.00  0.00    +0.000 A 
ATOM      2  C   UNL     1       4.523   4.884   4.542  0.00  0.00    +0.000 A 
ATOM      3  C   UNL     1       4.699   6.162   5.080  0.00  0.00    +0.000 A 
ATOM      4  C   UNL     1       5.966   6.757   5.101  0.00  0.00    +0.000 A 
ATOM      5  C   UNL     1       7.062   6.023   4.629  0.00  0.00    +0.000 A 
ATOM      6  C   UNL     1       6.884   4.751   4.076  0.00  0.00    +0.000 A 
ENDROOT
BRANCH   1   7
ATOM      7  C   UNL     1       5.406   2.831   3.343  0.00  0.00    +0.000 C 
BRANCH   7  12
ATOM      8  C   UNL     1       5.742   2.255  -0.297  0.00  0.00    +0.000 A 
ATOM      9  C   UNL     1       4.642   2.858  -0.879  0.00  0.00    +0.000 A 
ATOM     10  C   UNL     1       3.764   3.518  -0.031  0.00  0.00    +0.000 A 
ATOM     11  C   UNL     1       4.016   3.534   1.343  0.00  0.00    +0.000 A 
ATOM     12  C   UNL     1       5.150   2.893   1.849  0.00  0.00    +0.000 A 
ATOM     13  N   UNL     1       6.028   2.255   1.039  0.00  0.00    +0.000 NA
BRANCH   8  14
ATOM     14  S   UNL     1       6.951   1.407  -1.296  0.00  0.00    +0.000 S 
ATOM     15  O   UNL     1       6.696   1.689  -2.689  0.00  0.00    +0.000 OA
ATOM     16  O   UNL     1       7.119   0.055  -0.813  0.00  0.00    +0.000 OA
BRANCH  14  17
ATOM     17  N   UNL     1       8.385   2.222  -0.937  0.00  0.00    +0.000 NA
ATOM     18  H   UNL     1       8.897   2.421  -1.794  0.00  0.00    +0.000 HD
ATOM     19  H   UNL     1       8.903   1.712  -0.224  0.00  0.00    +0.000 HD
ENDBRANCH  14  17
ENDBRANCH   8  14
ENDBRANCH   7  12
ENDBRANCH   1   7
BRANCH   4  20
ATOM     20  C   UNL     1       6.156   8.153   5.635  0.00  0.00    +0.000 C 
BRANCH  20  21
ATOM     21  N   UNL     1       6.431   8.145   7.047  0.00  0.00    +0.000 N 
ATOM     22  C   UNL     1       6.561   9.317   7.750  0.00  0.00    +0.000 C 
ATOM     23  O   UNL     1       6.399  10.414   7.222  0.00  0.00    +0.000 OA
ATOM     24  H   UNL     1       6.799   7.285   7.440  0.00  0.00    +0.000 HD
BRANCH  22  25
ATOM     25  C   UNL     1       6.839   9.193   9.186  0.00  0.00    +0.000 A 
ATOM     26  C   UNL     1       6.502  10.231  10.043  0.00  0.00    +0.000 A 
ATOM     27  S   UNL     1       6.844   9.904  11.682  0.00  0.00    +0.000 S 
ATOM     28  C   UNL     1       7.507   8.387  11.296  0.00  0.00    +0.000 A 
ATOM     29  N   UNL     1       8.026   7.583  12.265  0.00  0.00    +0.000 NA
ATOM     30  C   UNL     1       8.528   6.477  11.828  0.00  0.00    +0.000 A 
ATOM     31  N   UNL     1       8.553   6.097  10.511  0.00  0.00    +0.000 N 
ATOM     32  C   UNL     1       8.010   6.858   9.503  0.00  0.00    +0.000 A 
ATOM     33  O   UNL     1       8.004   6.466   8.341  0.00  0.00    +0.000 OA
ATOM     34  C   UNL     1       7.448   8.122   9.939  0.00  0.00    +0.000 A 
ATOM     35  H   UNL     1       8.951   5.211  10.235  0.00  0.00    +0.000 HD
ENDBRANCH  22  25
ENDBRANCH  20  21
ENDBRANCH   4  20
TORSDOF 7
