REMARK  Name = 
REMARK  6 active torsions:
REMARK  status: ('A' for Active; 'I' for Inactive)
REMARK    1  A    between atoms: C_2  and  C_19
REMARK    2  A    between atoms: N_3  and  C_4
REMARK    3  A    between atoms: C_4  and  C_5
REMARK    4  A    between atoms: C_8  and  C_9
REMARK    5  A    between atoms: C_10  and  C_11
REMARK    6  A    between atoms: C_11  and  N_12
REMARK                            x       y       z     vdW  Elec       q    Type
REMARK                         _______ _______ _______ _____ _____    ______ ____
ROOT
ATOM      1  O   UNL     1      -0.212   3.368  -1.562  0.00  0.00    +0.000 OA
ATOM      2  C   UNL     1       0.310   2.473  -2.217  0.00  0.00    +0.000 C 
ATOM      3  N   UNL     1       1.523   1.918  -1.899  0.00  0.00    +0.000 N 
ATOM      4  H   UNL     1       1.976   1.298  -2.559  0.00  0.00    +0.000 HD
ENDROOT
BRANCH   2   5
ATOM      5  C   UNL     1      -0.362   1.875  -3.374  0.00  0.00    +0.000 A 
ATOM      6  C   UNL     1      -1.745   1.856  -3.472  0.00  0.00    +0.000 A 
ATOM      7  S   UNL     1      -2.311   1.093  -4.893  0.00  0.00    +0.000 S 
ATOM      8  C   UNL     1      -0.724   0.799  -5.435  0.00  0.00    +0.000 A 
ATOM      9  N   UNL     1      -0.484   0.176  -6.620  0.00  0.00    +0.000 NA
ATOM     10  C   UNL     1       0.768   0.053  -6.913  0.00  0.00    +0.000 A 
ATOM     11  N   UNL     1       1.802   0.491  -6.130  0.00  0.00    +0.000 N 
ATOM     12  C   UNL     1       1.614   1.054  -4.898  0.00  0.00    +0.000 A 
ATOM     13  O   UNL     1       2.570   1.289  -4.167  0.00  0.00    +0.000 OA
ATOM     14  C   UNL     1       0.223   1.255  -4.538  0.00  0.00    +0.000 A 
ATOM     15  H   UNL     1       2.764   0.328  -6.395  0.00  0.00    +0.000 HD
ENDBRANCH   2   5
BRANCH   3  16
ATOM     16  C   UNL     1       2.352   2.404  -0.828  0.00  0.00    +0.000 C 
BRANCH  16  17
ATOM     17  C   UNL     1       3.282   3.508  -1.267  0.00  0.00    +0.000 A 
ATOM     18  C   UNL     1       2.856   4.839  -1.164  0.00  0.00    +0.000 A 
ATOM     19  C   UNL     1       3.711   5.889  -1.499  0.00  0.00    +0.000 A 
ATOM     20  C   UNL     1       5.007   5.625  -1.936  0.00  0.00    +0.000 A 
ATOM     21  C   UNL     1       5.431   4.302  -2.092  0.00  0.00    +0.000 A 
ATOM     22  C   UNL     1       4.570   3.247  -1.764  0.00  0.00    +0.000 A 
BRANCH  20  23
ATOM     23  C   UNL     1       5.894   6.715  -2.192  0.00  0.00    +0.000 C 
ATOM     24  C   UNL     1       6.610   7.663  -2.394  0.00  0.00    +0.000 C 
BRANCH  24  25
ATOM     25  C   UNL     1       7.462   8.823  -2.693  0.00  0.00    +0.000 C 
BRANCH  25  26
ATOM     26  N   UNL     1       6.954   9.554  -3.860  0.00  0.00    +0.000 NA
ATOM     27  C   UNL     1       7.767  10.737  -4.159  0.00  0.00    +0.000 C 
ATOM     28  C   UNL     1       8.883  10.235  -5.059  0.00  0.00    +0.000 C 
ATOM     29  O   UNL     1       8.422   9.004  -5.624  0.00  0.00    +0.000 OA
ATOM     30  C   UNL     1       7.123   8.769  -5.083  0.00  0.00    +0.000 C 
ENDBRANCH  25  26
ENDBRANCH  24  25
ENDBRANCH  20  23
ENDBRANCH  16  17
ENDBRANCH   3  16
TORSDOF 6
