REMARK  Name = 
REMARK  11 active torsions:
REMARK  status: ('A' for Active; 'I' for Inactive)
REMARK    1  A    between atoms: C_1  and  C_2
REMARK    2  A    between atoms: C_2  and  N_3
REMARK    3  A    between atoms: C_2  and  C_20
REMARK    4  A    between atoms: N_3  and  C_4
REMARK    5  A    between atoms: C_4  and  C_5
REMARK    6  A    between atoms: C_8  and  C_9
REMARK    7  A    between atoms: C_9  and  C_10
REMARK    8  A    between atoms: C_9  and  C_12
REMARK    9  A    between atoms: C_10  and  O_11
REMARK   10  A    between atoms: C_12  and  N_13
REMARK   11  A    between atoms: C_20  and  C_22
REMARK                            x       y       z     vdW  Elec       q    Type
REMARK                         _______ _______ _______ _____ _____    ______ ____
ROOT
ATOM      1  N   UNL     1      -5.132   5.438  -3.222  0.00  0.00    +0.000 NA
ATOM      2  H   UNL     1      -4.675   4.625  -3.647  0.00  0.00    +0.000 HD
ENDROOT
BRANCH   1   4
ATOM      3  C   UNL     1      -3.916   6.956  -4.660  0.00  0.00    +0.000 C 
ATOM      4  C   UNL     1      -5.306   6.469  -4.263  0.00  0.00    +0.000 C 
BRANCH   4   5
ATOM      5  C   UNL     1      -6.045   5.881  -5.491  0.00  0.00    +0.000 C 
ATOM      6  O   UNL     1      -5.744   4.771  -5.932  0.00  0.00    +0.000 OA
BRANCH   5   7
ATOM      7  C   UNL     1      -7.103   6.679  -6.122  0.00  0.00    +0.000 A 
ATOM      8  C   UNL     1      -7.070   8.061  -6.194  0.00  0.00    +0.000 A 
ATOM      9  S   UNL     1      -8.355   8.713  -7.114  0.00  0.00    +0.000 S 
ATOM     10  C   UNL     1      -8.996   7.167  -7.426  0.00  0.00    +0.000 A 
ATOM     11  N   UNL     1     -10.089   7.004  -8.215  0.00  0.00    +0.000 NA
ATOM     12  C   UNL     1     -10.449   5.771  -8.375  0.00  0.00    +0.000 A 
ATOM     13  N   UNL     1      -9.837   4.693  -7.786  0.00  0.00    +0.000 N 
ATOM     14  C   UNL     1      -8.816   4.827  -6.865  0.00  0.00    +0.000 A 
ATOM     15  O   UNL     1      -8.490   3.899  -6.135  0.00  0.00    +0.000 OA
ATOM     16  C   UNL     1      -8.282   6.176  -6.778  0.00  0.00    +0.000 A 
ATOM     17  H   UNL     1     -10.231   3.770  -7.873  0.00  0.00    +0.000 HD
ENDBRANCH   5   7
ENDBRANCH   4   5
ENDBRANCH   1   4
BRANCH   1  18
ATOM     18  C   UNL     1      -6.416   4.994  -2.676  0.00  0.00    +0.000 C 
BRANCH  18  19
ATOM     19  C   UNL     1      -6.184   3.928  -1.646  0.00  0.00    +0.000 A 
ATOM     20  C   UNL     1      -5.476   4.208  -0.471  0.00  0.00    +0.000 A 
ATOM     21  C   UNL     1      -5.217   3.202   0.457  0.00  0.00    +0.000 A 
ATOM     22  C   UNL     1      -5.667   1.890   0.233  0.00  0.00    +0.000 A 
ATOM     23  C   UNL     1      -6.378   1.617  -0.945  0.00  0.00    +0.000 A 
ATOM     24  C   UNL     1      -6.637   2.622  -1.869  0.00  0.00    +0.000 A 
BRANCH  22  25
ATOM     25  C   UNL     1      -5.306   0.798   1.239  0.00  0.00    +0.000 C 
BRANCH  25  26
ATOM     26  C   UNL     1      -3.904   0.238   0.934  0.00  0.00    +0.000 C 
BRANCH  26  27
ATOM     27  O   UNL     1      -3.843  -0.447  -0.315  0.00  0.00    +0.000 OA
ATOM     28  H   UNL     1      -4.025   0.214  -1.006  0.00  0.00    +0.000 HD
ENDBRANCH  26  27
ENDBRANCH  25  26
BRANCH  25  29
ATOM     29  C   UNL     1      -6.387  -0.313   1.359  0.00  0.00    +0.000 C 
BRANCH  29  30
ATOM     30  N   UNL     1      -6.127  -1.336   2.387  0.00  0.00    +0.000 NA
ATOM     31  C   UNL     1      -7.150  -2.393   2.368  0.00  0.00    +0.000 C 
ATOM     32  C   UNL     1      -8.143  -2.008   3.446  0.00  0.00    +0.000 C 
ATOM     33  C   UNL     1      -7.265  -1.392   4.515  0.00  0.00    +0.000 C 
ATOM     34  C   UNL     1      -6.083  -0.807   3.756  0.00  0.00    +0.000 C 
ENDBRANCH  29  30
ENDBRANCH  25  29
ENDBRANCH  22  25
ENDBRANCH  18  19
ENDBRANCH   1  18
TORSDOF 10
