REMARK  Name = 
REMARK  3 active torsions:
REMARK  status: ('A' for Active; 'I' for Inactive)
REMARK    1  A    between atoms: N_5  and  C_6
REMARK    2  A    between atoms: C_6  and  C_7
REMARK    3  A    between atoms: C_11  and  C_12
REMARK                            x       y       z     vdW  Elec       q    Type
REMARK                         _______ _______ _______ _____ _____    ______ ____
ROOT
ATOM      1  C   UNL     1      -0.689   4.991   0.020  0.00  0.00    +0.000 A 
ATOM      2  C   UNL     1      -1.728   5.917   0.008  0.00  0.00    +0.000 A 
ATOM      3  C   UNL     1      -1.420   7.269   0.036  0.00  0.00    +0.000 A 
ATOM      4  C   UNL     1      -0.086   7.661   0.069  0.00  0.00    +0.000 A 
ATOM      5  C   UNL     1       0.918   6.690   0.075  0.00  0.00    +0.000 A 
ATOM      6  N   UNL     1       0.622   5.364   0.037  0.00  0.00    +0.000 NA
ENDROOT
BRANCH   5   7
ATOM      7  C   UNL     1       2.354   7.038   0.115  0.00  0.00    +0.000 A 
ATOM      8  C   UNL     1       2.822   8.194   0.761  0.00  0.00    +0.000 A 
ATOM      9  C   UNL     1       4.178   8.486   0.744  0.00  0.00    +0.000 A 
ATOM     10  N   UNL     1       5.103   7.714   0.142  0.00  0.00    +0.000 NA
ATOM     11  C   UNL     1       4.650   6.594  -0.460  0.00  0.00    +0.000 A 
ATOM     12  C   UNL     1       3.315   6.221  -0.495  0.00  0.00    +0.000 A 
ENDBRANCH   5   7
BRANCH   1  13
ATOM     13  C   UNL     1      -1.009   3.507  -0.007  0.00  0.00    +0.000 C 
BRANCH  13  18
ATOM     14  C   UNL     1      -1.949  -0.954  -1.777  0.00  0.00    +0.000 A 
ATOM     15  C   UNL     1      -2.419  -0.239  -0.706  0.00  0.00    +0.000 A 
ATOM     16  N   UNL     1      -2.195   1.078  -0.533  0.00  0.00    +0.000 NA
ATOM     17  C   UNL     1      -1.474   1.704  -1.476  0.00  0.00    +0.000 A 
ATOM     18  N   UNL     1      -1.223   3.065  -1.375  0.00  0.00    +0.000 N 
ATOM     19  N   UNL     1      -0.965   1.090  -2.553  0.00  0.00    +0.000 NA
ATOM     20  C   UNL     1      -1.217  -0.228  -2.681  0.00  0.00    +0.000 A 
ATOM     21  H   UNL     1      -0.442   3.258  -1.992  0.00  0.00    +0.000 HD
ENDBRANCH  13  18
ENDBRANCH   1  13
TORSDOF 3
