REMARK  Name = 
REMARK  7 active torsions:
REMARK  status: ('A' for Active; 'I' for Inactive)
REMARK    1  A    between atoms: C_2  and  C_4
REMARK    2  A    between atoms: C_7  and  O_8
REMARK    3  A    between atoms: O_8  and  C_9
REMARK    4  A    between atoms: C_9  and  C_10
REMARK    5  A    between atoms: C_10  and  C_11
REMARK    6  A    between atoms: CA_14  and  C_15
REMARK    7  A    between atoms: C_15  and  OXT_17
REMARK                            x       y       z     vdW  Elec       q    Type
REMARK                         _______ _______ _______ _____ _____    ______ ____
ROOT
ATOM      1  O   UNL     1       5.149  -3.063  -3.667  0.00  0.00    +0.000 OA
ENDROOT
BRANCH   1   5
ATOM      2  C   UNL     1       2.818  -0.563  -1.354  0.00  0.00    +0.000 A 
ATOM      3  C   UNL     1       3.775  -1.373  -0.741  0.00  0.00    +0.000 A 
ATOM      4  C   UNL     1       4.555  -2.226  -1.529  0.00  0.00    +0.000 A 
ATOM      5  C   UNL     1       4.353  -2.229  -2.901  0.00  0.00    +0.000 A 
ATOM      6  N   UNL     1       3.429  -1.459  -3.518  0.00  0.00    +0.000 NA
ATOM      7  C   UNL     1       2.675  -0.655  -2.731  0.00  0.00    +0.000 A 
BRANCH   2   9
ATOM      8  N   UNL     1       0.815   0.720  -1.080  0.00  0.00    +0.000 NA
ATOM      9  C   UNL     1       1.960   0.378  -0.591  0.00  0.00    +0.000 C 
ATOM     10  N   UNL     1       2.383   0.897   0.598  0.00  0.00    +0.000 N 
ATOM     11  H   UNL     1       0.325   1.342  -0.434  0.00  0.00    +0.000 HD
ATOM     12  H   UNL     1       1.915   1.746   0.893  0.00  0.00    +0.000 HD
ATOM     13  H   UNL     1       3.388   0.969   0.719  0.00  0.00    +0.000 HD
ENDBRANCH   2   9
ENDBRANCH   1   5
BRANCH   1  14
ATOM     14  C   UNL     1       4.843  -2.953  -5.066  0.00  0.00    +0.000 C 
BRANCH  14  15
ATOM     15  C   UNL     1       5.760  -3.870  -5.877  0.00  0.00    +0.000 C 
BRANCH  15  16
ATOM     16  C   UNL     1       5.466  -3.786  -7.354  0.00  0.00    +0.000 A 
ATOM     17  C   UNL     1       4.506  -4.613  -7.946  0.00  0.00    +0.000 A 
ATOM     18  C   UNL     1       4.223  -4.488  -9.304  0.00  0.00    +0.000 A 
ATOM     19  CA  UNL     1       4.913  -3.527 -10.026  0.00  0.00    +0.000 A 
ATOM     20  N   UNL     1       5.854  -2.693  -9.494  0.00  0.00    +0.000 NA
ATOM     21  C   UNL     1       6.100  -2.847  -8.170  0.00  0.00    +0.000 A 
BRANCH  19  22
ATOM     22  C   UNL     1       4.639  -3.346 -11.483  0.00  0.00    +0.000 C 
ATOM     23  O   UNL     1       3.839  -3.997 -12.131  0.00  0.00    +0.000 OA
BRANCH  22  24
ATOM     24  OXT UNL     1       5.409  -2.353 -11.993  0.00  0.00    +0.000 OA
ATOM     25  HXT UNL     1       5.967  -1.988 -11.265  0.00  0.00    +0.000 HD
ENDBRANCH  22  24
ENDBRANCH  19  22
ENDBRANCH  15  16
ENDBRANCH  14  15
ENDBRANCH   1  14
TORSDOF 7
