REMARK  Name = 
REMARK  9 active torsions:
REMARK  status: ('A' for Active; 'I' for Inactive)
REMARK    1  A    between atoms: C_1  and  C_2
REMARK    2  A    between atoms: C_6  and  O_7
REMARK    3  A    between atoms: O_7  and  C_8
REMARK    4  A    between atoms: C_12  and  C_13
REMARK    5  A    between atoms: C_13  and  C_14
REMARK    6  A    between atoms: C_13  and  C_15
REMARK    7  A    between atoms: C_13  and  C_16
REMARK    8  A    between atoms: C_16  and  N_17
REMARK    9  A    between atoms: C_21  and  C_22
REMARK                            x       y       z     vdW  Elec       q    Type
REMARK                         _______ _______ _______ _____ _____    ______ ____
ROOT
ATOM      1  C   UNL     1       4.076  -4.243  -2.639  0.00  0.00    +0.000 C 
ATOM      2  C   UNL     1       4.207  -5.253  -1.477  0.00  0.00    +0.000 C 
ATOM      3  C   UNL     1       3.894  -5.061  -3.942  0.00  0.00    +0.000 C 
ENDROOT
BRANCH   1   8
ATOM      4  C   UNL     1       1.026  -2.310  -1.164  0.00  0.00    +0.000 A 
ATOM      5  C   UNL     1       0.741  -1.439  -2.215  0.00  0.00    +0.000 A 
ATOM      6  C   UNL     1       1.522  -1.450  -3.366  0.00  0.00    +0.000 A 
ATOM      7  C   UNL     1       2.579  -2.350  -3.485  0.00  0.00    +0.000 A 
ATOM      8  C   UNL     1       2.871  -3.282  -2.468  0.00  0.00    +0.000 A 
ATOM      9  C   UNL     1       2.061  -3.248  -1.311  0.00  0.00    +0.000 A 
BRANCH   4  10
ATOM     10  O   UNL     1       0.360  -2.310   0.044  0.00  0.00    +0.000 OA
BRANCH  10  16
ATOM     11  C   UNL     1      -0.609  -2.155   2.777  0.00  0.00    +0.000 C 
ATOM     12  C   UNL     1      -0.915  -1.045   1.778  0.00  0.00    +0.000 C 
ATOM     13  C   UNL     1      -0.635   0.341   2.356  0.00  0.00    +0.000 C 
ATOM     14  N   UNL     1       0.770   0.631   2.054  0.00  0.00    +0.000 NA
ATOM     15  C   UNL     1       1.067  -0.054   0.787  0.00  0.00    +0.000 C 
ATOM     16  C   UNL     1      -0.089  -1.022   0.482  0.00  0.00    +0.000 C 
ATOM     17  H   UNL     1       1.360   0.222   2.780  0.00  0.00    +0.000 HD
ENDBRANCH  10  16
ENDBRANCH   4  10
ENDBRANCH   1   8
BRANCH   1  18
ATOM     18  C   UNL     1       5.376  -3.379  -2.717  0.00  0.00    +0.000 C 
BRANCH  18  19
ATOM     19  N   UNL     1       6.607  -4.178  -2.842  0.00  0.00    +0.000 N 
ATOM     20  C   UNL     1       7.767  -3.375  -2.923  0.00  0.00    +0.000 A 
ATOM     21  C   UNL     1       9.002  -3.991  -3.067  0.00  0.00    +0.000 A 
ATOM     22  C   UNL     1      10.155  -3.211  -3.157  0.00  0.00    +0.000 A 
ATOM     23  C   UNL     1      10.044  -1.827  -3.102  0.00  0.00    +0.000 A 
ATOM     24  N   UNL     1       8.834  -1.252  -2.940  0.00  0.00    +0.000 NA
ATOM     25  N   UNL     1       7.705  -2.032  -2.841  0.00  0.00    +0.000 NA
ATOM     26  H   UNL     1       6.595  -4.791  -3.657  0.00  0.00    +0.000 HD
BRANCH  23  27
ATOM     27  C   UNL     1      11.243  -0.920  -3.228  0.00  0.00    +0.000 C 
ATOM     28  F   UNL     1      12.417  -1.601  -3.386  0.00  0.00    +0.000 F 
ATOM     29  F   UNL     1      11.166  -0.083  -4.302  0.00  0.00    +0.000 F 
ATOM     30  F   UNL     1      11.434  -0.121  -2.141  0.00  0.00    +0.000 F 
ENDBRANCH  23  27
ENDBRANCH  18  19
ENDBRANCH   1  18
TORSDOF 6
