REMARK  Name = 
REMARK  9 active torsions:
REMARK  status: ('A' for Active; 'I' for Inactive)
REMARK    1  A    between atoms: C_1  and  C_2
REMARK    2  A    between atoms: C_2  and  N_3
REMARK    3  A    between atoms: N_3  and  C_4
REMARK    4  A    between atoms: C_6  and  C_7
REMARK    5  A    between atoms: C_17  and  C_18
REMARK    6  A    between atoms: C_18  and  C_19
REMARK    7  A    between atoms: C_19  and  O_20
REMARK    8  A    between atoms: O_20  and  C_21
REMARK    9  A    between atoms: C_23  and  C_24
REMARK                            x       y       z     vdW  Elec       q    Type
REMARK                         _______ _______ _______ _____ _____    ______ ____
ROOT
ATOM      1  C   UNL     1       0.984  -0.095   0.125  0.00  0.00    +0.000 C 
ATOM      2  C   UNL     1       2.510   0.099   0.077  0.00  0.00    +0.000 C 
ATOM      3  C   UNL     1       2.984   1.185  -0.875  0.00  0.00    +0.000 C 
ATOM      4  C   UNL     1       3.752   0.675  -1.846  0.00  0.00    +0.000 C 
ATOM      5  C   UNL     1       3.848  -0.743  -1.669  0.00  0.00    +0.000 C 
ATOM      6  C   UNL     1       3.163  -1.128  -0.573  0.00  0.00    +0.000 C 
ENDROOT
BRANCH   2   7
ATOM      7  N   UNL     1       3.080   0.337   1.405  0.00  0.00    +0.000 N 
ATOM      8  H   UNL     1       4.045   0.022   1.497  0.00  0.00    +0.000 HD
BRANCH   7   9
ATOM      9  C   UNL     1       2.830   1.473   2.197  0.00  0.00    +0.000 A 
ATOM     10  C   UNL     1       1.929   2.474   1.803  0.00  0.00    +0.000 A 
ATOM     11  C   UNL     1       1.599   3.578   2.592  0.00  0.00    +0.000 A 
ATOM     12  C   UNL     1       2.138   3.668   3.873  0.00  0.00    +0.000 A 
ATOM     13  C   UNL     1       3.033   2.692   4.318  0.00  0.00    +0.000 A 
ATOM     14  C   UNL     1       3.388   1.618   3.483  0.00  0.00    +0.000 A 
ATOM     15 CL   UNL     1       4.550   0.484   4.082  0.00  0.00    +0.000 Cl
BRANCH  11  16
ATOM     16  C   UNL     1       0.696   4.654   2.088  0.00  0.00    +0.000 C 
ATOM     17  N   UNL     1       0.257   4.601   0.789  0.00  0.00    +0.000 N 
ATOM     18  O   UNL     1       0.362   5.584   2.809  0.00  0.00    +0.000 OA
ATOM     19  H   UNL     1       0.504   3.912   0.098  0.00  0.00    +0.000 HD
ATOM     20  H   UNL     1      -0.326   5.369   0.478  0.00  0.00    +0.000 HD
ENDBRANCH  11  16
ENDBRANCH   7   9
ENDBRANCH   2   7
BRANCH   6  21
ATOM     21  C   UNL     1       2.902  -2.555  -0.157  0.00  0.00    +0.000 C 
BRANCH  21  22
ATOM     22  C   UNL     1       2.786  -3.510  -1.358  0.00  0.00    +0.000 C 
BRANCH  22  23
ATOM     23  O   UNL     1       2.480  -4.847  -0.938  0.00  0.00    +0.000 OA
BRANCH  23  24
ATOM     24  C   UNL     1       2.363  -5.704  -2.023  0.00  0.00    +0.000 A 
ATOM     25  C   UNL     1       2.131  -7.042  -1.762  0.00  0.00    +0.000 A 
ATOM     26  C   UNL     1       2.011  -7.919  -2.848  0.00  0.00    +0.000 A 
ATOM     27  C   UNL     1       2.124  -7.418  -4.145  0.00  0.00    +0.000 A 
ATOM     28  C   UNL     1       2.355  -6.064  -4.304  0.00  0.00    +0.000 A 
ATOM     29  N   UNL     1       2.477  -5.204  -3.273  0.00  0.00    +0.000 NA
BRANCH  26  30
ATOM     30  C   UNL     1       1.763  -9.360  -2.567  0.00  0.00    +0.000 C 
ATOM     31  N   UNL     1       1.634 -10.227  -3.618  0.00  0.00    +0.000 N 
ATOM     32  O   UNL     1       1.678  -9.776  -1.417  0.00  0.00    +0.000 OA
ATOM     33  H   UNL     1       1.695  -9.990  -4.595  0.00  0.00    +0.000 HD
ATOM     34  H   UNL     1       1.475 -11.200  -3.384  0.00  0.00    +0.000 HD
ENDBRANCH  26  30
ENDBRANCH  23  24
ENDBRANCH  22  23
ENDBRANCH  21  22
ENDBRANCH   6  21
TORSDOF 8
