REMARK  Name = 
REMARK  7 active torsions:
REMARK  status: ('A' for Active; 'I' for Inactive)
REMARK    1  A    between atoms: C_1  and  C_2
REMARK    2  A    between atoms: C_7  and  C_8
REMARK    3  A    between atoms: C_13  and  C_14
REMARK    4  A    between atoms: C_14  and  C_15
REMARK    5  A    between atoms: C_15  and  N_16
REMARK    6  A    between atoms: C_20  and  C_21
REMARK    7  A    between atoms: C_28  and  C_29
REMARK                            x       y       z     vdW  Elec       q    Type
REMARK                         _______ _______ _______ _____ _____    ______ ____
ROOT
ATOM      1  C   UNL     1       1.386  -2.312  -2.837  0.00  0.00    +0.000 C 
ATOM      2  C   UNL     1       2.391  -1.663  -1.892  0.00  0.00    +0.000 C 
ATOM      3  C   UNL     1       2.058  -0.201  -1.537  0.00  0.00    +0.000 C 
ATOM      4  N   UNL     1       2.596   0.760  -2.501  0.00  0.00    +0.000 N 
ATOM      5  C   UNL     1       1.755   1.513  -3.294  0.00  0.00    +0.000 A 
ATOM      6  C   UNL     1       2.184   2.755  -3.756  0.00  0.00    +0.000 A 
ATOM      7  C   UNL     1       1.339   3.563  -4.521  0.00  0.00    +0.000 A 
ATOM      8  C   UNL     1       0.067   3.085  -4.829  0.00  0.00    +0.000 A 
ATOM      9  C   UNL     1      -0.313   1.836  -4.355  0.00  0.00    +0.000 A 
ATOM     10  N   UNL     1       0.508   1.071  -3.584  0.00  0.00    +0.000 NA
ATOM     11  C   UNL     1       3.997   0.539  -2.877  0.00  0.00    +0.000 C 
ATOM     12  C   UNL     1       4.234  -0.925  -3.299  0.00  0.00    +0.000 C 
ATOM     13  C   UNL     1       3.727  -1.231  -4.706  0.00  0.00    +0.000 C 
ATOM     14  O   UNL     1       3.746  -1.864  -2.329  0.00  0.00    +0.000 OA
ENDROOT
BRANCH   7  15
ATOM     15  C   UNL     1       1.784   4.919  -4.990  0.00  0.00    +0.000 C 
ATOM     16  F   UNL     1       3.040   5.254  -4.584  0.00  0.00    +0.000 F 
ATOM     17  F   UNL     1       1.795   5.016  -6.348  0.00  0.00    +0.000 F 
ATOM     18  F   UNL     1       0.970   5.916  -4.549  0.00  0.00    +0.000 F 
ENDBRANCH   7  15
BRANCH   9  19
ATOM     19  C   UNL     1      -1.684   1.286  -4.694  0.00  0.00    +0.000 C 
BRANCH  19  20
ATOM     20  C   UNL     1      -1.569   0.004  -5.522  0.00  0.00    +0.000 C 
BRANCH  20  21
ATOM     21  N   UNL     1      -2.881  -0.537  -5.868  0.00  0.00    +0.000 N 
ATOM     22  C   UNL     1      -2.944  -1.729  -6.581  0.00  0.00    +0.000 A 
ATOM     23  C   UNL     1      -2.013  -2.769  -6.453  0.00  0.00    +0.000 A 
ATOM     24  N   UNL     1      -2.093  -3.962  -7.098  0.00  0.00    +0.000 NA
ATOM     25  C   UNL     1      -3.190  -4.097  -7.887  0.00  0.00    +0.000 A 
ATOM     26  C   UNL     1      -4.128  -3.087  -8.030  0.00  0.00    +0.000 A 
ATOM     27  N   UNL     1      -4.017  -1.887  -7.387  0.00  0.00    +0.000 NA
ATOM     28  H   UNL     1      -3.560   0.107  -6.268  0.00  0.00    +0.000 HD
BRANCH  25  29
ATOM     29  C   UNL     1      -3.359  -5.399  -8.590  0.00  0.00    +0.000 C 
ATOM     30  N   UNL     1      -2.376  -6.329  -8.353  0.00  0.00    +0.000 N 
ATOM     31  O   UNL     1      -4.315  -5.636  -9.314  0.00  0.00    +0.000 OA
ATOM     32  H   UNL     1      -1.612  -6.103  -7.727  0.00  0.00    +0.000 HD
ATOM     33  H   UNL     1      -2.444  -7.246  -8.770  0.00  0.00    +0.000 HD
ENDBRANCH  25  29
ENDBRANCH  20  21
ENDBRANCH  19  20
ENDBRANCH   9  19
TORSDOF 5
