REMARK  Name = 
REMARK  5 active torsions:
REMARK  status: ('A' for Active; 'I' for Inactive)
REMARK    1  A    between atoms: C_2  and  C_4
REMARK    2  A    between atoms: C_7  and  O_8
REMARK    3  A    between atoms: O_8  and  C_9
REMARK    4  A    between atoms: C_9  and  C_10
REMARK    5  A    between atoms: C_14  and  C_15
REMARK                            x       y       z     vdW  Elec       q    Type
REMARK                         _______ _______ _______ _____ _____    ______ ____
ROOT
ATOM      1  C   UNL     1       5.053   4.180   4.241  0.00  0.00    +0.000 C 
ENDROOT
BRANCH   1   2
ATOM      2  C   UNL     1       5.931   5.289   4.781  0.00  0.00    +0.000 A 
ATOM      3  C   UNL     1       6.058   6.483   4.079  0.00  0.00    +0.000 A 
ATOM      4  C   UNL     1       6.823   7.502   4.630  0.00  0.00    +0.000 A 
ATOM      5  C   UNL     1       7.438   7.304   5.863  0.00  0.00    +0.000 A 
ATOM      6  C   UNL     1       7.272   6.087   6.523  0.00  0.00    +0.000 A 
ATOM      7  N   UNL     1       6.525   5.087   5.989  0.00  0.00    +0.000 NA
BRANCH   6   8
ATOM      8  C   UNL     1       7.887   5.800   7.830  0.00  0.00    +0.000 A 
ATOM      9  C   UNL     1       8.268   4.501   8.188  0.00  0.00    +0.000 A 
ATOM     10  N   UNL     1       8.865   4.154   9.362  0.00  0.00    +0.000 NA
ATOM     11  C   UNL     1       9.084   5.154  10.242  0.00  0.00    +0.000 A 
ATOM     12  C   UNL     1       8.732   6.467   9.999  0.00  0.00    +0.000 A 
ATOM     13  F   UNL     1       8.967   7.418  10.911  0.00  0.00    +0.000 F 
ATOM     14  C   UNL     1       8.129   6.794   8.790  0.00  0.00    +0.000 A 
ENDBRANCH   6   8
ENDBRANCH   1   2
BRANCH   1  15
ATOM     15  O   UNL     1       5.481   3.799   2.931  0.00  0.00    +0.000 OA
BRANCH  15  19
ATOM     16  C   UNL     1       3.467   0.789   0.849  0.00  0.00    +0.000 A 
ATOM     17  C   UNL     1       2.990   1.163   2.111  0.00  0.00    +0.000 A 
ATOM     18  C   UNL     1       3.638   2.168   2.840  0.00  0.00    +0.000 A 
ATOM     19  C   UNL     1       4.765   2.806   2.318  0.00  0.00    +0.000 A 
ATOM     20  C   UNL     1       5.243   2.423   1.061  0.00  0.00    +0.000 A 
ATOM     21  C   UNL     1       4.604   1.416   0.331  0.00  0.00    +0.000 A 
BRANCH  16  23
ATOM     22  N   UNL     1       1.483  -0.504   0.269  0.00  0.00    +0.000 N 
ATOM     23  C   UNL     1       2.816  -0.285   0.054  0.00  0.00    +0.000 C 
ATOM     24  O   UNL     1       3.433  -0.927  -0.785  0.00  0.00    +0.000 OA
ATOM     25  H   UNL     1       1.035  -1.168  -0.350  0.00  0.00    +0.000 HD
ATOM     26  H   UNL     1       0.894   0.160   0.750  0.00  0.00    +0.000 HD
ENDBRANCH  16  23
ENDBRANCH  15  19
ENDBRANCH   1  15
TORSDOF 5
