REMARK  Name = 
REMARK  6 active torsions:
REMARK  status: ('A' for Active; 'I' for Inactive)
REMARK    1  A    between atoms: N_1  and  C_2
REMARK    2  A    between atoms: C_2  and  C_3
REMARK    3  A    between atoms: C_3  and  C_4
REMARK    4  A    between atoms: C_4  and  C_5
REMARK    5  A    between atoms: N_7  and  C_8
REMARK    6  A    between atoms: C_8  and  C_9
REMARK                            x       y       z     vdW  Elec       q    Type
REMARK                         _______ _______ _______ _____ _____    ______ ____
ROOT
ATOM      1  C   UNL     1       4.994   2.081  -1.869  0.00  0.00    +0.000 A 
ATOM      2  C   UNL     1       4.725   3.415  -1.637  0.00  0.00    +0.000 A 
ATOM      3  N   UNL     1       5.194   4.145  -2.700  0.00  0.00    +0.000 N 
ATOM      4  C   UNL     1       5.810   3.314  -3.614  0.00  0.00    +0.000 A 
ATOM      5  C   UNL     1       6.446   3.587  -4.837  0.00  0.00    +0.000 A 
ATOM      6  C   UNL     1       6.986   2.516  -5.554  0.00  0.00    +0.000 A 
ATOM      7  C   UNL     1       6.893   1.214  -5.075  0.00  0.00    +0.000 A 
ATOM      8  C   UNL     1       6.245   0.951  -3.865  0.00  0.00    +0.000 A 
ATOM      9  C   UNL     1       5.696   2.012  -3.115  0.00  0.00    +0.000 A 
ENDROOT
BRANCH   1  10
ATOM     10  C   UNL     1       4.605   0.938  -0.985  0.00  0.00    +0.000 C 
BRANCH  10  11
ATOM     11  C   UNL     1       5.812   0.237  -0.360  0.00  0.00    +0.000 C 
BRANCH  11  12
ATOM     12  C   UNL     1       5.376  -0.897   0.562  0.00  0.00    +0.000 C 
BRANCH  12  13
ATOM     13  N   UNL     1       6.546  -1.586   1.095  0.00  0.00    +0.000 NA
ATOM     14  H   UNL     1       6.251  -2.279   1.781  0.00  0.00    +0.000 HD
ATOM     15  H   UNL     1       7.141  -0.923   1.590  0.00  0.00    +0.000 HD
ENDBRANCH  12  13
ENDBRANCH  11  12
ENDBRANCH  10  11
ENDBRANCH   1  10
BRANCH   3  16
ATOM     16  C   UNL     1       5.045   5.590  -2.827  0.00  0.00    +0.000 C 
BRANCH  16  17
ATOM     17  C   UNL     1       3.825   5.941  -3.616  0.00  0.00    +0.000 A 
ATOM     18  C   UNL     1       2.545   5.651  -3.182  0.00  0.00    +0.000 A 
ATOM     19  N   UNL     1       1.430   5.933  -3.885  0.00  0.00    +0.000 NA
ATOM     20  C   UNL     1       1.626   6.522  -5.073  0.00  0.00    +0.000 A 
ATOM     21  N   UNL     1       2.813   6.872  -5.593  0.00  0.00    +0.000 NA
ATOM     22  C   UNL     1       3.891   6.569  -4.844  0.00  0.00    +0.000 A 
ENDBRANCH  16  17
ENDBRANCH   3  16
TORSDOF 6
