REMARK  Name = 
REMARK  6 active torsions:
REMARK  status: ('A' for Active; 'I' for Inactive)
REMARK    1  A    between atoms: C_1  and  C_2
REMARK    2  A    between atoms: C_2  and  N_3
REMARK    3  A    between atoms: C_2  and  C_18
REMARK    4  A    between atoms: C_7  and  C_8
REMARK    5  A    between atoms: C_8  and  O_9
REMARK    6  A    between atoms: O_9  and  C_10
REMARK                            x       y       z     vdW  Elec       q    Type
REMARK                         _______ _______ _______ _____ _____    ______ ____
ROOT
ATOM      1  N   UNL     1       2.846   0.211  -1.562  0.00  0.00    +0.000 N 
ATOM      2  C   UNL     1       2.596  -0.738  -2.544  0.00  0.00    +0.000 A 
ATOM      3  C   UNL     1       2.504  -0.310  -3.873  0.00  0.00    +0.000 A 
ATOM      4  N   UNL     1       2.252  -1.129  -4.922  0.00  0.00    +0.000 NA
ATOM      5  C   UNL     1       2.102  -2.438  -4.609  0.00  0.00    +0.000 A 
ATOM      6  C   UNL     1       2.221  -2.874  -3.294  0.00  0.00    +0.000 A 
ATOM      7  N   UNL     1       2.474  -2.043  -2.249  0.00  0.00    +0.000 NA
ATOM      8  H   UNL     1       3.810   0.523  -1.662  0.00  0.00    +0.000 HD
ENDROOT
BRANCH   1  10
ATOM      9  C   UNL     1       1.160  -0.670   0.078  0.00  0.00    +0.000 C 
ATOM     10  C   UNL     1       2.528  -0.007  -0.144  0.00  0.00    +0.000 C 
BRANCH  10  11
ATOM     11  C   UNL     1       2.541   1.336   0.588  0.00  0.00    +0.000 A 
ATOM     12  C   UNL     1       2.072   2.520   0.033  0.00  0.00    +0.000 A 
ATOM     13  S   UNL     1       2.259   3.867   1.064  0.00  0.00    +0.000 S 
ATOM     14  C   UNL     1       2.948   2.906   2.288  0.00  0.00    +0.000 A 
ATOM     15  N   UNL     1       3.364   3.450   3.463  0.00  0.00    +0.000 NA
ATOM     16  C   UNL     1       3.847   2.592   4.299  0.00  0.00    +0.000 A 
ATOM     17  N   UNL     1       3.941   1.242   4.075  0.00  0.00    +0.000 N 
ATOM     18  C   UNL     1       3.533   0.645   2.904  0.00  0.00    +0.000 A 
ATOM     19  O   UNL     1       3.614  -0.570   2.738  0.00  0.00    +0.000 OA
ATOM     20  C   UNL     1       3.010   1.574   1.924  0.00  0.00    +0.000 A 
ATOM     21  H   UNL     1       4.310   0.624   4.782  0.00  0.00    +0.000 HD
ENDBRANCH  10  11
ENDBRANCH   1  10
BRANCH   5  22
ATOM     22  C   UNL     1       1.803  -3.406  -5.724  0.00  0.00    +0.000 C 
BRANCH  22  23
ATOM     23  O   UNL     1       0.389  -3.610  -5.817  0.00  0.00    +0.000 OA
BRANCH  23  24
ATOM     24  C   UNL     1       0.050  -4.399  -6.895  0.00  0.00    +0.000 A 
ATOM     25  C   UNL     1      -1.294  -4.646  -7.136  0.00  0.00    +0.000 A 
ATOM     26  N   UNL     1      -1.727  -5.415  -8.169  0.00  0.00    +0.000 NA
ATOM     27  C   UNL     1      -0.749  -5.917  -8.956  0.00  0.00    +0.000 A 
ATOM     28  C   UNL     1       0.594  -5.669  -8.719  0.00  0.00    +0.000 A 
ATOM     29  N   UNL     1       1.022  -4.915  -7.683  0.00  0.00    +0.000 NA
ENDBRANCH  23  24
ENDBRANCH  22  23
ENDBRANCH   5  22
TORSDOF 5
