REMARK  Name = 
REMARK  7 active torsions:
REMARK  status: ('A' for Active; 'I' for Inactive)
REMARK    1  A    between atoms: C_1  and  C_2
REMARK    2  A    between atoms: C_2  and  N_3
REMARK    3  A    between atoms: C_2  and  C_17
REMARK    4  A    between atoms: C_4  and  C_6
REMARK    5  A    between atoms: N_12  and  C_13
REMARK    6  A    between atoms: C_20  and  O_21
REMARK    7  A    between atoms: O_21  and  C_22
REMARK                            x       y       z     vdW  Elec       q    Type
REMARK                         _______ _______ _______ _____ _____    ______ ____
ROOT
ATOM      1  C   UNL     1       2.928  -0.303  -1.557  0.00  0.00    +0.000 C 
ATOM      2  C   UNL     1       2.458  -0.004  -0.133  0.00  0.00    +0.000 C 
ENDROOT
BRANCH   2   3
ATOM      3  C   UNL     1       3.008   1.299   0.431  0.00  0.00    +0.000 A 
ATOM      4  C   UNL     1       3.321   1.382   1.798  0.00  0.00    +0.000 A 
ATOM      5  C   UNL     1       3.656   2.607   2.386  0.00  0.00    +0.000 A 
ATOM      6  C   UNL     1       3.722   3.764   1.607  0.00  0.00    +0.000 A 
ATOM      7  C   UNL     1       3.419   3.692   0.248  0.00  0.00    +0.000 A 
ATOM      8  C   UNL     1       3.063   2.474  -0.335  0.00  0.00    +0.000 A 
BRANCH   6   9
ATOM      9  O   UNL     1       3.970   5.030   2.088  0.00  0.00    +0.000 OA
BRANCH   9  10
ATOM     10  C   UNL     1       4.788   5.207   3.170  0.00  0.00    +0.000 A 
ATOM     11  C   UNL     1       5.932   4.458   3.433  0.00  0.00    +0.000 A 
ATOM     12  C   UNL     1       6.681   4.733   4.573  0.00  0.00    +0.000 A 
ATOM     13  C   UNL     1       6.284   5.783   5.386  0.00  0.00    +0.000 A 
ATOM     14  N   UNL     1       5.213   6.566   5.133  0.00  0.00    +0.000 NA
ATOM     15  C   UNL     1       4.494   6.263   4.026  0.00  0.00    +0.000 A 
ENDBRANCH   9  10
ENDBRANCH   6   9
ENDBRANCH   2   3
BRANCH   2  16
ATOM     16  N   UNL     1       1.006   0.051  -0.059  0.00  0.00    +0.000 N 
ATOM     17  C   UNL     1       0.209  -1.062  -0.031  0.00  0.00    +0.000 C 
ATOM     18  O   UNL     1       0.650  -2.191  -0.224  0.00  0.00    +0.000 OA
ATOM     19  H   UNL     1       0.614   0.938   0.242  0.00  0.00    +0.000 HD
BRANCH  17  20
ATOM     20  C   UNL     1      -1.220  -0.831   0.232  0.00  0.00    +0.000 A 
ATOM     21  C   UNL     1      -2.164  -1.745  -0.214  0.00  0.00    +0.000 A 
ATOM     22  S   UNL     1      -3.763  -1.343   0.229  0.00  0.00    +0.000 S 
ATOM     23  C   UNL     1      -3.243   0.038   1.081  0.00  0.00    +0.000 A 
ATOM     24  N   UNL     1      -4.116   0.805   1.775  0.00  0.00    +0.000 NA
ATOM     25  C   UNL     1      -3.575   1.779   2.431  0.00  0.00    +0.000 A 
ATOM     26  N   UNL     1      -2.231   2.091   2.431  0.00  0.00    +0.000 N 
ATOM     27  C   UNL     1      -1.722   3.205   3.201  0.00  0.00    +0.000 C 
ATOM     28  C   UNL     1      -1.326   1.380   1.654  0.00  0.00    +0.000 A 
ATOM     29  O   UNL     1      -0.152   1.719   1.533  0.00  0.00    +0.000 OA
ATOM     30  C   UNL     1      -1.877   0.222   0.974  0.00  0.00    +0.000 A 
ENDBRANCH  17  20
ENDBRANCH   2  16
TORSDOF 5
