REMARK  Name = 
REMARK  10 active torsions:
REMARK  status: ('A' for Active; 'I' for Inactive)
REMARK    1  A    between atoms: C_1  and  O_2
REMARK    2  A    between atoms: O_2  and  C_3
REMARK    3  A    between atoms: C_10  and  C_11
REMARK    4  A    between atoms: N_13  and  C_14
REMARK    5  A    between atoms: C_14  and  C_15
REMARK    6  A    between atoms: C_18  and  O_19
REMARK    7  A    between atoms: O_19  and  C_20
REMARK    8  A    between atoms: C_20  and  C_21
REMARK    9  A    between atoms: C_21  and  N_22
REMARK   10  A    between atoms: N_25  and  C_26
REMARK                            x       y       z     vdW  Elec       q    Type
REMARK                         _______ _______ _______ _____ _____    ______ ____
ROOT
ATOM      1  C   UNL     1       3.006   0.098   3.438  0.00  0.00    +0.000 C 
ENDROOT
BRANCH   1   2
ATOM      2  C   UNL     1       1.913   1.129   3.331  0.00  0.00    +0.000 A 
ATOM      3  C   UNL     1       0.567   0.741   3.289  0.00  0.00    +0.000 A 
ATOM      4  C   UNL     1      -0.447   1.701   3.210  0.00  0.00    +0.000 A 
ATOM      5  C   UNL     1      -0.130   3.062   3.189  0.00  0.00    +0.000 A 
ATOM      6  C   UNL     1       1.210   3.448   3.160  0.00  0.00    +0.000 A 
ATOM      7  C   UNL     1       2.225   2.491   3.230  0.00  0.00    +0.000 A 
BRANCH   5   8
ATOM      8  O   UNL     1      -1.046   4.085   3.201  0.00  0.00    +0.000 OA
BRANCH   8   9
ATOM      9  C   UNL     1      -2.287   3.756   3.837  0.00  0.00    +0.000 C 
BRANCH   9  10
ATOM     10  C   UNL     1      -2.932   5.016   4.443  0.00  0.00    +0.000 C 
BRANCH  10  11
ATOM     11  N   UNL     1      -4.229   4.742   5.092  0.00  0.00    +0.000 NA
ATOM     12  C   UNL     1      -4.120   3.807   6.230  0.00  0.00    +0.000 C 
ATOM     13  C   UNL     1      -5.499   3.516   6.861  0.00  0.00    +0.000 C 
ATOM     14  N   UNL     1      -6.233   4.709   7.319  0.00  0.00    +0.000 NA
ATOM     15  C   UNL     1      -5.667   5.244   8.553  0.00  0.00    +0.000 C 
ATOM     16  C   UNL     1      -6.247   5.714   6.235  0.00  0.00    +0.000 C 
ATOM     17  C   UNL     1      -4.877   5.986   5.556  0.00  0.00    +0.000 C 
ENDBRANCH  10  11
ENDBRANCH   9  10
ENDBRANCH   8   9
ENDBRANCH   5   8
ENDBRANCH   1   2
BRANCH   1  20
ATOM     18  C   UNL     1       4.377  -1.318   1.976  0.00  0.00    +0.000 C 
ATOM     19  O   UNL     1       4.903  -1.856   2.946  0.00  0.00    +0.000 OA
ATOM     20  N   UNL     1       3.433  -0.341   2.135  0.00  0.00    +0.000 N 
ATOM     21  H   UNL     1       3.049   0.134   1.330  0.00  0.00    +0.000 HD
BRANCH  18  29
ATOM     22  C   UNL     1       3.196  -0.395  -1.124  0.00  0.00    +0.000 A 
ATOM     23  N   UNL     1       2.936  -0.217  -2.434  0.00  0.00    +0.000 NA
ATOM     24  C   UNL     1       3.659  -0.911  -3.318  0.00  0.00    +0.000 A 
ATOM     25  N   UNL     1       4.629  -1.781  -3.051  0.00  0.00    +0.000 NA
ATOM     26  C   UNL     1       4.862  -1.922  -1.735  0.00  0.00    +0.000 A 
ATOM     27  S   UNL     1       6.067  -2.995  -1.210  0.00  0.00    +0.000 S 
ATOM     28  C   UNL     1       5.753  -2.629   0.418  0.00  0.00    +0.000 A 
ATOM     29  C   UNL     1       4.740  -1.694   0.600  0.00  0.00    +0.000 A 
ATOM     30  C   UNL     1       4.207  -1.272  -0.693  0.00  0.00    +0.000 A 
BRANCH  22  32
ATOM     31  C   UNL     1       1.200   0.755  -0.710  0.00  0.00    +0.000 C 
ATOM     32  O   UNL     1       2.473   0.347  -0.213  0.00  0.00    +0.000 OA
ENDBRANCH  22  32
ENDBRANCH  18  29
ENDBRANCH   1  20
TORSDOF 8
