REMARK  Name = 
REMARK  5 active torsions:
REMARK  status: ('A' for Active; 'I' for Inactive)
REMARK    1  A    between atoms: C_2  and  C_4
REMARK    2  A    between atoms: C_7  and  O_8
REMARK    3  A    between atoms: O_8  and  C_9
REMARK    4  A    between atoms: C_9  and  C_10
REMARK    5  A    between atoms: C_14  and  C_15
REMARK                            x       y       z     vdW  Elec       q    Type
REMARK                         _______ _______ _______ _____ _____    ______ ____
ROOT
ATOM      1  C   UNL     1       5.236  -0.054   5.900  0.00  0.00    +0.000 C 
ENDROOT
BRANCH   1   2
ATOM      2  C   UNL     1       6.193   0.288   7.021  0.00  0.00    +0.000 A 
ATOM      3  N   UNL     1       6.290   1.579   7.399  0.00  0.00    +0.000 NA
ATOM      4  C   UNL     1       7.105   1.840   8.433  0.00  0.00    +0.000 A 
ATOM      5  C   UNL     1       7.813   0.873   9.106  0.00  0.00    +0.000 A 
ATOM      6  C   UNL     1       7.656  -0.428   8.665  0.00  0.00    +0.000 A 
ATOM      7  N   UNL     1       6.853  -0.726   7.619  0.00  0.00    +0.000 NA
BRANCH   6   8
ATOM      8  C   UNL     1       8.359  -1.573   9.283  0.00  0.00    +0.000 A 
ATOM      9  C   UNL     1       8.719  -1.585  10.646  0.00  0.00    +0.000 A 
ATOM     10  C   UNL     1       9.403  -2.668  11.207  0.00  0.00    +0.000 A 
ATOM     11  C   UNL     1       9.732  -3.757  10.412  0.00  0.00    +0.000 A 
ATOM     12  F   UNL     1      10.393  -4.790  10.948  0.00  0.00    +0.000 F 
ATOM     13  C   UNL     1       9.381  -3.789   9.071  0.00  0.00    +0.000 A 
ATOM     14  C   UNL     1       8.697  -2.705   8.513  0.00  0.00    +0.000 A 
ENDBRANCH   6   8
ENDBRANCH   1   2
BRANCH   1  15
ATOM     15  O   UNL     1       5.878   0.029   4.616  0.00  0.00    +0.000 OA
BRANCH  15  19
ATOM     16  C   UNL     1       3.253  -0.831   1.552  0.00  0.00    +0.000 A 
ATOM     17  C   UNL     1       4.581  -0.511   1.251  0.00  0.00    +0.000 A 
ATOM     18  C   UNL     1       5.466  -0.220   2.291  0.00  0.00    +0.000 A 
ATOM     19  C   UNL     1       4.993  -0.266   3.597  0.00  0.00    +0.000 A 
ATOM     20  N   UNL     1       3.715  -0.574   3.911  0.00  0.00    +0.000 NA
ATOM     21  C   UNL     1       2.873  -0.838   2.885  0.00  0.00    +0.000 A 
BRANCH  16  23
ATOM     22  N   UNL     1       2.659  -1.676  -0.645  0.00  0.00    +0.000 N 
ATOM     23  C   UNL     1       2.230  -1.134   0.533  0.00  0.00    +0.000 C 
ATOM     24  O   UNL     1       1.040  -0.944   0.746  0.00  0.00    +0.000 OA
ATOM     25  H   UNL     1       1.936  -1.974  -1.290  0.00  0.00    +0.000 HD
ATOM     26  H   UNL     1       3.577  -2.084  -0.754  0.00  0.00    +0.000 HD
ENDBRANCH  16  23
ENDBRANCH  15  19
ENDBRANCH   1  15
TORSDOF 5
