REMARK  Name = 
REMARK  6 active torsions:
REMARK  status: ('A' for Active; 'I' for Inactive)
REMARK    1  A    between atoms: C_2  and  C_3
REMARK    2  A    between atoms: N_7  and  C_8
REMARK    3  A    between atoms: C_8  and  C_9
REMARK    4  A    between atoms: C_9  and  C_12
REMARK    5  A    between atoms: C_14  and  N_15
REMARK    6  A    between atoms: N_15  and  C_16
REMARK                            x       y       z     vdW  Elec       q    Type
REMARK                         _______ _______ _______ _____ _____    ______ ____
ROOT
ATOM      1  C   UNL     1       5.895   1.014   0.007  0.00  0.00    +0.000 C 
ATOM      2  F   UNL     1       5.001   0.903  -1.031  0.00  0.00    +0.000 F 
ATOM      3  F   UNL     1       5.127   0.901   1.138  0.00  0.00    +0.000 F 
ENDROOT
BRANCH   1   4
ATOM      4  C   UNL     1       6.618   2.361  -0.036  0.00  0.00    +0.000 A 
ATOM      5  C   UNL     1       5.855   3.533  -0.003  0.00  0.00    +0.000 A 
ATOM      6  C   UNL     1       6.481   4.786  -0.043  0.00  0.00    +0.000 A 
ATOM      7  C   UNL     1       7.869   4.820  -0.066  0.00  0.00    +0.000 A 
ATOM      8  C   UNL     1       8.562   3.619  -0.112  0.00  0.00    +0.000 A 
ATOM      9  N   UNL     1       7.975   2.400  -0.104  0.00  0.00    +0.000 NA
BRANCH   6  10
ATOM     10  N   UNL     1       5.688   5.943   0.051  0.00  0.00    +0.000 N 
ATOM     11  H   UNL     1       4.846   5.898  -0.521  0.00  0.00    +0.000 HD
BRANCH  10  12
ATOM     12  C   UNL     1       6.077   7.269   0.442  0.00  0.00    +0.000 C 
ATOM     13  C   UNL     1       4.850   8.132   0.812  0.00  0.00    +0.000 C 
ATOM     14  N   UNL     1       5.331   9.203  -0.075  0.00  0.00    +0.000 NA
ATOM     15  C   UNL     1       6.288   8.273  -0.706  0.00  0.00    +0.000 C 
ATOM     16  H   UNL     1       5.771   9.976   0.425  0.00  0.00    +0.000 HD
ENDBRANCH  10  12
ENDBRANCH   6  10
ENDBRANCH   1   4
BRANCH   1  17
ATOM     17  C   UNL     1       6.850  -0.207  -0.069  0.00  0.00    +0.000 C 
BRANCH  17  22
ATOM     18  C   UNL     1       8.335  -4.962  -0.234  0.00  0.00    +0.000 A 
ATOM     19  C   UNL     1       8.868  -3.794   0.254  0.00  0.00    +0.000 A 
ATOM     20  N   UNL     1       8.184  -2.629   0.324  0.00  0.00    +0.000 NA
ATOM     21  C   UNL     1       6.911  -2.632  -0.100  0.00  0.00    +0.000 A 
ATOM     22  N   UNL     1       6.135  -1.496   0.001  0.00  0.00    +0.000 N 
ATOM     23  N   UNL     1       6.312  -3.718  -0.613  0.00  0.00    +0.000 NA
ATOM     24  C   UNL     1       7.034  -4.862  -0.665  0.00  0.00    +0.000 A 
ATOM     25  H   UNL     1       5.334  -1.595  -0.615  0.00  0.00    +0.000 HD
BRANCH  18  27
ATOM     26  N   UNL     1       9.676  -7.170  -0.320  0.00  0.00    +0.000 NA
ATOM     27  C   UNL     1       9.072  -6.178  -0.284  0.00  0.00    +0.000 C 
ENDBRANCH  18  27
ENDBRANCH  17  22
ENDBRANCH   1  17
TORSDOF 6
