REMARK  Name = 
REMARK  2 active torsions:
REMARK  status: ('A' for Active; 'I' for Inactive)
REMARK    1  A    between atoms: C_8  and  C_9
REMARK    2  A    between atoms: C_13  and  C_14
REMARK                            x       y       z     vdW  Elec       q    Type
REMARK                         _______ _______ _______ _____ _____    ______ ____
ROOT
ATOM      1  C   UNL     1       7.152   0.848   2.019  0.00  0.00    +0.000 A 
ATOM      2  C   UNL     1       7.872   2.039   1.905  0.00  0.00    +0.000 A 
ATOM      3  C   UNL     1       9.269   2.014   1.806  0.00  0.00    +0.000 A 
ATOM      4  C   UNL     1       9.964   0.800   1.850  0.00  0.00    +0.000 A 
ATOM      5  C   UNL     1       9.283  -0.422   1.961  0.00  0.00    +0.000 A 
ATOM      6  C   UNL     1       7.872  -0.370   1.999  0.00  0.00    +0.000 A 
ENDROOT
BRANCH   1  14
ATOM      7 BR   UNL     1       1.171   0.885   0.484  0.00  0.00    +0.000 Br
ATOM      8  C   UNL     1       2.443   0.277   1.761  0.00  0.00    +0.000 C 
ATOM      9  N   UNL     1       1.913   0.184   2.927  0.00  0.00    +0.000 NA
ATOM     10  C   UNL     1       2.382  -0.490   4.015  0.00  0.00    +0.000 C 
ATOM     11  C   UNL     1       3.485  -0.228   4.690  0.00  0.00    +0.000 C 
ATOM     12  O   UNL     1       4.380   0.736   4.342  0.00  0.00    +0.000 OA
ATOM     13  C   UNL     1       5.468   0.125   3.659  0.00  0.00    +0.000 C 
ATOM     14  C   UNL     1       5.645   0.866   2.337  0.00  0.00    +0.000 C 
ATOM     15  C   UNL     1       4.831   0.155   1.272  0.00  0.00    +0.000 C 
ATOM     16  N   UNL     1       3.579  -0.159   1.134  0.00  0.00    +0.000 NA
ENDBRANCH   1  14
BRANCH   5  17
ATOM     17  C   UNL     1      10.006  -1.705   2.103  0.00  0.00    +0.000 A 
ATOM     18  N   UNL     1      11.346  -1.668   2.248  0.00  0.00    +0.000 NA
ATOM     19  C   UNL     1      11.966  -2.849   2.434  0.00  0.00    +0.000 A 
ATOM     20  C   UNL     1      11.308  -4.054   2.476  0.00  0.00    +0.000 A 
ATOM     21  C   UNL     1       9.945  -3.988   2.321  0.00  0.00    +0.000 A 
ATOM     22  N   UNL     1       9.271  -2.837   2.141  0.00  0.00    +0.000 NA
ENDBRANCH   5  17
TORSDOF 2
