REMARK  Name = 
REMARK  5 active torsions:
REMARK  status: ('A' for Active; 'I' for Inactive)
REMARK    1  A    between atoms: C_2  and  C_5
REMARK    2  A    between atoms: C_7  and  C_8
REMARK    3  A    between atoms: C_8  and  N_9
REMARK    4  A    between atoms: C_14  and  C_15
REMARK    5  A    between atoms: C_21  and  C_22
REMARK                            x       y       z     vdW  Elec       q    Type
REMARK                         _______ _______ _______ _____ _____    ______ ____
ROOT
ATOM      1  C   UNL     1       2.692  -0.672  -1.287  0.00  0.00    +0.000 A 
ATOM      2  C   UNL     1       3.359   0.107  -2.243  0.00  0.00    +0.000 A 
ATOM      3  C   UNL     1       3.892  -0.480  -3.396  0.00  0.00    +0.000 A 
ATOM      4  C   UNL     1       3.715  -1.862  -3.598  0.00  0.00    +0.000 A 
ATOM      5  C   UNL     1       3.082  -2.686  -2.647  0.00  0.00    +0.000 A 
ATOM      6  C   UNL     1       2.565  -2.058  -1.501  0.00  0.00    +0.000 A 
ENDROOT
BRANCH   5   7
ATOM      7  C   UNL     1       3.027  -4.160  -2.811  0.00  0.00    +0.000 A 
ATOM      8  C   UNL     1       4.077  -4.858  -3.424  0.00  0.00    +0.000 A 
ATOM      9  C   UNL     1       4.024  -6.243  -3.515  0.00  0.00    +0.000 A 
ATOM     10  N   UNL     1       3.009  -6.985  -3.037  0.00  0.00    +0.000 NA
ATOM     11  C   UNL     1       2.000  -6.311  -2.451  0.00  0.00    +0.000 A 
ATOM     12  C   UNL     1       1.960  -4.929  -2.324  0.00  0.00    +0.000 A 
ENDBRANCH   5   7
BRANCH   1  14
ATOM     13  F   UNL     1       2.386   1.271   0.095  0.00  0.00    +0.000 F 
ATOM     14  C   UNL     1       2.141  -0.063  -0.021  0.00  0.00    +0.000 C 
ATOM     15  F   UNL     1       2.662  -0.636   1.100  0.00  0.00    +0.000 F 
ATOM     16  F   UNL     1       0.790  -0.206   0.082  0.00  0.00    +0.000 F 
ENDBRANCH   1  14
BRANCH   3  17
ATOM     17  C   UNL     1       4.652   0.345  -4.415  0.00  0.00    +0.000 C 
BRANCH  17  18
ATOM     18  N   UNL     1       3.727   0.864  -5.394  0.00  0.00    +0.000 N 
ATOM     19  C   UNL     1       4.287   1.617  -6.409  0.00  0.00    +0.000 A 
ATOM     20  N   UNL     1       3.525   2.614  -6.870  0.00  0.00    +0.000 NA
ATOM     21  C   UNL     1       4.001   3.330  -7.903  0.00  0.00    +0.000 A 
ATOM     22  C   UNL     1       5.215   3.091  -8.492  0.00  0.00    +0.000 A 
ATOM     23  C   UNL     1       5.956   2.053  -7.954  0.00  0.00    +0.000 A 
ATOM     24  N   UNL     1       5.498   1.321  -6.900  0.00  0.00    +0.000 NA
ATOM     25  H   UNL     1       2.957   1.406  -5.020  0.00  0.00    +0.000 HD
BRANCH  23  26
ATOM     26  C   UNL     1       7.311   1.709  -8.552  0.00  0.00    +0.000 C 
ATOM     27  F   UNL     1       7.627   2.476  -9.640  0.00  0.00    +0.000 F 
ATOM     28  F   UNL     1       8.341   1.886  -7.676  0.00  0.00    +0.000 F 
ATOM     29  F   UNL     1       7.397   0.419  -8.983  0.00  0.00    +0.000 F 
ENDBRANCH  23  26
ENDBRANCH  17  18
ENDBRANCH   3  17
TORSDOF 5
