REMARK  Name = 
REMARK  6 active torsions:
REMARK  status: ('A' for Active; 'I' for Inactive)
REMARK    1  A    between atoms: C_2  and  C_25
REMARK    2  A    between atoms: N_3  and  C_4
REMARK    3  A    between atoms: C_4  and  C_5
REMARK    4  A    between atoms: C_8  and  C_9
REMARK    5  A    between atoms: C_9  and  N_10
REMARK    6  A    between atoms: C_11  and  C_13
REMARK                            x       y       z     vdW  Elec       q    Type
REMARK                         _______ _______ _______ _____ _____    ______ ____
ROOT
ATOM      1  C   UNL     1       3.195  -2.063   2.937  0.00  0.00    +0.000 A 
ATOM      2  C   UNL     1       4.084  -1.272   3.660  0.00  0.00    +0.000 A 
ATOM      3  C   UNL     1       4.941  -1.879   4.576  0.00  0.00    +0.000 A 
ATOM      4  C   UNL     1       4.892  -3.261   4.764  0.00  0.00    +0.000 A 
ATOM      5  C   UNL     1       3.999  -3.975   3.972  0.00  0.00    +0.000 A 
ATOM      6  N   UNL     1       3.159  -3.414   3.068  0.00  0.00    +0.000 NA
ENDROOT
BRANCH   1   7
ATOM      7  C   UNL     1       2.239  -1.426   1.954  0.00  0.00    +0.000 C 
BRANCH   7  10
ATOM      8  O   UNL     1       3.634   0.829   0.996  0.00  0.00    +0.000 OA
ATOM      9  C   UNL     1       3.502  -0.145   0.261  0.00  0.00    +0.000 C 
ATOM     10  N   UNL     1       2.817  -1.274   0.637  0.00  0.00    +0.000 N 
ATOM     11  H   UNL     1       2.898  -2.108   0.078  0.00  0.00    +0.000 HD
BRANCH   9  12
ATOM     12  C   UNL     1       4.078  -0.197  -1.066  0.00  0.00    +0.000 A 
ATOM     13  C   UNL     1       3.957  -1.120  -2.094  0.00  0.00    +0.000 A 
ATOM     14  C   UNL     1       4.758  -0.685  -3.178  0.00  0.00    +0.000 A 
ATOM     15  C   UNL     1       5.340   0.502  -2.803  0.00  0.00    +0.000 A 
ATOM     16  N   UNL     1       4.907   0.801  -1.538  0.00  0.00    +0.000 N 
ATOM     17  H   UNL     1       5.154   1.625  -1.003  0.00  0.00    +0.000 HD
ENDBRANCH   9  12
ENDBRANCH   7  10
ENDBRANCH   1   7
BRANCH   4  18
ATOM     18  C   UNL     1       5.786  -3.953   5.752  0.00  0.00    +0.000 C 
BRANCH  18  19
ATOM     19  N   UNL     1       7.038  -4.342   5.151  0.00  0.00    +0.000 N 
ATOM     20  C   UNL     1       7.958  -5.094   5.836  0.00  0.00    +0.000 C 
ATOM     21  O   UNL     1       7.742  -5.515   6.969  0.00  0.00    +0.000 OA
ATOM     22  H   UNL     1       7.344  -3.805   4.345  0.00  0.00    +0.000 HD
BRANCH  20  23
ATOM     23  C   UNL     1       9.194  -5.425   5.115  0.00  0.00    +0.000 A 
ATOM     24  C   UNL     1       9.928  -6.548   5.476  0.00  0.00    +0.000 A 
ATOM     25  S   UNL     1      11.306  -6.806   4.505  0.00  0.00    +0.000 S 
ATOM     26  C   UNL     1      11.001  -5.397   3.600  0.00  0.00    +0.000 A 
ATOM     27  N   UNL     1      11.838  -5.010   2.602  0.00  0.00    +0.000 NA
ATOM     28  C   UNL     1      11.498  -3.910   2.017  0.00  0.00    +0.000 A 
ATOM     29  N   UNL     1      10.393  -3.162   2.335  0.00  0.00    +0.000 N 
ATOM     30  C   UNL     1       9.505  -3.530   3.317  0.00  0.00    +0.000 A 
ATOM     31  O   UNL     1       8.503  -2.863   3.550  0.00  0.00    +0.000 OA
ATOM     32  C   UNL     1       9.849  -4.753   4.017  0.00  0.00    +0.000 A 
ATOM     33  H   UNL     1      10.177  -2.319   1.828  0.00  0.00    +0.000 HD
ENDBRANCH  20  23
ENDBRANCH  18  19
ENDBRANCH   4  18
TORSDOF 6
