REMARK  Name = 
REMARK  7 active torsions:
REMARK  status: ('A' for Active; 'I' for Inactive)
REMARK    1  A    between atoms: C_1  and  C_2
REMARK    2  A    between atoms: C_7  and  C_8
REMARK    3  A    between atoms: N_10  and  C_11
REMARK    4  A    between atoms: C_11  and  C_12
REMARK    5  A    between atoms: C_15  and  C_16
REMARK    6  A    between atoms: C_16  and  N_17
REMARK    7  A    between atoms: C_18  and  C_20
REMARK                            x       y       z     vdW  Elec       q    Type
REMARK                         _______ _______ _______ _____ _____    ______ ____
ROOT
ATOM      1  C   UNL     1       4.511  -3.795   0.158  0.00  0.00    +0.000 A 
ATOM      2  C   UNL     1       5.050  -2.511   0.196  0.00  0.00    +0.000 A 
ATOM      3  C   UNL     1       6.438  -2.355   0.244  0.00  0.00    +0.000 A 
ATOM      4  C   UNL     1       7.267  -3.479   0.240  0.00  0.00    +0.000 A 
ATOM      5  C   UNL     1       6.640  -4.720   0.209  0.00  0.00    +0.000 A 
ATOM      6  N   UNL     1       5.296  -4.903   0.150  0.00  0.00    +0.000 NA
ENDROOT
BRANCH   1   7
ATOM      7  C   UNL     1       3.010  -3.995   0.082  0.00  0.00    +0.000 C 
BRANCH   7  10
ATOM      8  C   UNL     1       1.311  -3.658  -1.687  0.00  0.00    +0.000 C 
ATOM      9  O   UNL     1       0.531  -3.113  -0.915  0.00  0.00    +0.000 OA
ATOM     10  N   UNL     1       2.553  -4.106  -1.294  0.00  0.00    +0.000 N 
ATOM     11  H   UNL     1       3.036  -4.795  -1.852  0.00  0.00    +0.000 HD
BRANCH   8  18
ATOM     12  C   UNL     1       3.208  -3.516  -4.146  0.00  0.00    +0.000 C 
ATOM     13  C   UNL     1       1.742  -3.819  -4.218  0.00  0.00    +0.000 A 
ATOM     14  N   UNL     1       1.279  -3.982  -5.494  0.00  0.00    +0.000 NA
ATOM     15  C   UNL     1      -0.041  -4.198  -5.676  0.00  0.00    +0.000 A 
ATOM     16  C   UNL     1      -0.945  -4.280  -4.637  0.00  0.00    +0.000 A 
ATOM     17  C   UNL     1      -0.467  -4.124  -3.338  0.00  0.00    +0.000 A 
ATOM     18  C   UNL     1       0.899  -3.891  -3.103  0.00  0.00    +0.000 A 
ENDBRANCH   8  18
ENDBRANCH   7  10
ENDBRANCH   1   7
BRANCH   4  19
ATOM     19  C   UNL     1       8.765  -3.363   0.291  0.00  0.00    +0.000 C 
BRANCH  19  20
ATOM     20  N   UNL     1       9.255  -3.332   1.647  0.00  0.00    +0.000 N 
ATOM     21  C   UNL     1      10.589  -3.136   1.920  0.00  0.00    +0.000 C 
ATOM     22  O   UNL     1      11.408  -2.922   1.031  0.00  0.00    +0.000 OA
ATOM     23  H   UNL     1       8.661  -3.728   2.368  0.00  0.00    +0.000 HD
BRANCH  21  24
ATOM     24  C   UNL     1      10.979  -3.138   3.337  0.00  0.00    +0.000 A 
ATOM     25  C   UNL     1      12.137  -2.483   3.737  0.00  0.00    +0.000 A 
ATOM     26  S   UNL     1      12.414  -2.546   5.419  0.00  0.00    +0.000 S 
ATOM     27  C   UNL     1      11.028  -3.498   5.669  0.00  0.00    +0.000 A 
ATOM     28  N   UNL     1      10.691  -3.936   6.911  0.00  0.00    +0.000 NA
ATOM     29  C   UNL     1       9.635  -4.679   6.948  0.00  0.00    +0.000 A 
ATOM     30  N   UNL     1       8.880  -5.017   5.855  0.00  0.00    +0.000 N 
ATOM     31  C   UNL     1       9.159  -4.567   4.587  0.00  0.00    +0.000 A 
ATOM     32  O   UNL     1       8.431  -4.839   3.638  0.00  0.00    +0.000 OA
ATOM     33  C   UNL     1      10.349  -3.745   4.487  0.00  0.00    +0.000 A 
ATOM     34  H   UNL     1       8.056  -5.592   5.954  0.00  0.00    +0.000 HD
ENDBRANCH  21  24
ENDBRANCH  19  20
ENDBRANCH   4  19
TORSDOF 6
