REMARK  Name = 
REMARK  8 active torsions:
REMARK  status: ('A' for Active; 'I' for Inactive)
REMARK    1  A    between atoms: N_1  and  C_2
REMARK    2  A    between atoms: C_2  and  C_3
REMARK    3  A    between atoms: C_3  and  N_4
REMARK    4  A    between atoms: C_3  and  C_17
REMARK    5  A    between atoms: C_5  and  C_7
REMARK    6  A    between atoms: C_20  and  O_21
REMARK    7  A    between atoms: O_21  and  C_22
REMARK    8  A    between atoms: C_22  and  C_23
REMARK                            x       y       z     vdW  Elec       q    Type
REMARK                         _______ _______ _______ _____ _____    ______ ____
ROOT
ATOM      1  C   UNL     1       3.207  -0.795   1.152  0.00  0.00    +0.000 C 
ENDROOT
BRANCH   1   2
ATOM      2  C   UNL     1       4.714  -0.981   1.041  0.00  0.00    +0.000 A 
ATOM      3  C   UNL     1       5.569  -0.119   1.750  0.00  0.00    +0.000 A 
ATOM      4  C   UNL     1       6.933  -0.399   1.852  0.00  0.00    +0.000 A 
ATOM      5  C   UNL     1       7.459  -1.535   1.242  0.00  0.00    +0.000 A 
ATOM      6  C   UNL     1       6.652  -2.295   0.399  0.00  0.00    +0.000 A 
ATOM      7  C   UNL     1       5.288  -2.020   0.299  0.00  0.00    +0.000 A 
BRANCH   5   8
ATOM      8  O   UNL     1       8.759  -1.843   1.545  0.00  0.00    +0.000 OA
BRANCH   8   9
ATOM      9  C   UNL     1       9.049  -3.248   1.479  0.00  0.00    +0.000 C 
BRANCH   9  10
ATOM     10  C   UNL     1      10.211  -3.599   2.374  0.00  0.00    +0.000 A 
ATOM     11  C   UNL     1      10.129  -3.370   3.747  0.00  0.00    +0.000 A 
ATOM     12  C   UNL     1      11.190  -3.763   4.557  0.00  0.00    +0.000 A 
ATOM     13  C   UNL     1      12.298  -4.371   3.979  0.00  0.00    +0.000 A 
ATOM     14  C   UNL     1      12.297  -4.569   2.608  0.00  0.00    +0.000 A 
ATOM     15  N   UNL     1      11.280  -4.204   1.798  0.00  0.00    +0.000 NA
ENDBRANCH   9  10
ENDBRANCH   8   9
ENDBRANCH   5   8
ENDBRANCH   1   2
BRANCH   1  16
ATOM     16  N   UNL     1       2.740   0.143   0.148  0.00  0.00    +0.000 N 
ATOM     17  C   UNL     1       1.672   0.970   0.382  0.00  0.00    +0.000 C 
ATOM     18  O   UNL     1       1.101   0.996   1.469  0.00  0.00    +0.000 OA
ATOM     19  H   UNL     1       3.074   0.004  -0.802  0.00  0.00    +0.000 HD
BRANCH  17  20
ATOM     20  C   UNL     1       1.233   1.828  -0.718  0.00  0.00    +0.000 A 
ATOM     21  C   UNL     1       0.511   2.980  -0.438  0.00  0.00    +0.000 A 
ATOM     22  S   UNL     1       0.060   3.856  -1.828  0.00  0.00    +0.000 S 
ATOM     23  C   UNL     1       0.764   2.694  -2.852  0.00  0.00    +0.000 A 
ATOM     24  N   UNL     1       0.678   2.823  -4.204  0.00  0.00    +0.000 NA
ATOM     25  C   UNL     1       1.217   1.845  -4.858  0.00  0.00    +0.000 A 
ATOM     26  N   UNL     1       1.849   0.767  -4.287  0.00  0.00    +0.000 N 
ATOM     27  C   UNL     1       2.009   0.634  -2.928  0.00  0.00    +0.000 A 
ATOM     28  O   UNL     1       2.664  -0.290  -2.448  0.00  0.00    +0.000 OA
ATOM     29  C   UNL     1       1.377   1.677  -2.144  0.00  0.00    +0.000 A 
ATOM     30  H   UNL     1       2.281   0.057  -4.859  0.00  0.00    +0.000 HD
ENDBRANCH  17  20
ENDBRANCH   1  16
BRANCH   1  31
ATOM     31  C   UNL     1       2.426  -2.149   1.108  0.00  0.00    +0.000 C 
BRANCH  31  32
ATOM     32  N   UNL     1       0.974  -2.069   1.325  0.00  0.00    +0.000 NA
ATOM     33  H   UNL     1       0.792  -1.988   2.326  0.00  0.00    +0.000 HD
ATOM     34  H   UNL     1       0.632  -1.181   0.952  0.00  0.00    +0.000 HD
ENDBRANCH  31  32
ENDBRANCH   1  31
TORSDOF 8
