REMARK  Name = 
REMARK  7 active torsions:
REMARK  status: ('A' for Active; 'I' for Inactive)
REMARK    1  A    between atoms: C_1  and  O_2
REMARK    2  A    between atoms: O_2  and  C_3
REMARK    3  A    between atoms: C_7  and  C_8
REMARK    4  A    between atoms: C_8  and  C_9
REMARK    5  A    between atoms: C_12  and  C_13
REMARK    6  A    between atoms: C_13  and  N_14
REMARK    7  A    between atoms: C_15  and  C_17
REMARK                            x       y       z     vdW  Elec       q    Type
REMARK                         _______ _______ _______ _____ _____    ______ ____
ROOT
ATOM      1  C   UNL     1       9.317   6.723   2.371  0.00  0.00    +0.000 C 
ENDROOT
BRANCH   1   5
ATOM      2  C   UNL     1       7.128   3.803   0.151  0.00  0.00    +0.000 A 
ATOM      3  C   UNL     1       7.318   3.618   1.522  0.00  0.00    +0.000 A 
ATOM      4  C   UNL     1       8.031   4.562   2.258  0.00  0.00    +0.000 A 
ATOM      5  C   UNL     1       8.561   5.668   1.601  0.00  0.00    +0.000 A 
ATOM      6  N   UNL     1       8.402   5.865   0.267  0.00  0.00    +0.000 NA
ATOM      7  C   UNL     1       7.702   4.933  -0.421  0.00  0.00    +0.000 A 
BRANCH   2   8
ATOM      8  C   UNL     1       6.344   2.821  -0.679  0.00  0.00    +0.000 C 
BRANCH   8  13
ATOM      9  C   UNL     1       8.618   0.818  -3.008  0.00  0.00    +0.000 A 
ATOM     10  C   UNL     1       8.825  -0.339  -2.257  0.00  0.00    +0.000 A 
ATOM     11  C   UNL     1       8.204  -0.488  -1.015  0.00  0.00    +0.000 A 
ATOM     12  C   UNL     1       7.386   0.523  -0.511  0.00  0.00    +0.000 A 
ATOM     13  C   UNL     1       7.179   1.698  -1.244  0.00  0.00    +0.000 A 
ATOM     14  C   UNL     1       7.794   1.827  -2.499  0.00  0.00    +0.000 A 
BRANCH   9  16
ATOM     15  C   UNL     1      10.084   0.135  -4.748  0.00  0.00    +0.000 C 
ATOM     16  O   UNL     1       9.158   1.085  -4.237  0.00  0.00    +0.000 OA
ENDBRANCH   9  16
ENDBRANCH   8  13
ENDBRANCH   2   8
ENDBRANCH   1   5
BRANCH   1  17
ATOM     17  N   UNL     1       8.452   7.781   2.846  0.00  0.00    +0.000 N 
ATOM     18  C   UNL     1       7.980   7.827   4.129  0.00  0.00    +0.000 C 
ATOM     19  O   UNL     1       8.260   6.962   4.957  0.00  0.00    +0.000 OA
ATOM     20  H   UNL     1       8.034   8.365   2.126  0.00  0.00    +0.000 HD
BRANCH  18  21
ATOM     21  C   UNL     1       7.173   9.000   4.496  0.00  0.00    +0.000 A 
ATOM     22  C   UNL     1       7.054   9.353   5.835  0.00  0.00    +0.000 A 
ATOM     23  S   UNL     1       6.120  10.755   6.096  0.00  0.00    +0.000 S 
ATOM     24  C   UNL     1       5.803  10.919   4.433  0.00  0.00    +0.000 A 
ATOM     25  N   UNL     1       5.018  11.928   3.969  0.00  0.00    +0.000 NA
ATOM     26  C   UNL     1       4.836  11.917   2.691  0.00  0.00    +0.000 A 
ATOM     27  N   UNL     1       5.377  10.994   1.834  0.00  0.00    +0.000 N 
ATOM     28  C   UNL     1       6.213   9.986   2.252  0.00  0.00    +0.000 A 
ATOM     29  O   UNL     1       6.744   9.228   1.449  0.00  0.00    +0.000 OA
ATOM     30  C   UNL     1       6.426   9.934   3.685  0.00  0.00    +0.000 A 
ATOM     31  H   UNL     1       5.210  11.050   0.840  0.00  0.00    +0.000 HD
ENDBRANCH  18  21
ENDBRANCH   1  17
TORSDOF 6
