REMARK  Name = 
REMARK  6 active torsions:
REMARK  status: ('A' for Active; 'I' for Inactive)
REMARK    1  A    between atoms: C_1  and  C_2
REMARK    2  A    between atoms: C_4  and  C_5
REMARK    3  A    between atoms: C_10  and  N_11
REMARK    4  A    between atoms: N_11  and  C_12
REMARK    5  A    between atoms: C_12  and  C_13
REMARK    6  A    between atoms: C_12  and  C_14
REMARK                            x       y       z     vdW  Elec       q    Type
REMARK                         _______ _______ _______ _____ _____    ______ ____
ROOT
ATOM      1  C   UNL     1      -3.647   0.416   3.691  0.00  0.00    +0.000 C 
ATOM      2  C   UNL     1      -3.103  -0.314   2.495  0.00  0.00    +0.000 A 
ATOM      3  C   UNL     1      -2.954  -1.706   2.544  0.00  0.00    +0.000 A 
ATOM      4  C   UNL     1      -2.461  -2.367   1.428  0.00  0.00    +0.000 A 
ATOM      5  N   UNL     1      -2.162  -1.749   0.255  0.00  0.00    +0.000 NA
ATOM      6  C   UNL     1      -2.313  -0.403   0.244  0.00  0.00    +0.000 A 
ATOM      7  C   UNL     1      -2.703   0.378   1.339  0.00  0.00    +0.000 A 
ENDROOT
BRANCH   4   8
ATOM      8  C   UNL     1      -2.199  -3.841   1.493  0.00  0.00    +0.000 C 
ATOM      9  N   UNL     1      -1.697  -4.399   0.349  0.00  0.00    +0.000 N 
ATOM     10  O   UNL     1      -2.398  -4.506   2.502  0.00  0.00    +0.000 OA
ATOM     11  H   UNL     1      -1.512  -3.809  -0.454  0.00  0.00    +0.000 HD
ATOM     12  H   UNL     1      -1.453  -5.378   0.337  0.00  0.00    +0.000 HD
ENDBRANCH   4   8
BRANCH   7  13
ATOM     13  N   UNL     1      -2.793   1.781   1.321  0.00  0.00    +0.000 N 
ATOM     14  H   UNL     1      -3.748   2.054   1.082  0.00  0.00    +0.000 HD
BRANCH  13  15
ATOM     15  C   UNL     1      -1.825   2.542   0.502  0.00  0.00    +0.000 C 
ATOM     16  C   UNL     1      -0.379   2.244   0.924  0.00  0.00    +0.000 C 
BRANCH  15  17
ATOM     17  C   UNL     1      -2.088   4.036   0.632  0.00  0.00    +0.000 A 
ATOM     18  C   UNL     1      -2.064   4.685   1.865  0.00  0.00    +0.000 A 
ATOM     19  C   UNL     1      -2.258   6.060   1.903  0.00  0.00    +0.000 A 
ATOM     20  C   UNL     1      -2.480   6.718   0.711  0.00  0.00    +0.000 A 
ATOM     21  N   UNL     1      -2.513   6.075  -0.472  0.00  0.00    +0.000 NA
ATOM     22  N   UNL     1      -2.314   4.724  -0.510  0.00  0.00    +0.000 NA
ENDBRANCH  15  17
ENDBRANCH  13  15
ENDBRANCH   7  13
TORSDOF 4
