REMARK  Name = 
REMARK  4 active torsions:
REMARK  status: ('A' for Active; 'I' for Inactive)
REMARK    1  A    between atoms: C_2  and  C_4
REMARK    2  A    between atoms: N_8  and  C_9
REMARK    3  A    between atoms: C_9  and  C_10
REMARK    4  A    between atoms: C_12  and  C_13
REMARK                            x       y       z     vdW  Elec       q    Type
REMARK                         _______ _______ _______ _____ _____    ______ ____
ROOT
ATOM      1  C   UNL     1       7.992   2.251  -0.873  0.00  0.00    +0.000 A 
ATOM      2  C   UNL     1       7.739   3.613  -0.998  0.00  0.00    +0.000 A 
ATOM      3  C   UNL     1       6.774   4.045  -1.906  0.00  0.00    +0.000 A 
ATOM      4  C   UNL     1       6.075   3.118  -2.671  0.00  0.00    +0.000 A 
ATOM      5  N   UNL     1       5.050   3.454  -3.511  0.00  0.00    +0.000 N 
ATOM      6  N   UNL     1       6.342   1.798  -2.587  0.00  0.00    +0.000 NA
ATOM      7  C   UNL     1       7.294   1.391  -1.704  0.00  0.00    +0.000 A 
ATOM      8  H   UNL     1       4.710   2.675  -4.059  0.00  0.00    +0.000 HD
ENDROOT
BRANCH   1  10
ATOM      9  N   UNL     1       9.177   2.460   1.232  0.00  0.00    +0.000 N 
ATOM     10  C   UNL     1       8.963   1.717   0.100  0.00  0.00    +0.000 C 
ATOM     11  O   UNL     1       9.528   0.645  -0.075  0.00  0.00    +0.000 OA
ATOM     12  H   UNL     1       9.773   2.054   1.940  0.00  0.00    +0.000 HD
ATOM     13  H   UNL     1       8.559   3.210   1.516  0.00  0.00    +0.000 HD
ENDBRANCH   1  10
BRANCH   5  14
ATOM     14  C   UNL     1       4.640   4.805  -3.840  0.00  0.00    +0.000 C 
BRANCH  14  15
ATOM     15  C   UNL     1       5.515   5.441  -4.902  0.00  0.00    +0.000 A 
ATOM     16  C   UNL     1       5.499   4.936  -6.203  0.00  0.00    +0.000 A 
ATOM     17  C   UNL     1       6.312   5.501  -7.197  0.00  0.00    +0.000 A 
ATOM     18  C   UNL     1       7.108   6.588  -6.816  0.00  0.00    +0.000 A 
ATOM     19  C   UNL     1       7.059   7.044  -5.506  0.00  0.00    +0.000 A 
ATOM     20  N   UNL     1       6.284   6.498  -4.545  0.00  0.00    +0.000 NA
BRANCH  17  21
ATOM     21  C   UNL     1       6.325   4.961  -8.574  0.00  0.00    +0.000 A 
ATOM     22  C   UNL     1       6.107   3.600  -8.843  0.00  0.00    +0.000 A 
ATOM     23  C   UNL     1       6.115   3.117 -10.151  0.00  0.00    +0.000 A 
ATOM     24  C   UNL     1       6.355   4.009 -11.178  0.00  0.00    +0.000 A 
ATOM     25  N   UNL     1       6.574   5.324 -10.983  0.00  0.00    +0.000 NA
ATOM     26  C   UNL     1       6.549   5.762  -9.698  0.00  0.00    +0.000 A 
ENDBRANCH  17  21
ENDBRANCH  14  15
ENDBRANCH   5  14
TORSDOF 4
