REMARK  Name = 
REMARK  6 active torsions:
REMARK  status: ('A' for Active; 'I' for Inactive)
REMARK    1  A    between atoms: C_1  and  C_2
REMARK    2  A    between atoms: C_2  and  C_3
REMARK    3  A    between atoms: C_2  and  C_14
REMARK    4  A    between atoms: C_3  and  N_4
REMARK    5  A    between atoms: C_8  and  C_9
REMARK    6  A    between atoms: C_18  and  C_19
REMARK                            x       y       z     vdW  Elec       q    Type
REMARK                         _______ _______ _______ _____ _____    ______ ____
ROOT
ATOM      1  N   UNL     1       2.813   0.607  -2.369  0.00  0.00    +0.000 N 
ATOM      2  C   UNL     1       3.319   1.462  -3.362  0.00  0.00    +0.000 A 
ATOM      3  C   UNL     1       3.091   1.175  -4.717  0.00  0.00    +0.000 A 
ATOM      4  N   UNL     1       3.498   1.965  -5.748  0.00  0.00    +0.000 NA
ATOM      5  C   UNL     1       4.179   3.077  -5.360  0.00  0.00    +0.000 A 
ATOM      6  C   UNL     1       4.444   3.359  -4.030  0.00  0.00    +0.000 A 
ATOM      7  N   UNL     1       4.027   2.558  -3.017  0.00  0.00    +0.000 NA
ATOM      8  H   UNL     1       1.808   0.517  -2.501  0.00  0.00    +0.000 HD
ENDROOT
BRANCH   5   9
ATOM      9  C   UNL     1       4.621   4.038  -6.405  0.00  0.00    +0.000 C 
ATOM     10  N   UNL     1       4.308   3.715  -7.697  0.00  0.00    +0.000 N 
ATOM     11  O   UNL     1       5.222   5.069  -6.129  0.00  0.00    +0.000 OA
ATOM     12  H   UNL     1       3.803   2.862  -7.907  0.00  0.00    +0.000 HD
ATOM     13  H   UNL     1       4.571   4.349  -8.439  0.00  0.00    +0.000 HD
ENDBRANCH   5   9
BRANCH   1  14
ATOM     14  C   UNL     1       3.123   1.040  -1.008  0.00  0.00    +0.000 C 
BRANCH  14  16
ATOM     15  C   UNL     1       2.931  -1.310   0.033  0.00  0.00    +0.000 C 
ATOM     16  C   UNL     1       2.421   0.094  -0.076  0.00  0.00    +0.000 C 
BRANCH  16  17
ATOM     17  C   UNL     1       1.037   0.395   0.316  0.00  0.00    +0.000 A 
ATOM     18  C   UNL     1       0.704   1.602   0.946  0.00  0.00    +0.000 A 
ATOM     19  C   UNL     1      -0.627   1.897   1.254  0.00  0.00    +0.000 A 
ATOM     20  C   UNL     1      -1.637   0.992   0.928  0.00  0.00    +0.000 A 
ATOM     21  C   UNL     1      -1.315  -0.217   0.309  0.00  0.00    +0.000 A 
ATOM     22  C   UNL     1       0.018  -0.516   0.015  0.00  0.00    +0.000 A 
BRANCH  21  23
ATOM     23  C   UNL     1      -2.341  -1.144  -0.053  0.00  0.00    +0.000 C 
ATOM     24  N   UNL     1      -3.163  -1.903  -0.367  0.00  0.00    +0.000 NA
ENDBRANCH  21  23
ENDBRANCH  16  17
ENDBRANCH  14  16
ENDBRANCH   1  14
TORSDOF 5
