REMARK  Name = 
REMARK  6 active torsions:
REMARK  status: ('A' for Active; 'I' for Inactive)
REMARK    1  A    between atoms: C_1  and  O_2
REMARK    2  A    between atoms: O_2  and  C_3
REMARK    3  A    between atoms: C_5  and  O_6
REMARK    4  A    between atoms: O_6  and  C_7
REMARK    5  A    between atoms: C_7  and  C_8
REMARK    6  A    between atoms: C_17  and  C_18
REMARK                            x       y       z     vdW  Elec       q    Type
REMARK                         _______ _______ _______ _____ _____    ______ ____
ROOT
ATOM      1  C   UNL     1       3.076   0.665  -0.944  0.00  0.00    +0.000 A 
ATOM      2  C   UNL     1       2.717   2.013  -1.084  0.00  0.00    +0.000 A 
ATOM      3  C   UNL     1       3.392   2.845  -1.983  0.00  0.00    +0.000 A 
ATOM      4  C   UNL     1       4.491   2.350  -2.684  0.00  0.00    +0.000 A 
ATOM      5  C   UNL     1       4.851   1.013  -2.551  0.00  0.00    +0.000 A 
ATOM      6  C   UNL     1       4.141   0.149  -1.696  0.00  0.00    +0.000 A 
ENDROOT
BRANCH   6   7
ATOM      7  C   UNL     1       4.557  -1.302  -1.674  0.00  0.00    +0.000 C 
ATOM      8  F   UNL     1       3.843  -2.132  -0.868  0.00  0.00    +0.000 F 
ATOM      9  F   UNL     1       4.479  -1.857  -2.921  0.00  0.00    +0.000 F 
ATOM     10  F   UNL     1       5.862  -1.454  -1.300  0.00  0.00    +0.000 F 
ENDBRANCH   6   7
BRANCH   1  12
ATOM     11  C   UNL     1       1.123   0.090   0.291  0.00  0.00    +0.000 C 
ATOM     12  O   UNL     1       2.471  -0.192  -0.067  0.00  0.00    +0.000 OA
ENDBRANCH   1  12
BRANCH   3  13
ATOM     13  O   UNL     1       2.904   4.119  -2.100  0.00  0.00    +0.000 OA
BRANCH  13  14
ATOM     14  C   UNL     1       3.212   4.764  -3.337  0.00  0.00    +0.000 C 
BRANCH  14  15
ATOM     15  C   UNL     1       2.208   5.850  -3.589  0.00  0.00    +0.000 A 
ATOM     16  C   UNL     1       0.983   5.573  -4.205  0.00  0.00    +0.000 A 
ATOM     17  C   UNL     1       0.093   6.612  -4.452  0.00  0.00    +0.000 A 
ATOM     18  C   UNL     1       0.456   7.891  -4.064  0.00  0.00    +0.000 A 
ATOM     19  F   UNL     1      -0.395   8.896  -4.314  0.00  0.00    +0.000 F 
ATOM     20  N   UNL     1       1.617   8.195  -3.451  0.00  0.00    +0.000 NA
ATOM     21  C   UNL     1       2.462   7.166  -3.220  0.00  0.00    +0.000 A 
ENDBRANCH  14  15
ENDBRANCH  13  14
ENDBRANCH   3  13
TORSDOF 5
