REMARK  Name = 
REMARK  4 active torsions:
REMARK  status: ('A' for Active; 'I' for Inactive)
REMARK    1  A    between atoms: C_4  and  C_5
REMARK    2  A    between atoms: C_5  and  N_6
REMARK    3  A    between atoms: C_11  and  C_12
REMARK    4  A    between atoms: C_18  and  C_19
REMARK                            x       y       z     vdW  Elec       q    Type
REMARK                         _______ _______ _______ _____ _____    ______ ____
ROOT
ATOM      1  F   UNL     1       2.225  -0.039   0.117  0.00  0.00    +0.000 F 
ATOM      2  C   UNL     1       0.886  -0.054   0.093  0.00  0.00    +0.000 A 
ATOM      3  C   UNL     1       0.196   1.155   0.130  0.00  0.00    +0.000 A 
ATOM      4  C   UNL     1      -1.201   1.163   0.075  0.00  0.00    +0.000 A 
ATOM      5  C   UNL     1      -1.873  -0.075   0.009  0.00  0.00    +0.000 A 
ATOM      6  C   UNL     1      -1.176  -1.308  -0.037  0.00  0.00    +0.000 A 
ATOM      7  C   UNL     1       0.220  -1.276   0.003  0.00  0.00    +0.000 A 
ENDROOT
BRANCH   6   8
ATOM      8  C   UNL     1      -1.956  -2.613  -0.180  0.00  0.00    +0.000 C 
ATOM      9  C   UNL     1      -1.670  -3.666   0.913  0.00  0.00    +0.000 C 
ATOM     10  C   UNL     1      -0.755  -4.821   0.507  0.00  0.00    +0.000 C 
ATOM     11  N   UNL     1      -1.080  -5.353  -0.812  0.00  0.00    +0.000 NA
ATOM     12  C   UNL     1      -0.900  -4.310  -1.817  0.00  0.00    +0.000 C 
ATOM     13  C   UNL     1      -1.898  -3.174  -1.616  0.00  0.00    +0.000 C 
ATOM     14  H   UNL     1      -2.047  -5.681  -0.824  0.00  0.00    +0.000 HD
ENDBRANCH   6   8
BRANCH   4  15
ATOM     15  C   UNL     1      -1.960   2.475   0.046  0.00  0.00    +0.000 C 
BRANCH  15  16
ATOM     16  N   UNL     1      -2.291   2.922   1.387  0.00  0.00    +0.000 N 
ATOM     17  C   UNL     1      -2.934   4.140   1.565  0.00  0.00    +0.000 A 
ATOM     18  C   UNL     1      -3.874   4.674   0.682  0.00  0.00    +0.000 A 
ATOM     19  N   UNL     1      -4.535   5.841   0.889  0.00  0.00    +0.000 NA
ATOM     20  C   UNL     1      -4.253   6.465   2.057  0.00  0.00    +0.000 A 
ATOM     21  C   UNL     1      -3.337   5.961   2.969  0.00  0.00    +0.000 A 
ATOM     22  N   UNL     1      -2.659   4.793   2.717  0.00  0.00    +0.000 NA
ATOM     23  H   UNL     1      -1.547   2.845   2.075  0.00  0.00    +0.000 HD
BRANCH  21  24
ATOM     24  C   UNL     1      -3.127   6.707   4.269  0.00  0.00    +0.000 C 
ATOM     25  F   UNL     1      -3.846   7.869   4.345  0.00  0.00    +0.000 F 
ATOM     26  F   UNL     1      -3.499   5.988   5.367  0.00  0.00    +0.000 F 
ATOM     27  F   UNL     1      -1.831   7.077   4.478  0.00  0.00    +0.000 F 
ENDBRANCH  21  24
ENDBRANCH  15  16
ENDBRANCH   4  15
TORSDOF 4
