REMARK  Name = 
REMARK  9 active torsions:
REMARK  status: ('A' for Active; 'I' for Inactive)
REMARK    1  A    between atoms: N_1  and  C_2
REMARK    2  A    between atoms: C_2  and  C_3
REMARK    3  A    between atoms: C_3  and  N_4
REMARK    4  A    between atoms: C_7  and  C_8
REMARK    5  A    between atoms: N_10  and  C_11
REMARK    6  A    between atoms: C_11  and  C_12
REMARK    7  A    between atoms: C_15  and  C_16
REMARK    8  A    between atoms: C_16  and  N_17
REMARK    9  A    between atoms: C_18  and  C_20
REMARK                            x       y       z     vdW  Elec       q    Type
REMARK                         _______ _______ _______ _____ _____    ______ ____
ROOT
ATOM      1  C   UNL     1       6.598   3.530   6.925  0.00  0.00    +0.000 A 
ATOM      2  C   UNL     1       7.585   2.925   7.716  0.00  0.00    +0.000 A 
ATOM      3  C   UNL     1       8.706   3.651   8.138  0.00  0.00    +0.000 A 
ATOM      4  C   UNL     1       8.850   5.003   7.795  0.00  0.00    +0.000 A 
ATOM      5  C   UNL     1       7.851   5.610   7.023  0.00  0.00    +0.000 A 
ATOM      6  C   UNL     1       6.732   4.887   6.604  0.00  0.00    +0.000 A 
ENDROOT
BRANCH   1   7
ATOM      7  C   UNL     1       5.410   2.748   6.434  0.00  0.00    +0.000 C 
BRANCH   7  10
ATOM      8  C   UNL     1       3.169   2.064   7.146  0.00  0.00    +0.000 C 
ATOM      9  O   UNL     1       2.982   1.426   6.116  0.00  0.00    +0.000 OA
ATOM     10  N   UNL     1       4.337   2.752   7.397  0.00  0.00    +0.000 N 
ATOM     11  H   UNL     1       4.383   3.411   8.163  0.00  0.00    +0.000 HD
BRANCH   8  15
ATOM     12  N   UNL     1       1.615   0.692  10.101  0.00  0.00    +0.000 NA
ATOM     13  C   UNL     1       0.383   1.109   9.403  0.00  0.00    +0.000 C 
ATOM     14  C   UNL     1       0.839   1.449   7.995  0.00  0.00    +0.000 C 
ATOM     15  C   UNL     1       2.143   2.187   8.255  0.00  0.00    +0.000 C 
ATOM     16  C   UNL     1       2.663   1.584   9.564  0.00  0.00    +0.000 C 
BRANCH  12  17
ATOM     17  C   UNL     1       1.910  -0.736   9.833  0.00  0.00    +0.000 C 
BRANCH  17  18
ATOM     18  C   UNL     1       3.130  -1.278  10.614  0.00  0.00    +0.000 C 
BRANCH  18  19
ATOM     19  N   UNL     1       3.394  -2.686  10.306  0.00  0.00    +0.000 NA
ATOM     20  H   UNL     1       4.213  -2.989  10.832  0.00  0.00    +0.000 HD
ATOM     21  H   UNL     1       3.645  -2.774   9.321  0.00  0.00    +0.000 HD
ENDBRANCH  18  19
ENDBRANCH  17  18
ENDBRANCH  12  17
ENDBRANCH   8  15
ENDBRANCH   7  10
ENDBRANCH   1   7
BRANCH   4  22
ATOM     22  C   UNL     1      10.070   5.793   8.202  0.00  0.00    +0.000 C 
BRANCH  22  23
ATOM     23  N   UNL     1      11.104   5.725   7.198  0.00  0.00    +0.000 N 
ATOM     24  C   UNL     1      12.317   6.339   7.386  0.00  0.00    +0.000 C 
ATOM     25  O   UNL     1      12.595   6.929   8.427  0.00  0.00    +0.000 OA
ATOM     26  H   UNL     1      10.816   5.479   6.256  0.00  0.00    +0.000 HD
BRANCH  24  27
ATOM     27  C   UNL     1      13.296   6.209   6.297  0.00  0.00    +0.000 A 
ATOM     28  C   UNL     1      14.654   6.299   6.574  0.00  0.00    +0.000 A 
ATOM     29  S   UNL     1      15.648   6.100   5.202  0.00  0.00    +0.000 S 
ATOM     30  C   UNL     1      14.298   5.934   4.178  0.00  0.00    +0.000 A 
ATOM     31  N   UNL     1      14.450   5.769   2.838  0.00  0.00    +0.000 NA
ATOM     32  C   UNL     1      13.344   5.682   2.181  0.00  0.00    +0.000 A 
ATOM     33  N   UNL     1      12.092   5.733   2.748  0.00  0.00    +0.000 N 
ATOM     34  C   UNL     1      11.891   5.871   4.100  0.00  0.00    +0.000 A 
ATOM     35  O   UNL     1      10.763   5.864   4.579  0.00  0.00    +0.000 OA
ATOM     36  C   UNL     1      13.105   5.998   4.881  0.00  0.00    +0.000 A 
ATOM     37  H   UNL     1      11.266   5.644   2.177  0.00  0.00    +0.000 HD
ENDBRANCH  24  27
ENDBRANCH  22  23
ENDBRANCH   4  22
TORSDOF 9
