REMARK  Name = 
REMARK  9 active torsions:
REMARK  status: ('A' for Active; 'I' for Inactive)
REMARK    1  A    between atoms: C_1  and  C_2
REMARK    2  A    between atoms: C_2  and  N_3
REMARK    3  A    between atoms: C_2  and  C_19
REMARK    4  A    between atoms: N_3  and  C_4
REMARK    5  A    between atoms: C_4  and  C_5
REMARK    6  A    between atoms: C_8  and  C_9
REMARK    7  A    between atoms: C_9  and  O_10
REMARK    8  A    between atoms: O_10  and  C_11
REMARK    9  A    between atoms: C_11  and  C_12
REMARK                            x       y       z     vdW  Elec       q    Type
REMARK                         _______ _______ _______ _____ _____    ______ ____
ROOT
ATOM      1  C   UNL     1       0.581   0.033   1.382  0.00  0.00    +0.000 C 
ENDROOT
BRANCH   1   2
ATOM      2  C   UNL     1      -0.925   0.065   1.361  0.00  0.00    +0.000 A 
ATOM      3  C   UNL     1      -1.676  -1.020   0.904  0.00  0.00    +0.000 A 
ATOM      4  C   UNL     1      -3.065  -0.995   1.004  0.00  0.00    +0.000 A 
ATOM      5  C   UNL     1      -3.681   0.124   1.562  0.00  0.00    +0.000 A 
ATOM      6  N   UNL     1      -2.976   1.203   1.983  0.00  0.00    +0.000 NA
ATOM      7  C   UNL     1      -1.628   1.147   1.879  0.00  0.00    +0.000 A 
BRANCH   5   8
ATOM      8  C   UNL     1      -5.182   0.162   1.734  0.00  0.00    +0.000 C 
BRANCH   8   9
ATOM      9  O   UNL     1      -5.593  -0.918   2.578  0.00  0.00    +0.000 OA
BRANCH   9  10
ATOM     10  C   UNL     1      -6.999  -0.888   2.812  0.00  0.00    +0.000 C 
BRANCH  10  11
ATOM     11  C   UNL     1      -7.306  -2.026   3.707  0.00  0.00    +0.000 A 
ATOM     12  C   UNL     1      -8.485  -2.494   4.245  0.00  0.00    +0.000 A 
ATOM     13  N   UNL     1      -8.265  -3.606   5.019  0.00  0.00    +0.000 NA
ATOM     14  C   UNL     1      -6.969  -3.815   4.964  0.00  0.00    +0.000 A 
ATOM     15  N   UNL     1      -6.346  -2.881   4.192  0.00  0.00    +0.000 N 
ATOM     16  H   UNL     1      -5.357  -2.810   3.993  0.00  0.00    +0.000 HD
ENDBRANCH  10  11
ENDBRANCH   9  10
ENDBRANCH   8   9
ENDBRANCH   5   8
ENDBRANCH   1   2
BRANCH   1  17
ATOM     17  N   UNL     1       1.140  -0.211   0.055  0.00  0.00    +0.000 NA
ATOM     18  H   UNL     1       0.824   0.537  -0.567  0.00  0.00    +0.000 HD
BRANCH  17  20
ATOM     19  C   UNL     1       3.226  -1.298   0.943  0.00  0.00    +0.000 C 
ATOM     20  C   UNL     1       2.610  -0.223   0.037  0.00  0.00    +0.000 C 
BRANCH  20  21
ATOM     21  C   UNL     1       3.015  -0.450  -1.408  0.00  0.00    +0.000 A 
ATOM     22  C   UNL     1       2.647  -1.565  -2.148  0.00  0.00    +0.000 A 
ATOM     23  S   UNL     1       3.263  -1.558  -3.738  0.00  0.00    +0.000 S 
ATOM     24  C   UNL     1       4.029  -0.057  -3.496  0.00  0.00    +0.000 A 
ATOM     25  N   UNL     1       4.743   0.534  -4.491  0.00  0.00    +0.000 NA
ATOM     26  C   UNL     1       5.258   1.674  -4.169  0.00  0.00    +0.000 A 
ATOM     27  N   UNL     1       5.127   2.276  -2.943  0.00  0.00    +0.000 N 
ATOM     28  C   UNL     1       4.420   1.714  -1.903  0.00  0.00    +0.000 A 
ATOM     29  O   UNL     1       4.325   2.281  -0.818  0.00  0.00    +0.000 OA
ATOM     30  C   UNL     1       3.820   0.431  -2.219  0.00  0.00    +0.000 A 
ATOM     31  H   UNL     1       5.554   3.171  -2.758  0.00  0.00    +0.000 HD
ENDBRANCH  20  21
ENDBRANCH  17  20
ENDBRANCH   1  17
TORSDOF 8
