REMARK  Name = 
REMARK  9 active torsions:
REMARK  status: ('A' for Active; 'I' for Inactive)
REMARK    1  A    between atoms: C_1  and  O_2
REMARK    2  A    between atoms: O_2  and  C_3
REMARK    3  A    between atoms: C_10  and  C_11
REMARK    4  A    between atoms: N_13  and  C_14
REMARK    5  A    between atoms: C_14  and  C_15
REMARK    6  A    between atoms: C_18  and  C_19
REMARK    7  A    between atoms: C_19  and  N_20
REMARK    8  A    between atoms: N_20  and  C_21
REMARK    9  A    between atoms: C_21  and  C_22
REMARK                            x       y       z     vdW  Elec       q    Type
REMARK                         _______ _______ _______ _____ _____    ______ ____
ROOT
ATOM      1  C   UNL     1       2.892   0.302  -3.493  0.00  0.00    +0.000 C 
ENDROOT
BRANCH   1   2
ATOM      2  C   UNL     1       1.681  -0.584  -3.323  0.00  0.00    +0.000 A 
ATOM      3  C   UNL     1       1.798  -1.980  -3.378  0.00  0.00    +0.000 A 
ATOM      4  C   UNL     1       0.675  -2.799  -3.196  0.00  0.00    +0.000 A 
ATOM      5  C   UNL     1      -0.590  -2.242  -2.958  0.00  0.00    +0.000 A 
ATOM      6  C   UNL     1      -0.710  -0.847  -2.935  0.00  0.00    +0.000 A 
ATOM      7  C   UNL     1       0.411  -0.027  -3.126  0.00  0.00    +0.000 A 
BRANCH   5   8
ATOM      8  C   UNL     1      -1.803  -3.127  -2.741  0.00  0.00    +0.000 C 
BRANCH   8   9
ATOM      9  N   UNL     1      -1.620  -4.001  -1.588  0.00  0.00    +0.000 NA
ATOM     10  H   UNL     1      -1.461  -3.438  -0.750  0.00  0.00    +0.000 HD
BRANCH   9  11
ATOM     11  C   UNL     1      -2.807  -4.841  -1.338  0.00  0.00    +0.000 C 
BRANCH  11  12
ATOM     12  C   UNL     1      -2.641  -5.744  -0.121  0.00  0.00    +0.000 A 
ATOM     13  N   UNL     1      -2.429  -5.148   1.075  0.00  0.00    +0.000 NA
ATOM     14  C   UNL     1      -2.254  -5.969   2.129  0.00  0.00    +0.000 A 
ATOM     15  C   UNL     1      -2.293  -7.340   2.041  0.00  0.00    +0.000 A 
ATOM     16  C   UNL     1      -2.530  -7.847   0.785  0.00  0.00    +0.000 A 
ATOM     17  N   UNL     1      -2.711  -7.079  -0.306  0.00  0.00    +0.000 NA
ENDBRANCH  11  12
ENDBRANCH   9  11
ENDBRANCH   8   9
ENDBRANCH   5   8
ENDBRANCH   1   2
BRANCH   1  20
ATOM     18  C   UNL     1       4.214   1.332  -5.306  0.00  0.00    +0.000 C 
ATOM     19  O   UNL     1       5.025   1.798  -4.511  0.00  0.00    +0.000 OA
ATOM     20  N   UNL     1       3.142   0.590  -4.883  0.00  0.00    +0.000 N 
ATOM     21  H   UNL     1       2.432   0.313  -5.545  0.00  0.00    +0.000 HD
BRANCH  18  29
ATOM     22  C   UNL     1       2.421   0.244  -8.035  0.00  0.00    +0.000 A 
ATOM     23  N   UNL     1       1.949  -0.086  -9.253  0.00  0.00    +0.000 NA
ATOM     24  C   UNL     1       2.611   0.358 -10.325  0.00  0.00    +0.000 A 
ATOM     25  N   UNL     1       3.706   1.112 -10.333  0.00  0.00    +0.000 NA
ATOM     26  C   UNL     1       4.143   1.419  -9.099  0.00  0.00    +0.000 A 
ATOM     27  S   UNL     1       5.522   2.393  -8.917  0.00  0.00    +0.000 S 
ATOM     28  C   UNL     1       5.426   2.298  -7.223  0.00  0.00    +0.000 A 
ATOM     29  C   UNL     1       4.361   1.531  -6.760  0.00  0.00    +0.000 A 
ATOM     30  C   UNL     1       3.579   1.029  -7.889  0.00  0.00    +0.000 A 
BRANCH  22  32
ATOM     31  C   UNL     1       0.894  -1.297  -7.153  0.00  0.00    +0.000 C 
ATOM     32  O   UNL     1       1.682  -0.129  -6.933  0.00  0.00    +0.000 OA
ENDBRANCH  22  32
ENDBRANCH  18  29
ENDBRANCH   1  20
TORSDOF 8
