REMARK  Name = 
REMARK  7 active torsions:
REMARK  status: ('A' for Active; 'I' for Inactive)
REMARK    1  A    between atoms: C_2  and  C_20
REMARK    2  A    between atoms: N_3  and  C_4
REMARK    3  A    between atoms: C_4  and  C_5
REMARK    4  A    between atoms: C_5  and  N_6
REMARK    5  A    between atoms: C_9  and  C_10
REMARK    6  A    between atoms: C_10  and  N_11
REMARK    7  A    between atoms: N_11  and  C_12
REMARK                            x       y       z     vdW  Elec       q    Type
REMARK                         _______ _______ _______ _____ _____    ______ ____
ROOT
ATOM      1  C   UNL     1       2.551  -1.645  -2.387  0.00  0.00    +0.000 C 
ENDROOT
BRANCH   1   4
ATOM      2  O   UNL     1       4.799  -0.227  -3.304  0.00  0.00    +0.000 OA
ATOM      3  C   UNL     1       4.293   0.088  -2.231  0.00  0.00    +0.000 C 
ATOM      4  N   UNL     1       3.247  -0.604  -1.675  0.00  0.00    +0.000 N 
ATOM      5  H   UNL     1       2.774  -0.234  -0.859  0.00  0.00    +0.000 HD
BRANCH   3   6
ATOM      6  C   UNL     1       4.797   1.210  -1.438  0.00  0.00    +0.000 A 
ATOM      7  C   UNL     1       6.091   1.672  -1.630  0.00  0.00    +0.000 A 
ATOM      8  S   UNL     1       6.509   2.962  -0.596  0.00  0.00    +0.000 S 
ATOM      9  C   UNL     1       4.959   2.982   0.105  0.00  0.00    +0.000 A 
ATOM     10  N   UNL     1       4.633   3.885   1.066  0.00  0.00    +0.000 NA
ATOM     11  C   UNL     1       3.412   3.810   1.481  0.00  0.00    +0.000 A 
ATOM     12  N   UNL     1       2.485   2.910   1.025  0.00  0.00    +0.000 N 
ATOM     13  C   UNL     1       2.782   1.947   0.095  0.00  0.00    +0.000 A 
ATOM     14  O   UNL     1       1.951   1.101  -0.221  0.00  0.00    +0.000 OA
ATOM     15  C   UNL     1       4.137   2.003  -0.427  0.00  0.00    +0.000 A 
ATOM     16  H   UNL     1       1.550   2.888   1.405  0.00  0.00    +0.000 HD
ENDBRANCH   3   6
ENDBRANCH   1   4
BRANCH   1  17
ATOM     17  C   UNL     1       3.227  -3.014  -2.230  0.00  0.00    +0.000 C 
BRANCH  17  18
ATOM     18  N   UNL     1       2.499  -4.086  -2.937  0.00  0.00    +0.000 NA
ATOM     19  C   UNL     1       2.493  -3.844  -4.389  0.00  0.00    +0.000 C 
ATOM     20  C   UNL     1       1.771  -4.955  -5.150  0.00  0.00    +0.000 C 
ATOM     21  C   UNL     1       2.363  -6.337  -4.852  0.00  0.00    +0.000 C 
ATOM     22  C   UNL     1       2.368  -6.535  -3.328  0.00  0.00    +0.000 C 
ATOM     23  C   UNL     1       3.085  -5.395  -2.601  0.00  0.00    +0.000 C 
BRANCH  21  24
ATOM     24  C   UNL     1       3.765  -6.453  -5.482  0.00  0.00    +0.000 C 
BRANCH  24  25
ATOM     25  N   UNL     1       4.383  -7.754  -5.230  0.00  0.00    +0.000 NA
ATOM     26  H   UNL     1       3.782  -8.488  -5.605  0.00  0.00    +0.000 HD
BRANCH  25  27
ATOM     27  C   UNL     1       5.727  -7.870  -5.820  0.00  0.00    +0.000 C 
ATOM     28  C   UNL     1       6.264  -9.283  -5.530  0.00  0.00    +0.000 C 
ATOM     29  C   UNL     1       7.688  -9.467  -6.053  0.00  0.00    +0.000 C 
ATOM     30  C   UNL     1       8.631  -8.409  -5.491  0.00  0.00    +0.000 C 
ATOM     31  C   UNL     1       8.122  -7.008  -5.795  0.00  0.00    +0.000 C 
ATOM     32  C   UNL     1       6.702  -6.806  -5.281  0.00  0.00    +0.000 C 
ENDBRANCH  25  27
ENDBRANCH  24  25
ENDBRANCH  21  24
ENDBRANCH  17  18
ENDBRANCH   1  17
TORSDOF 7
