REMARK  Name = 
REMARK  10 active torsions:
REMARK  status: ('A' for Active; 'I' for Inactive)
REMARK    1  A    between atoms: C_1  and  C_2
REMARK    2  A    between atoms: C_2  and  C_3
REMARK    3  A    between atoms: C_5  and  N_6
REMARK    4  A    between atoms: C_9  and  C_10
REMARK    5  A    between atoms: C_10  and  C_11
REMARK    6  A    between atoms: C_10  and  C_12
REMARK    7  A    between atoms: C_10  and  C_13
REMARK    8  A    between atoms: C_13  and  N_14
REMARK    9  A    between atoms: N_14  and  C_15
REMARK   10  A    between atoms: C_18  and  C_19
REMARK                            x       y       z     vdW  Elec       q    Type
REMARK                         _______ _______ _______ _____ _____    ______ ____
ROOT
ATOM      1  C   UNL     1      -4.459   0.563   4.718  0.00  0.00    +0.000 C 
ATOM      2  C   UNL     1      -3.467  -0.585   5.039  0.00  0.00    +0.000 C 
ATOM      3  C   UNL     1      -3.811   1.896   5.161  0.00  0.00    +0.000 C 
ENDROOT
BRANCH   1   7
ATOM      4  N   UNL     1      -2.805   0.904   0.048  0.00  0.00    +0.000 N 
ATOM      5  C   UNL     1      -3.907   0.791   0.919  0.00  0.00    +0.000 A 
ATOM      6  C   UNL     1      -3.678   0.832   2.295  0.00  0.00    +0.000 A 
ATOM      7  C   UNL     1      -4.724   0.578   3.200  0.00  0.00    +0.000 A 
ATOM      8  C   UNL     1      -5.977   0.305   2.639  0.00  0.00    +0.000 A 
ATOM      9  C   UNL     1      -6.135   0.354   1.264  0.00  0.00    +0.000 A 
ATOM     10  N   UNL     1      -5.130   0.582   0.402  0.00  0.00    +0.000 NA
ATOM     11  H   UNL     1      -2.453   1.855   0.098  0.00  0.00    +0.000 HD
BRANCH   4  16
ATOM     12  C   UNL     1      -2.528  -1.196  -3.857  0.00  0.00    +0.000 C 
ATOM     13  C   UNL     1      -1.964  -1.185  -2.437  0.00  0.00    +0.000 C 
ATOM     14  C   UNL     1      -0.936  -2.292  -2.230  0.00  0.00    +0.000 C 
ATOM     15  C   UNL     1      -3.058  -1.134  -1.337  0.00  0.00    +0.000 C 
ATOM     16  C   UNL     1      -2.888   0.407  -1.296  0.00  0.00    +0.000 C 
ATOM     17  C   UNL     1      -1.496   0.214  -1.935  0.00  0.00    +0.000 C 
ENDBRANCH   4  16
ENDBRANCH   1   7
BRANCH   1  18
ATOM     18  C   UNL     1      -5.720   0.310   5.609  0.00  0.00    +0.000 C 
BRANCH  18  19
ATOM     19  N   UNL     1      -6.728   1.378   5.505  0.00  0.00    +0.000 N 
ATOM     20  H   UNL     1      -6.830   1.756   4.567  0.00  0.00    +0.000 HD
BRANCH  19  21
ATOM     21  C   UNL     1      -7.950   1.184   6.159  0.00  0.00    +0.000 A 
ATOM     22  C   UNL     1      -8.049   0.546   7.398  0.00  0.00    +0.000 A 
ATOM     23  C   UNL     1      -9.270   0.466   8.063  0.00  0.00    +0.000 A 
ATOM     24  C   UNL     1     -10.381   1.040   7.466  0.00  0.00    +0.000 A 
ATOM     25  N   UNL     1     -10.351   1.674   6.262  0.00  0.00    +0.000 NA
ATOM     26  C   UNL     1      -9.137   1.738   5.660  0.00  0.00    +0.000 A 
BRANCH  24  27
ATOM     27  C   UNL     1     -11.699   1.005   8.179  0.00  0.00    +0.000 C 
ATOM     28  N   UNL     1     -12.736   1.608   7.532  0.00  0.00    +0.000 N 
ATOM     29  O   UNL     1     -11.841   0.477   9.278  0.00  0.00    +0.000 OA
ATOM     30  H   UNL     1     -12.568   2.064   6.641  0.00  0.00    +0.000 HD
ATOM     31  H   UNL     1     -13.644   1.654   7.973  0.00  0.00    +0.000 HD
ENDBRANCH  24  27
ENDBRANCH  19  21
ENDBRANCH  18  19
ENDBRANCH   1  18
TORSDOF 6
