REMARK  Name = 
REMARK  5 active torsions:
REMARK  status: ('A' for Active; 'I' for Inactive)
REMARK    1  A    between atoms: N_1  and  C_2
REMARK    2  A    between atoms: C_2  and  C_3
REMARK    3  A    between atoms: C_3  and  C_4
REMARK    4  A    between atoms: C_8  and  C_9
REMARK    5  A    between atoms: C_9  and  N_10
REMARK                            x       y       z     vdW  Elec       q    Type
REMARK                         _______ _______ _______ _____ _____    ______ ____
ROOT
ATOM      1  C   UNL     1       4.535   1.040   0.778  0.00  0.00    +0.000 A 
ATOM      2  C   UNL     1       5.291   2.102   1.287  0.00  0.00    +0.000 A 
ATOM      3  C   UNL     1       6.677   1.999   1.374  0.00  0.00    +0.000 A 
ATOM      4  C   UNL     1       7.323   0.840   0.944  0.00  0.00    +0.000 A 
ATOM      5  C   UNL     1       6.582  -0.232   0.424  0.00  0.00    +0.000 A 
ATOM      6  C   UNL     1       5.187  -0.119   0.340  0.00  0.00    +0.000 A 
ENDROOT
BRANCH   1   7
ATOM      7  C   UNL     1       3.027   1.138   0.716  0.00  0.00    +0.000 C 
BRANCH   7   8
ATOM      8  C   UNL     1       2.519   1.850  -0.539  0.00  0.00    +0.000 C 
BRANCH   8   9
ATOM      9  N   UNL     1       1.058   1.910  -0.540  0.00  0.00    +0.000 NA
ATOM     10  H   UNL     1       0.735   2.414  -1.363  0.00  0.00    +0.000 HD
ATOM     11  H   UNL     1       0.736   2.447   0.267  0.00  0.00    +0.000 HD
ENDBRANCH   8   9
ENDBRANCH   7   8
ENDBRANCH   1   7
BRANCH   5  12
ATOM     12  C   UNL     1       7.277  -1.475  -0.067  0.00  0.00    +0.000 C 
BRANCH  12  13
ATOM     13  N   UNL     1       7.375  -2.552   0.908  0.00  0.00    +0.000 N 
ATOM     14  C   UNL     1       7.814  -2.426   2.200  0.00  0.00    +0.000 A 
ATOM     15  N   UNL     1       8.278  -3.562   2.670  0.00  0.00    +0.000 NA
ATOM     16  C   UNL     1       8.095  -4.471   1.659  0.00  0.00    +0.000 A 
ATOM     17  C   UNL     1       8.496  -5.813   1.578  0.00  0.00    +0.000 A 
ATOM     18  C   UNL     1       8.186  -6.542   0.423  0.00  0.00    +0.000 A 
ATOM     19  C   UNL     1       7.452  -5.960  -0.612  0.00  0.00    +0.000 A 
ATOM     20  C   UNL     1       7.057  -4.619  -0.557  0.00  0.00    +0.000 A 
ATOM     21  C   UNL     1       7.433  -3.891   0.580  0.00  0.00    +0.000 A 
ENDBRANCH  12  13
ENDBRANCH   5  12
TORSDOF 5
