REMARK  Name = 
REMARK  4 active torsions:
REMARK  status: ('A' for Active; 'I' for Inactive)
REMARK    1  A    between atoms: C_1  and  C_2
REMARK    2  A    between atoms: C_2  and  N_3
REMARK    3  A    between atoms: C_2  and  C_13
REMARK    4  A    between atoms: C_7  and  C_8
REMARK                            x       y       z     vdW  Elec       q    Type
REMARK                         _______ _______ _______ _____ _____    ______ ____
ROOT
ATOM      1  N   UNL     1       2.702  -0.965   1.248  0.00  0.00    +0.000 N 
ATOM      2  C   UNL     1       2.879  -0.359   2.499  0.00  0.00    +0.000 A 
ATOM      3  C   UNL     1       3.163  -1.182   3.589  0.00  0.00    +0.000 A 
ATOM      4  C   UNL     1       3.372  -0.619   4.852  0.00  0.00    +0.000 A 
ATOM      5  C   UNL     1       3.304   0.763   5.008  0.00  0.00    +0.000 A 
ATOM      6  C   UNL     1       3.005   1.504   3.876  0.00  0.00    +0.000 A 
ATOM      7  N   UNL     1       2.782   0.976   2.641  0.00  0.00    +0.000 NA
ATOM      8  H   UNL     1       3.532  -1.527   1.068  0.00  0.00    +0.000 HD
ENDROOT
BRANCH   5   9
ATOM      9  C   UNL     1       3.556   1.353   6.346  0.00  0.00    +0.000 C 
ATOM     10  N   UNL     1       3.520   2.710   6.492  0.00  0.00    +0.000 N 
ATOM     11  O   UNL     1       3.800   0.641   7.311  0.00  0.00    +0.000 OA
ATOM     12  H   UNL     1       3.338   3.386   5.767  0.00  0.00    +0.000 HD
ATOM     13  H   UNL     1       3.711   3.065   7.421  0.00  0.00    +0.000 HD
ENDBRANCH   5   9
BRANCH   1  15
ATOM     14  C   UNL     1       0.904   0.092  -0.079  0.00  0.00    +0.000 C 
ATOM     15  C   UNL     1       2.413  -0.091   0.103  0.00  0.00    +0.000 C 
BRANCH  15  16
ATOM     16  C   UNL     1       3.011  -0.740  -1.144  0.00  0.00    +0.000 A 
ATOM     17  C   UNL     1       3.977  -0.053  -1.897  0.00  0.00    +0.000 A 
ATOM     18  C   UNL     1       4.578  -0.662  -3.000  0.00  0.00    +0.000 A 
ATOM     19  C   UNL     1       4.216  -1.959  -3.360  0.00  0.00    +0.000 A 
ATOM     20 CL   UNL     1       4.991  -2.723  -4.692  0.00  0.00    +0.000 Cl
ATOM     21  C   UNL     1       3.242  -2.645  -2.639  0.00  0.00    +0.000 A 
ATOM     22  C   UNL     1       2.639  -2.037  -1.538  0.00  0.00    +0.000 A 
ENDBRANCH  15  16
ENDBRANCH   1  15
TORSDOF 3
