REMARK  Name = 
REMARK  5 active torsions:
REMARK  status: ('A' for Active; 'I' for Inactive)
REMARK    1  A    between atoms: C_2  and  C_3
REMARK    2  A    between atoms: C_8  and  N_9
REMARK    3  A    between atoms: N_9  and  C_10
REMARK    4  A    between atoms: C_10  and  C_11
REMARK    5  A    between atoms: C_16  and  C_17
REMARK                            x       y       z     vdW  Elec       q    Type
REMARK                         _______ _______ _______ _____ _____    ______ ____
ROOT
ATOM      1  C   UNL     1       0.468   5.639   0.820  0.00  0.00    +0.000 A 
ATOM      2  C   UNL     1      -0.242   6.764   0.384  0.00  0.00    +0.000 A 
ATOM      3  C   UNL     1       0.195   8.041   0.723  0.00  0.00    +0.000 A 
ATOM      4  C   UNL     1       1.347   8.202   1.493  0.00  0.00    +0.000 A 
ATOM      5  F   UNL     1       1.722   9.459   1.779  0.00  0.00    +0.000 F 
ATOM      6  C   UNL     1       2.099   7.108   1.949  0.00  0.00    +0.000 A 
ATOM      7  C   UNL     1       1.642   5.824   1.578  0.00  0.00    +0.000 A 
ENDROOT
BRANCH   6   8
ATOM      8  C   UNL     1       3.305   7.275   2.787  0.00  0.00    +0.000 A 
ATOM      9  C   UNL     1       3.464   8.329   3.696  0.00  0.00    +0.000 A 
ATOM     10  C   UNL     1       4.638   8.432   4.442  0.00  0.00    +0.000 A 
ATOM     11  C   UNL     1       5.621   7.475   4.273  0.00  0.00    +0.000 A 
ATOM     12  F   UNL     1       6.762   7.546   4.969  0.00  0.00    +0.000 F 
ATOM     13  C   UNL     1       5.398   6.448   3.376  0.00  0.00    +0.000 A 
ATOM     14  N   UNL     1       4.266   6.322   2.638  0.00  0.00    +0.000 NA
ENDBRANCH   6   8
BRANCH   1  15
ATOM     15  C   UNL     1      -0.056   4.252   0.529  0.00  0.00    +0.000 C 
BRANCH  15  16
ATOM     16  N   UNL     1       0.341   3.795  -0.796  0.00  0.00    +0.000 N 
ATOM     17  H   UNL     1       1.305   4.024  -1.033  0.00  0.00    +0.000 HD
BRANCH  16  23
ATOM     18  C   UNL     1      -1.404   0.487  -1.074  0.00  0.00    +0.000 A 
ATOM     19  C   UNL     1      -0.915   0.040  -2.297  0.00  0.00    +0.000 A 
ATOM     20  C   UNL     1      -0.014   0.837  -2.987  0.00  0.00    +0.000 A 
ATOM     21  F   UNL     1       0.442   0.425  -4.177  0.00  0.00    +0.000 F 
ATOM     22  C   UNL     1       0.417   2.061  -2.472  0.00  0.00    +0.000 A 
ATOM     23  C   UNL     1      -0.044   2.521  -1.232  0.00  0.00    +0.000 A 
ATOM     24  C   UNL     1      -0.985   1.726  -0.561  0.00  0.00    +0.000 A 
BRANCH  18  26
ATOM     25  N   UNL     1      -3.090  -0.943   0.278  0.00  0.00    +0.000 NA
ATOM     26  C   UNL     1      -2.340  -0.308  -0.333  0.00  0.00    +0.000 C 
ENDBRANCH  18  26
ENDBRANCH  16  23
ENDBRANCH  15  16
ENDBRANCH   1  15
TORSDOF 5
