REMARK  Name = 
REMARK  6 active torsions:
REMARK  status: ('A' for Active; 'I' for Inactive)
REMARK    1  A    between atoms: C_2  and  C_4
REMARK    2  A    between atoms: C_7  and  O_8
REMARK    3  A    between atoms: O_8  and  C_9
REMARK    4  A    between atoms: C_9  and  C_10
REMARK    5  A    between atoms: C_15  and  C_16
REMARK    6  A    between atoms: C_20  and  C_21
REMARK                            x       y       z     vdW  Elec       q    Type
REMARK                         _______ _______ _______ _____ _____    ______ ____
ROOT
ATOM      1  C   UNL     1       5.426  -4.963   3.847  0.00  0.00    +0.000 A 
ATOM      2  C   UNL     1       6.662  -4.412   3.516  0.00  0.00    +0.000 A 
ATOM      3  C   UNL     1       7.468  -3.896   4.523  0.00  0.00    +0.000 A 
ATOM      4  C   UNL     1       7.049  -3.987   5.844  0.00  0.00    +0.000 A 
ATOM      5  F   UNL     1       7.808  -3.415   6.790  0.00  0.00    +0.000 F 
ATOM      6  C   UNL     1       5.851  -4.626   6.146  0.00  0.00    +0.000 A 
ATOM      7  N   UNL     1       5.048  -5.083   5.150  0.00  0.00    +0.000 NA
ENDROOT
BRANCH   6   8
ATOM      8  C   UNL     1       5.333  -4.850   7.516  0.00  0.00    +0.000 A 
ATOM      9  C   UNL     1       6.154  -4.834   8.654  0.00  0.00    +0.000 A 
ATOM     10  C   UNL     1       5.608  -5.073   9.910  0.00  0.00    +0.000 A 
ATOM     11  N   UNL     1       4.305  -5.333  10.124  0.00  0.00    +0.000 NA
ATOM     12  C   UNL     1       3.512  -5.361   9.019  0.00  0.00    +0.000 A 
ATOM     13  C   UNL     1       3.971  -5.128   7.729  0.00  0.00    +0.000 A 
BRANCH  12  14
ATOM     14  C   UNL     1       2.065  -5.668   9.248  0.00  0.00    +0.000 C 
ATOM     15  N   UNL     1       1.720  -5.934  10.547  0.00  0.00    +0.000 N 
ATOM     16  O   UNL     1       1.233  -5.687   8.349  0.00  0.00    +0.000 OA
ATOM     17  H   UNL     1       2.436  -5.916  11.263  0.00  0.00    +0.000 HD
ATOM     18  H   UNL     1       0.766  -6.171  10.773  0.00  0.00    +0.000 HD
ENDBRANCH  12  14
ENDBRANCH   6   8
BRANCH   1  19
ATOM     19  C   UNL     1       4.406  -5.283   2.761  0.00  0.00    +0.000 C 
ATOM     20  C   UNL     1       3.028  -4.638   2.889  0.00  0.00    +0.000 C 
ATOM     21  C   UNL     1       3.971  -4.149   1.841  0.00  0.00    +0.000 C 
BRANCH  19  22
ATOM     22  O   UNL     1       4.512  -6.568   2.073  0.00  0.00    +0.000 OA
BRANCH  22  26
ATOM     23  C   UNL     1       1.620  -8.893   3.613  0.00  0.00    +0.000 A 
ATOM     24  C   UNL     1       2.539  -8.277   4.449  0.00  0.00    +0.000 A 
ATOM     25  N   UNL     1       3.601  -7.593   3.968  0.00  0.00    +0.000 NA
ATOM     26  C   UNL     1       3.672  -7.516   2.623  0.00  0.00    +0.000 A 
ATOM     27  C   UNL     1       2.808  -8.205   1.781  0.00  0.00    +0.000 A 
ATOM     28  N   UNL     1       1.753  -8.920   2.250  0.00  0.00    +0.000 NA
BRANCH  23  30
ATOM     29  N   UNL     1      -0.513  -9.994   3.304  0.00  0.00    +0.000 N 
ATOM     30  C   UNL     1       0.357  -9.425   4.193  0.00  0.00    +0.000 C 
ATOM     31  O   UNL     1       0.088  -9.326   5.382  0.00  0.00    +0.000 OA
ATOM     32  H   UNL     1      -1.432 -10.262   3.627  0.00  0.00    +0.000 HD
ATOM     33  H   UNL     1      -0.290 -10.011   2.315  0.00  0.00    +0.000 HD
ENDBRANCH  23  30
ENDBRANCH  22  26
ENDBRANCH  19  22
ENDBRANCH   1  19
TORSDOF 6
