REMARK  Name = 
REMARK  6 active torsions:
REMARK  status: ('A' for Active; 'I' for Inactive)
REMARK    1  A    between atoms: C_1  and  O_2
REMARK    2  A    between atoms: O_2  and  C_3
REMARK    3  A    between atoms: C_7  and  C_8
REMARK    4  A    between atoms: C_12  and  C_13
REMARK    5  A    between atoms: C_13  and  N_14
REMARK    6  A    between atoms: C_18  and  C_19
REMARK                            x       y       z     vdW  Elec       q    Type
REMARK                         _______ _______ _______ _____ _____    ______ ____
ROOT
ATOM      1  C   UNL     1       3.491  -4.544   6.999  0.00  0.00    +0.000 C 
ATOM      2  C   UNL     1       2.221  -5.165   6.434  0.00  0.00    +0.000 C 
ATOM      3  C   UNL     1       3.331  -4.779   5.519  0.00  0.00    +0.000 C 
ATOM      4  F   UNL     1       3.105  -3.702   4.681  0.00  0.00    +0.000 F 
ENDROOT
BRANCH   1   5
ATOM      5  N   UNL     1       4.342  -5.460   7.827  0.00  0.00    +0.000 N 
ATOM      6  C   UNL     1       5.701  -5.187   8.077  0.00  0.00    +0.000 A 
ATOM      7  C   UNL     1       6.552  -4.702   7.096  0.00  0.00    +0.000 A 
ATOM      8  C   UNL     1       7.911  -4.552   7.375  0.00  0.00    +0.000 A 
ATOM      9  C   UNL     1       8.369  -4.898   8.633  0.00  0.00    +0.000 A 
ATOM     10  N   UNL     1       7.536  -5.351   9.592  0.00  0.00    +0.000 NA
ATOM     11  N   UNL     1       6.191  -5.499   9.300  0.00  0.00    +0.000 NA
ATOM     12  H   UNL     1       3.948  -5.708   8.736  0.00  0.00    +0.000 HD
BRANCH   9  13
ATOM     13  C   UNL     1       9.818  -4.808   8.961  0.00  0.00    +0.000 C 
ATOM     14  N   UNL     1      10.197  -5.232  10.216  0.00  0.00    +0.000 N 
ATOM     15  O   UNL     1      10.647  -4.397   8.161  0.00  0.00    +0.000 OA
ATOM     16  H   UNL     1       9.522  -5.621  10.864  0.00  0.00    +0.000 HD
ATOM     17  H   UNL     1      11.179  -5.234  10.453  0.00  0.00    +0.000 HD
ENDBRANCH   9  13
ENDBRANCH   1   5
BRANCH   1  22
ATOM     18  C   UNL     1       3.247  -2.076   9.814  0.00  0.00    +0.000 A 
ATOM     19  C   UNL     1       3.853  -0.938   9.264  0.00  0.00    +0.000 A 
ATOM     20  C   UNL     1       4.140  -0.876   7.898  0.00  0.00    +0.000 A 
ATOM     21  C   UNL     1       3.926  -1.998   7.093  0.00  0.00    +0.000 A 
ATOM     22  C   UNL     1       3.362  -3.164   7.629  0.00  0.00    +0.000 A 
ATOM     23  C   UNL     1       2.888  -3.112   8.948  0.00  0.00    +0.000 A 
BRANCH  18  28
ATOM     24  C   UNL     1       4.512  -2.717  13.297  0.00  0.00    +0.000 A 
ATOM     25  C   UNL     1       3.372  -3.302  13.832  0.00  0.00    +0.000 A 
ATOM     26  N   UNL     1       2.195  -3.434  13.174  0.00  0.00    +0.000 NA
ATOM     27  C   UNL     1       2.161  -2.963  11.906  0.00  0.00    +0.000 A 
ATOM     28  C   UNL     1       3.239  -2.361  11.256  0.00  0.00    +0.000 A 
ATOM     29  C   UNL     1       4.430  -2.243  11.991  0.00  0.00    +0.000 A 
BRANCH  24  31
ATOM     30  C   UNL     1       6.783  -2.081  13.536  0.00  0.00    +0.000 C 
ATOM     31  O   UNL     1       5.621  -2.687  14.093  0.00  0.00    +0.000 OA
ENDBRANCH  24  31
ENDBRANCH  18  28
ENDBRANCH   1  22
TORSDOF 5
