REMARK  Name = 
REMARK  5 active torsions:
REMARK  status: ('A' for Active; 'I' for Inactive)
REMARK    1  A    between atoms: C_1  and  C_2
REMARK    2  A    between atoms: C_4  and  C_5
REMARK    3  A    between atoms: C_10  and  N_11
REMARK    4  A    between atoms: N_11  and  C_12
REMARK    5  A    between atoms: C_12  and  C_13
REMARK                            x       y       z     vdW  Elec       q    Type
REMARK                         _______ _______ _______ _____ _____    ______ ____
ROOT
ATOM      1  N   UNL     1      -1.005   2.206   0.259  0.00  0.00    +0.000 N 
ATOM      2  H   UNL     1      -0.365   2.940  -0.032  0.00  0.00    +0.000 HD
ENDROOT
BRANCH   1   9
ATOM      3  C   UNL     1       1.750   1.973  -0.750  0.00  0.00    +0.000 C 
ATOM      4  C   UNL     1       0.903   0.794  -0.354  0.00  0.00    +0.000 A 
ATOM      5  C   UNL     1       1.486  -0.478  -0.433  0.00  0.00    +0.000 A 
ATOM      6  C   UNL     1       0.743  -1.588  -0.066  0.00  0.00    +0.000 A 
ATOM      7  N   UNL     1      -0.549  -1.519   0.354  0.00  0.00    +0.000 NA
ATOM      8  C   UNL     1      -1.095  -0.269   0.407  0.00  0.00    +0.000 A 
ATOM      9  C   UNL     1      -0.437   0.923   0.075  0.00  0.00    +0.000 A 
BRANCH   6  10
ATOM     10  C   UNL     1       1.405  -2.932  -0.107  0.00  0.00    +0.000 C 
ATOM     11  N   UNL     1       0.663  -3.986   0.355  0.00  0.00    +0.000 N 
ATOM     12  O   UNL     1       2.558  -3.091  -0.496  0.00  0.00    +0.000 OA
ATOM     13  H   UNL     1      -0.271  -3.830   0.711  0.00  0.00    +0.000 HD
ATOM     14  H   UNL     1       1.086  -4.902   0.392  0.00  0.00    +0.000 HD
ENDBRANCH   6  10
ENDBRANCH   1   9
BRANCH   1  15
ATOM     15  C   UNL     1      -2.417   2.575   0.000  0.00  0.00    +0.000 C 
ATOM     16  C   UNL     1      -2.991   3.539   1.043  0.00  0.00    +0.000 C 
ATOM     17  C   UNL     1      -3.585   2.182   0.880  0.00  0.00    +0.000 C 
BRANCH  15  18
ATOM     18  C   UNL     1      -2.722   2.889  -1.466  0.00  0.00    +0.000 A 
ATOM     19  C   UNL     1      -3.213   1.904  -2.339  0.00  0.00    +0.000 A 
ATOM     20  C   UNL     1      -3.565   2.203  -3.659  0.00  0.00    +0.000 A 
ATOM     21  C   UNL     1      -3.427   3.504  -4.147  0.00  0.00    +0.000 A 
ATOM     22 CL   UNL     1      -3.910   3.816  -5.775  0.00  0.00    +0.000 Cl
ATOM     23  C   UNL     1      -2.920   4.500  -3.309  0.00  0.00    +0.000 A 
ATOM     24 CL   UNL     1      -2.731   6.138  -3.825  0.00  0.00    +0.000 Cl
ATOM     25  C   UNL     1      -2.566   4.188  -1.990  0.00  0.00    +0.000 A 
ENDBRANCH  15  18
ENDBRANCH   1  15
TORSDOF 4
