REMARK  Name = 
REMARK  11 active torsions:
REMARK  status: ('A' for Active; 'I' for Inactive)
REMARK    1  A    between atoms: N_1  and  C_2
REMARK    2  A    between atoms: C_2  and  C_3
REMARK    3  A    between atoms: C_3  and  N_4
REMARK    4  A    between atoms: C_3  and  C_20
REMARK    5  A    between atoms: C_5  and  C_7
REMARK    6  A    between atoms: N_13  and  C_14
REMARK    7  A    between atoms: C_14  and  C_15
REMARK    8  A    between atoms: C_15  and  O_16
REMARK    9  A    between atoms: C_23  and  C_24
REMARK   10  A    between atoms: C_24  and  N_25
REMARK   11  A    between atoms: C_26  and  C_28
REMARK                            x       y       z     vdW  Elec       q    Type
REMARK                         _______ _______ _______ _____ _____    ______ ____
ROOT
ATOM      1  C   UNL     1       2.965   0.660  -1.158  0.00  0.00    +0.000 C 
ENDROOT
BRANCH   1   2
ATOM      2  C   UNL     1       4.493   0.698  -1.233  0.00  0.00    +0.000 A 
ATOM      3  C   UNL     1       5.156   0.154  -2.342  0.00  0.00    +0.000 A 
ATOM      4  C   UNL     1       6.554   0.079  -2.376  0.00  0.00    +0.000 A 
ATOM      5  C   UNL     1       7.323   0.544  -1.302  0.00  0.00    +0.000 A 
ATOM      6  C   UNL     1       6.668   1.144  -0.220  0.00  0.00    +0.000 A 
ATOM      7  C   UNL     1       5.271   1.221  -0.186  0.00  0.00    +0.000 A 
BRANCH   5   8
ATOM      8  C   UNL     1       8.825   0.411  -1.313  0.00  0.00    +0.000 C 
BRANCH   8   9
ATOM      9  N   UNL     1       9.455   1.560  -1.912  0.00  0.00    +0.000 N 
ATOM     10  C   UNL     1      10.822   1.674  -1.971  0.00  0.00    +0.000 C 
ATOM     11  O   UNL     1      11.577   0.834  -1.486  0.00  0.00    +0.000 OA
ATOM     12  H   UNL     1       8.876   2.225  -2.398  0.00  0.00    +0.000 HD
BRANCH  10  13
ATOM     13  C   UNL     1      11.315   2.854  -2.650  0.00  0.00    +0.000 A 
ATOM     14  C   UNL     1      10.665   3.932  -3.232  0.00  0.00    +0.000 A 
ATOM     15  C   UNL     1      11.645   4.814  -3.750  0.00  0.00    +0.000 A 
ATOM     16  C   UNL     1      12.873   4.264  -3.478  0.00  0.00    +0.000 A 
ATOM     17  N   UNL     1      12.668   3.083  -2.815  0.00  0.00    +0.000 N 
ATOM     18  H   UNL     1      13.388   2.455  -2.480  0.00  0.00    +0.000 HD
ENDBRANCH  10  13
ENDBRANCH   8   9
ENDBRANCH   5   8
ENDBRANCH   1   2
BRANCH   1  19
ATOM     19  N   UNL     1       2.437   2.015  -1.186  0.00  0.00    +0.000 N 
ATOM     20  C   UNL     1       1.110   2.299  -1.381  0.00  0.00    +0.000 C 
ATOM     21  O   UNL     1       0.278   1.420  -1.588  0.00  0.00    +0.000 OA
ATOM     22  H   UNL     1       3.067   2.755  -0.899  0.00  0.00    +0.000 HD
BRANCH  20  23
ATOM     23  C   UNL     1       0.727   3.718  -1.369  0.00  0.00    +0.000 A 
ATOM     24  C   UNL     1      -0.478   4.107  -1.941  0.00  0.00    +0.000 A 
ATOM     25  S   UNL     1      -0.763   5.785  -1.866  0.00  0.00    +0.000 S 
ATOM     26  C   UNL     1       0.693   6.050  -1.027  0.00  0.00    +0.000 A 
ATOM     27  N   UNL     1       1.049   7.298  -0.630  0.00  0.00    +0.000 NA
ATOM     28  C   UNL     1       2.153   7.356   0.039  0.00  0.00    +0.000 A 
ATOM     29  N   UNL     1       2.959   6.278   0.345  0.00  0.00    +0.000 N 
ATOM     30  C   UNL     1       2.653   4.997  -0.099  0.00  0.00    +0.000 A 
ATOM     31  O   UNL     1       3.402   4.040   0.086  0.00  0.00    +0.000 OA
ATOM     32  C   UNL     1       1.399   4.879  -0.823  0.00  0.00    +0.000 A 
BRANCH  29  33
ATOM     33  C   UNL     1       4.203   6.480   1.085  0.00  0.00    +0.000 C 
BRANCH  33  34
ATOM     34  C   UNL     1       5.402   6.681   0.156  0.00  0.00    +0.000 C 
BRANCH  34  35
ATOM     35  O   UNL     1       5.254   7.884  -0.592  0.00  0.00    +0.000 OA
ATOM     36  H   UNL     1       4.682   7.690  -1.356  0.00  0.00    +0.000 HD
ENDBRANCH  34  35
ENDBRANCH  33  34
ENDBRANCH  29  33
ENDBRANCH  20  23
ENDBRANCH   1  19
BRANCH   1  37
ATOM     37  C   UNL     1       2.469  -0.133   0.092  0.00  0.00    +0.000 C 
BRANCH  37  38
ATOM     38  N   UNL     1       2.965  -1.515   0.169  0.00  0.00    +0.000 NA
ATOM     39  H   UNL     1       2.754  -1.892   1.092  0.00  0.00    +0.000 HD
ATOM     40  H   UNL     1       3.982  -1.516   0.084  0.00  0.00    +0.000 HD
ENDBRANCH  37  38
ENDBRANCH   1  37
TORSDOF 11
