REMARK  Name = 
REMARK  9 active torsions:
REMARK  status: ('A' for Active; 'I' for Inactive)
REMARK    1  A    between atoms: N_1  and  C_2
REMARK    2  A    between atoms: C_2  and  C_3
REMARK    3  A    between atoms: C_2  and  C_19
REMARK    4  A    between atoms: C_3  and  C_4
REMARK    5  A    between atoms: C_7  and  C_8
REMARK    6  A    between atoms: C_8  and  N_9
REMARK    7  A    between atoms: N_9  and  C_10
REMARK    8  A    between atoms: C_13  and  O_14
REMARK    9  A    between atoms: C_19  and  C_21
REMARK                            x       y       z     vdW  Elec       q    Type
REMARK                         _______ _______ _______ _____ _____    ______ ____
ROOT
ATOM      1  C   UNL     1      -6.252  -7.154   5.402  0.00  0.00    +0.000 C 
ENDROOT
BRANCH   1   2
ATOM      2  C   UNL     1      -4.857  -6.571   5.473  0.00  0.00    +0.000 A 
ATOM      3  C   UNL     1      -4.347  -6.130   6.697  0.00  0.00    +0.000 A 
ATOM      4  C   UNL     1      -3.119  -5.473   6.756  0.00  0.00    +0.000 A 
ATOM      5  C   UNL     1      -2.342  -5.298   5.603  0.00  0.00    +0.000 A 
ATOM      6  C   UNL     1      -2.822  -5.794   4.386  0.00  0.00    +0.000 A 
ATOM      7  C   UNL     1      -4.075  -6.416   4.319  0.00  0.00    +0.000 A 
BRANCH   5   8
ATOM      8  C   UNL     1      -1.030  -4.551   5.684  0.00  0.00    +0.000 C 
BRANCH   8   9
ATOM      9  N   UNL     1      -0.135  -5.189   6.648  0.00  0.00    +0.000 NA
ATOM     10  H   UNL     1      -0.009  -6.166   6.390  0.00  0.00    +0.000 HD
BRANCH   9  11
ATOM     11  C   UNL     1       1.158  -4.522   6.815  0.00  0.00    +0.000 C 
ATOM     12  C   UNL     1       0.973  -3.093   7.351  0.00  0.00    +0.000 C 
ATOM     13  C   UNL     1       2.294  -2.431   7.717  0.00  0.00    +0.000 C 
ATOM     14  C   UNL     1       3.085  -3.284   8.702  0.00  0.00    +0.000 C 
ATOM     15  C   UNL     1       3.316  -4.689   8.151  0.00  0.00    +0.000 C 
ATOM     16  C   UNL     1       1.996  -5.365   7.794  0.00  0.00    +0.000 C 
BRANCH  14  17
ATOM     17  O   UNL     1       4.334  -2.662   8.976  0.00  0.00    +0.000 OA
ATOM     18  H   UNL     1       4.868  -2.685   8.164  0.00  0.00    +0.000 HD
ENDBRANCH  14  17
ENDBRANCH   9  11
ENDBRANCH   8   9
ENDBRANCH   5   8
ENDBRANCH   1   2
BRANCH   1  19
ATOM     19  C   UNL     1      -7.338  -6.111   5.069  0.00  0.00    +0.000 C 
BRANCH  19  20
ATOM     20  N   UNL     1      -8.636  -6.820   4.925  0.00  0.00    +0.000 NA
ATOM     21  H   UNL     1      -9.268  -6.244   4.365  0.00  0.00    +0.000 HD
ATOM     22  H   UNL     1      -9.071  -6.910   5.847  0.00  0.00    +0.000 HD
ENDBRANCH  19  20
BRANCH  19  23
ATOM     23  C   UNL     1      -7.453  -4.988   6.133  0.00  0.00    +0.000 C 
ATOM     24  O   UNL     1      -7.815  -5.261   7.274  0.00  0.00    +0.000 OA
BRANCH  23  25
ATOM     25  C   UNL     1      -7.052  -3.599   5.790  0.00  0.00    +0.000 A 
ATOM     26  C   UNL     1      -6.579  -2.749   6.781  0.00  0.00    +0.000 A 
ATOM     27  S   UNL     1      -6.003  -1.256   6.187  0.00  0.00    +0.000 S 
ATOM     28  C   UNL     1      -6.418  -1.668   4.590  0.00  0.00    +0.000 A 
ATOM     29  N   UNL     1      -6.142  -0.834   3.550  0.00  0.00    +0.000 NA
ATOM     30  C   UNL     1      -6.442  -1.316   2.391  0.00  0.00    +0.000 A 
ATOM     31  N   UNL     1      -7.037  -2.532   2.178  0.00  0.00    +0.000 N 
ATOM     32  C   UNL     1      -7.566  -3.266   3.216  0.00  0.00    +0.000 A 
ATOM     33  O   UNL     1      -8.450  -4.091   3.040  0.00  0.00    +0.000 OA
ATOM     34  C   UNL     1      -7.045  -2.900   4.522  0.00  0.00    +0.000 A 
ATOM     35  H   UNL     1      -7.346  -2.782   1.253  0.00  0.00    +0.000 HD
ENDBRANCH  23  25
ENDBRANCH  19  23
ENDBRANCH   1  19
TORSDOF 9
