REMARK  Name = 
REMARK  9 active torsions:
REMARK  status: ('A' for Active; 'I' for Inactive)
REMARK    1  A    between atoms: C_1  and  O_2
REMARK    2  A    between atoms: O_2  and  C_3
REMARK    3  A    between atoms: C_10  and  C_11
REMARK    4  A    between atoms: N_13  and  C_14
REMARK    5  A    between atoms: C_14  and  C_15
REMARK    6  A    between atoms: C_18  and  O_19
REMARK    7  A    between atoms: O_19  and  C_20
REMARK    8  A    between atoms: C_20  and  C_21
REMARK    9  A    between atoms: C_21  and  C_22
REMARK                            x       y       z     vdW  Elec       q    Type
REMARK                         _______ _______ _______ _____ _____    ______ ____
ROOT
ATOM      1  C   UNL     1       2.541   3.131  -1.102  0.00  0.00    +0.000 C 
ENDROOT
BRANCH   1   2
ATOM      2  C   UNL     1       1.306   2.625  -1.809  0.00  0.00    +0.000 A 
ATOM      3  C   UNL     1       1.230   1.295  -2.239  0.00  0.00    +0.000 A 
ATOM      4  C   UNL     1       0.065   0.799  -2.837  0.00  0.00    +0.000 A 
ATOM      5  C   UNL     1      -1.043   1.626  -3.024  0.00  0.00    +0.000 A 
ATOM      6  C   UNL     1      -0.946   2.973  -2.670  0.00  0.00    +0.000 A 
ATOM      7  C   UNL     1       0.217   3.470  -2.064  0.00  0.00    +0.000 A 
BRANCH   5   8
ATOM      8  O   UNL     1      -2.236   1.226  -3.573  0.00  0.00    +0.000 OA
BRANCH   8   9
ATOM      9  C   UNL     1      -2.584  -0.146  -3.337  0.00  0.00    +0.000 C 
BRANCH   9  10
ATOM     10  C   UNL     1      -3.960  -0.444  -3.941  0.00  0.00    +0.000 C 
BRANCH  10  11
ATOM     11  C   UNL     1      -4.359  -1.882  -3.739  0.00  0.00    +0.000 A 
ATOM     12  C   UNL     1      -5.074  -2.293  -2.612  0.00  0.00    +0.000 A 
ATOM     13  C   UNL     1      -5.388  -3.639  -2.443  0.00  0.00    +0.000 A 
ATOM     14  C   UNL     1      -4.971  -4.537  -3.413  0.00  0.00    +0.000 A 
ATOM     15  N   UNL     1      -4.276  -4.180  -4.513  0.00  0.00    +0.000 NA
ATOM     16  C   UNL     1      -3.988  -2.867  -4.651  0.00  0.00    +0.000 A 
ENDBRANCH  10  11
ENDBRANCH   9  10
ENDBRANCH   8   9
ENDBRANCH   5   8
ENDBRANCH   1   2
BRANCH   1  19
ATOM     17  C   UNL     1       4.711   4.169  -1.619  0.00  0.00    +0.000 C 
ATOM     18  O   UNL     1       5.043   4.142  -0.435  0.00  0.00    +0.000 OA
ATOM     19  N   UNL     1       3.496   3.688  -2.025  0.00  0.00    +0.000 N 
ATOM     20  H   UNL     1       3.232   3.734  -2.999  0.00  0.00    +0.000 HD
BRANCH  17  28
ATOM     21  C   UNL     1       4.487   4.422  -5.040  0.00  0.00    +0.000 A 
ATOM     22  N   UNL     1       4.633   4.680  -6.354  0.00  0.00    +0.000 NA
ATOM     23  C   UNL     1       5.745   5.307  -6.749  0.00  0.00    +0.000 A 
ATOM     24  N   UNL     1       6.753   5.712  -5.980  0.00  0.00    +0.000 NA
ATOM     25  C   UNL     1       6.560   5.447  -4.677  0.00  0.00    +0.000 A 
ATOM     26  S   UNL     1       7.747   5.887  -3.546  0.00  0.00    +0.000 S 
ATOM     27  C   UNL     1       6.822   5.269  -2.261  0.00  0.00    +0.000 A 
ATOM     28  C   UNL     1       5.603   4.726  -2.653  0.00  0.00    +0.000 A 
ATOM     29  C   UNL     1       5.457   4.821  -4.104  0.00  0.00    +0.000 A 
BRANCH  21  31
ATOM     30  C   UNL     1       2.734   2.992  -5.648  0.00  0.00    +0.000 C 
ATOM     31  O   UNL     1       3.338   3.782  -4.628  0.00  0.00    +0.000 OA
ENDBRANCH  21  31
ENDBRANCH  17  28
ENDBRANCH   1  19
TORSDOF 8
