REMARK  Name = 
REMARK  9 active torsions:
REMARK  status: ('A' for Active; 'I' for Inactive)
REMARK    1  A    between atoms: C_2  and  C_22
REMARK    2  A    between atoms: N_3  and  C_4
REMARK    3  A    between atoms: C_4  and  C_5
REMARK    4  A    between atoms: C_9  and  C_10
REMARK    5  A    between atoms: C_10  and  N_11
REMARK    6  A    between atoms: N_11  and  CA_12
REMARK    7  A    between atoms: CA_12  and  C_13
REMARK    8  A    between atoms: CA_12  and  C_15
REMARK    9  A    between atoms: C_13  and  O_14
REMARK                            x       y       z     vdW  Elec       q    Type
REMARK                         _______ _______ _______ _____ _____    ______ ____
ROOT
ATOM      1  C   UNL     1       3.434  -3.572   0.225  0.00  0.00    +0.000 A 
ATOM      2  C   UNL     1       4.801  -3.332   0.420  0.00  0.00    +0.000 A 
ATOM      3  C   UNL     1       5.689  -4.393   0.570  0.00  0.00    +0.000 A 
ATOM      4  C   UNL     1       5.218  -5.705   0.533  0.00  0.00    +0.000 A 
ATOM      5  C   UNL     1       3.851  -5.972   0.349  0.00  0.00    +0.000 A 
ATOM      6  C   UNL     1       2.970  -4.896   0.172  0.00  0.00    +0.000 A 
ENDROOT
BRANCH   1   7
ATOM      7  C   UNL     1       2.486  -2.417   0.054  0.00  0.00    +0.000 C 
BRANCH   7  10
ATOM      8  O   UNL     1       3.939  -0.330  -1.216  0.00  0.00    +0.000 OA
ATOM      9  C   UNL     1       3.081  -0.950  -1.841  0.00  0.00    +0.000 C 
ATOM     10  N   UNL     1       2.399  -2.017  -1.325  0.00  0.00    +0.000 N 
ATOM     11  H   UNL     1       1.686  -2.470  -1.880  0.00  0.00    +0.000 HD
BRANCH   9  12
ATOM     12  C   UNL     1       2.747  -0.619  -3.227  0.00  0.00    +0.000 A 
ATOM     13  C   UNL     1       3.701  -0.091  -4.084  0.00  0.00    +0.000 A 
ATOM     14  S   UNL     1       3.112   0.174  -5.665  0.00  0.00    +0.000 S 
ATOM     15  C   UNL     1       1.554  -0.366  -5.239  0.00  0.00    +0.000 A 
ATOM     16  N   UNL     1       0.545  -0.399  -6.150  0.00  0.00    +0.000 NA
ATOM     17  C   UNL     1      -0.587  -0.804  -5.678  0.00  0.00    +0.000 A 
ATOM     18  N   UNL     1      -0.806  -1.172  -4.376  0.00  0.00    +0.000 N 
ATOM     19  C   UNL     1       0.184  -1.166  -3.423  0.00  0.00    +0.000 A 
ATOM     20  O   UNL     1      -0.043  -1.533  -2.275  0.00  0.00    +0.000 OA
ATOM     21  C   UNL     1       1.482  -0.736  -3.909  0.00  0.00    +0.000 A 
ATOM     22  H   UNL     1      -1.717  -1.480  -4.069  0.00  0.00    +0.000 HD
ENDBRANCH   9  12
ENDBRANCH   7  10
ENDBRANCH   1   7
BRANCH   5  23
ATOM     23  C   UNL     1       3.341  -7.398   0.381  0.00  0.00    +0.000 C 
BRANCH  23  24
ATOM     24  N   UNL     1       3.634  -7.988   1.685  0.00  0.00    +0.000 NA
ATOM     25  H   UNL     1       3.194  -7.401   2.396  0.00  0.00    +0.000 HD
BRANCH  24  26
ATOM     26  CA  UNL     1       3.139  -9.369   1.866  0.00  0.00    +0.000 C 
BRANCH  26  27
ATOM     27  C   UNL     1       3.400  -9.862   3.297  0.00  0.00    +0.000 A 
ATOM     28  C   UNL     1       4.497  -9.424   4.042  0.00  0.00    +0.000 A 
ATOM     29  C   UNL     1       4.687  -9.922   5.328  0.00  0.00    +0.000 A 
ATOM     30  C   UNL     1       3.791 -10.849   5.843  0.00  0.00    +0.000 A 
ATOM     31  C   UNL     1       2.740 -11.252   5.037  0.00  0.00    +0.000 A 
ATOM     32  N   UNL     1       2.535 -10.793   3.783  0.00  0.00    +0.000 NA
ENDBRANCH  26  27
BRANCH  26  33
ATOM     33  C   UNL     1       3.755 -10.398   0.881  0.00  0.00    +0.000 C 
BRANCH  33  34
ATOM     34  O   UNL     1       3.194 -11.708   1.011  0.00  0.00    +0.000 OA
ATOM     35  H   UNL     1       3.125 -11.899   1.969  0.00  0.00    +0.000 HD
ENDBRANCH  33  34
ENDBRANCH  26  33
ENDBRANCH  24  26
ENDBRANCH  23  24
ENDBRANCH   5  23
TORSDOF 9
