REMARK  Name = 
REMARK  5 active torsions:
REMARK  status: ('A' for Active; 'I' for Inactive)
REMARK    1  A    between atoms: N_1  and  C_2
REMARK    2  A    between atoms: C_2  and  C_3
REMARK    3  A    between atoms: C_6  and  O_7
REMARK    4  A    between atoms: O_7  and  C_8
REMARK    5  A    between atoms: C_8  and  C_9
REMARK                            x       y       z     vdW  Elec       q    Type
REMARK                         _______ _______ _______ _____ _____    ______ ____
ROOT
ATOM      1  C   UNL     1       2.863   0.462   1.321  0.00  0.00    +0.000 A 
ATOM      2  C   UNL     1       2.711   1.835   1.564  0.00  0.00    +0.000 A 
ATOM      3  C   UNL     1       3.107   2.399   2.778  0.00  0.00    +0.000 A 
ATOM      4  C   UNL     1       3.682   1.599   3.766  0.00  0.00    +0.000 A 
ATOM      5  C   UNL     1       3.808   0.228   3.536  0.00  0.00    +0.000 A 
ATOM      6  F   UNL     1       4.345  -0.567   4.476  0.00  0.00    +0.000 F 
ATOM      7  C   UNL     1       3.409  -0.343   2.328  0.00  0.00    +0.000 A 
ENDROOT
BRANCH   1   8
ATOM      8  C   UNL     1       2.423  -0.123   0.005  0.00  0.00    +0.000 C 
BRANCH   8   9
ATOM      9  N   UNL     1       3.131   0.493  -1.111  0.00  0.00    +0.000 NA
ATOM     10  H   UNL     1       2.853   0.036  -1.977  0.00  0.00    +0.000 HD
ATOM     11  H   UNL     1       4.130   0.326  -1.003  0.00  0.00    +0.000 HD
ENDBRANCH   8   9
ENDBRANCH   1   8
BRANCH   4  12
ATOM     12  O   UNL     1       4.131   2.066   4.973  0.00  0.00    +0.000 OA
BRANCH  12  13
ATOM     13  C   UNL     1       4.507   3.448   4.985  0.00  0.00    +0.000 C 
BRANCH  13  14
ATOM     14  C   UNL     1       5.443   3.762   6.127  0.00  0.00    +0.000 A 
ATOM     15  C   UNL     1       6.318   2.800   6.630  0.00  0.00    +0.000 A 
ATOM     16  C   UNL     1       7.217   3.163   7.626  0.00  0.00    +0.000 A 
ATOM     17  C   UNL     1       7.232   4.473   8.086  0.00  0.00    +0.000 A 
ATOM     18  C   UNL     1       6.339   5.372   7.529  0.00  0.00    +0.000 A 
ATOM     19  N   UNL     1       5.455   5.050   6.562  0.00  0.00    +0.000 NA
ENDBRANCH  13  14
ENDBRANCH  12  13
ENDBRANCH   4  12
TORSDOF 5
