REMARK  Name = 
REMARK  5 active torsions:
REMARK  status: ('A' for Active; 'I' for Inactive)
REMARK    1  A    between atoms: C_2  and  C_4
REMARK    2  A    between atoms: C_7  and  S_8
REMARK    3  A    between atoms: S_8  and  C_9
REMARK    4  A    between atoms: C_9  and  C_10
REMARK    5  A    between atoms: C_14  and  C_15
REMARK                            x       y       z     vdW  Elec       q    Type
REMARK                         _______ _______ _______ _____ _____    ______ ____
ROOT
ATOM      1  C   UNL     1       4.479   5.033  -4.111  0.00  0.00    +0.000 C 
ENDROOT
BRANCH   1   2
ATOM      2  C   UNL     1       4.910   5.976  -5.208  0.00  0.00    +0.000 A 
ATOM      3  C   UNL     1       5.591   5.534  -6.341  0.00  0.00    +0.000 A 
ATOM      4  C   UNL     1       5.964   6.467  -7.291  0.00  0.00    +0.000 A 
ATOM      5  N   UNL     1       5.716   7.792  -7.194  0.00  0.00    +0.000 NA
ATOM      6  C   UNL     1       5.055   8.233  -6.093  0.00  0.00    +0.000 A 
ATOM      7  C   UNL     1       4.629   7.345  -5.103  0.00  0.00    +0.000 A 
BRANCH   6   8
ATOM      8  C   UNL     1       4.812   9.686  -6.020  0.00  0.00    +0.000 A 
ATOM      9  C   UNL     1       4.673  10.456  -7.191  0.00  0.00    +0.000 A 
ATOM     10  C   UNL     1       4.417  11.832  -7.134  0.00  0.00    +0.000 A 
ATOM     11  C   UNL     1       4.296  12.471  -5.904  0.00  0.00    +0.000 A 
ATOM     12  C   UNL     1       4.444  11.738  -4.732  0.00  0.00    +0.000 A 
ATOM     13  C   UNL     1       4.706  10.370  -4.797  0.00  0.00    +0.000 A 
ATOM     14  F   UNL     1       4.871   9.725  -3.631  0.00  0.00    +0.000 F 
ENDBRANCH   6   8
ENDBRANCH   1   2
BRANCH   1  15
ATOM     15  S   UNL     1       2.760   4.466  -4.335  0.00  0.00    +0.000 S 
BRANCH  15  19
ATOM     16  C   UNL     1       2.014   1.557  -0.837  0.00  0.00    +0.000 A 
ATOM     17  C   UNL     1       2.858   2.654  -0.641  0.00  0.00    +0.000 A 
ATOM     18  C   UNL     1       3.107   3.550  -1.690  0.00  0.00    +0.000 A 
ATOM     19  C   UNL     1       2.527   3.357  -2.949  0.00  0.00    +0.000 A 
ATOM     20  C   UNL     1       1.675   2.258  -3.132  0.00  0.00    +0.000 A 
ATOM     21  C   UNL     1       1.429   1.356  -2.089  0.00  0.00    +0.000 A 
BRANCH  16  23
ATOM     22  N   UNL     1       1.796   1.044   1.534  0.00  0.00    +0.000 N 
ATOM     23  C   UNL     1       1.738   0.579   0.248  0.00  0.00    +0.000 C 
ATOM     24  O   UNL     1       1.438  -0.582   0.008  0.00  0.00    +0.000 OA
ATOM     25  H   UNL     1       1.509   0.395   2.257  0.00  0.00    +0.000 HD
ATOM     26  H   UNL     1       1.773   2.028   1.754  0.00  0.00    +0.000 HD
ENDBRANCH  16  23
ENDBRANCH  15  19
ENDBRANCH   1  15
TORSDOF 5
