REMARK  Name = 
REMARK  6 active torsions:
REMARK  status: ('A' for Active; 'I' for Inactive)
REMARK    1  A    between atoms: C_2  and  C_4
REMARK    2  A    between atoms: N_8  and  C_9
REMARK    3  A    between atoms: C_9  and  C_10
REMARK    4  A    between atoms: C_10  and  C_13
REMARK    5  A    between atoms: C_18  and  O_19
REMARK    6  A    between atoms: O_19  and  C_20
REMARK                            x       y       z     vdW  Elec       q    Type
REMARK                         _______ _______ _______ _____ _____    ______ ____
ROOT
ATOM      1  C   UNL     1       6.474  -6.328   2.683  0.00  0.00    +0.000 C 
ATOM      2  F   UNL     1       7.685  -5.891   2.220  0.00  0.00    +0.000 F 
ATOM      3  F   UNL     1       6.501  -6.108   4.030  0.00  0.00    +0.000 F 
ENDROOT
BRANCH   1   4
ATOM      4  C   UNL     1       6.239  -7.796   2.362  0.00  0.00    +0.000 A 
ATOM      5  C   UNL     1       6.802  -8.382   1.219  0.00  0.00    +0.000 A 
ATOM      6  C   UNL     1       6.568  -9.729   0.930  0.00  0.00    +0.000 A 
ATOM      7  C   UNL     1       5.762 -10.495   1.772  0.00  0.00    +0.000 A 
ATOM      8  F   UNL     1       5.569 -11.783   1.456  0.00  0.00    +0.000 F 
ATOM      9  C   UNL     1       5.187  -9.933   2.909  0.00  0.00    +0.000 A 
ATOM     10  C   UNL     1       5.440  -8.588   3.206  0.00  0.00    +0.000 A 
BRANCH   9  11
ATOM     11  O   UNL     1       4.391 -10.583   3.819  0.00  0.00    +0.000 OA
BRANCH  11  12
ATOM     12  C   UNL     1       3.677 -11.765   3.408  0.00  0.00    +0.000 C 
ATOM     13  C   UNL     1       2.518 -11.575   2.415  0.00  0.00    +0.000 C 
ATOM     14  C   UNL     1       1.706 -12.379   3.421  0.00  0.00    +0.000 C 
ATOM     15  O   UNL     1       2.735 -12.223   4.426  0.00  0.00    +0.000 OA
ENDBRANCH  11  12
ENDBRANCH   9  11
ENDBRANCH   1   4
BRANCH   1  16
ATOM     16  C   UNL     1       5.366  -5.443   2.048  0.00  0.00    +0.000 C 
BRANCH  16  21
ATOM     17  C   UNL     1       3.001  -1.062   0.907  0.00  0.00    +0.000 A 
ATOM     18  C   UNL     1       2.466  -2.331   1.100  0.00  0.00    +0.000 A 
ATOM     19  C   UNL     1       3.289  -3.351   1.584  0.00  0.00    +0.000 A 
ATOM     20  C   UNL     1       4.631  -3.091   1.848  0.00  0.00    +0.000 A 
ATOM     21  N   UNL     1       5.484  -4.024   2.408  0.00  0.00    +0.000 N 
ATOM     22  N   UNL     1       5.166  -1.873   1.636  0.00  0.00    +0.000 NA
ATOM     23  C   UNL     1       4.351  -0.889   1.169  0.00  0.00    +0.000 A 
ATOM     24  H   UNL     1       6.430  -3.643   2.393  0.00  0.00    +0.000 HD
BRANCH  17  26
ATOM     25  N   UNL     1       0.855   0.058   0.702  0.00  0.00    +0.000 N 
ATOM     26  C   UNL     1       2.197   0.085   0.437  0.00  0.00    +0.000 C 
ATOM     27  O   UNL     1       2.711   1.036  -0.135  0.00  0.00    +0.000 OA
ATOM     28  H   UNL     1       0.339   0.898   0.471  0.00  0.00    +0.000 HD
ATOM     29  H   UNL     1       0.445  -0.568   1.378  0.00  0.00    +0.000 HD
ENDBRANCH  17  26
ENDBRANCH  16  21
ENDBRANCH   1  16
TORSDOF 6
