REMARK  Name = 
REMARK  7 active torsions:
REMARK  status: ('A' for Active; 'I' for Inactive)
REMARK    1  A    between atoms: C_1  and  N_2
REMARK    2  A    between atoms: N_2  and  C_3
REMARK    3  A    between atoms: N_2  and  C_4
REMARK    4  A    between atoms: C_4  and  C_5
REMARK    5  A    between atoms: C_5  and  C_6
REMARK    6  A    between atoms: C_9  and  C_10
REMARK    7  A    between atoms: C_10  and  N_11
REMARK                            x       y       z     vdW  Elec       q    Type
REMARK                         _______ _______ _______ _____ _____    ______ ____
ROOT
ATOM      1  C   UNL     1       5.056  -0.664  -2.783  0.00  0.00    +0.000 A 
ATOM      2  C   UNL     1       5.527   0.361  -3.611  0.00  0.00    +0.000 A 
ATOM      3  C   UNL     1       6.011   0.077  -4.890  0.00  0.00    +0.000 A 
ATOM      4  C   UNL     1       6.045  -1.240  -5.364  0.00  0.00    +0.000 A 
ATOM      5  C   UNL     1       5.576  -2.267  -4.534  0.00  0.00    +0.000 A 
ATOM      6  C   UNL     1       5.084  -1.981  -3.258  0.00  0.00    +0.000 A 
ENDROOT
BRANCH   1   7
ATOM      7  C   UNL     1       4.554  -0.367  -1.387  0.00  0.00    +0.000 C 
BRANCH   7   8
ATOM      8  C   UNL     1       3.312   0.542  -1.385  0.00  0.00    +0.000 C 
BRANCH   8  10
ATOM      9  C   UNL     1       1.666   1.796  -0.161  0.00  0.00    +0.000 C 
ATOM     10  N   UNL     1       2.800   0.874  -0.039  0.00  0.00    +0.000 NA
ATOM     11  C   UNL     1       2.389  -0.315   0.708  0.00  0.00    +0.000 C 
ENDBRANCH   8  10
ENDBRANCH   7   8
ENDBRANCH   1   7
BRANCH   4  12
ATOM     12  C   UNL     1       6.594  -1.554  -6.733  0.00  0.00    +0.000 C 
BRANCH  12  13
ATOM     13  N   UNL     1       8.024  -1.841  -6.702  0.00  0.00    +0.000 N 
ATOM     14  C   UNL     1       8.555  -3.096  -6.500  0.00  0.00    +0.000 A 
ATOM     15  C   UNL     1       9.924  -3.007  -6.636  0.00  0.00    +0.000 A 
ATOM     16  C   UNL     1      10.231  -1.663  -6.944  0.00  0.00    +0.000 A 
ATOM     17  N   UNL     1      11.445  -1.111  -7.189  0.00  0.00    +0.000 NA
ATOM     18  C   UNL     1      11.419   0.208  -7.470  0.00  0.00    +0.000 A 
ATOM     19  C   UNL     1      10.282   1.001  -7.517  0.00  0.00    +0.000 A 
ATOM     20  C   UNL     1       9.040   0.426  -7.265  0.00  0.00    +0.000 A 
ATOM     21  C   UNL     1       9.035  -0.943  -6.978  0.00  0.00    +0.000 A 
ENDBRANCH  12  13
ENDBRANCH   4  12
TORSDOF 5
