REMARK  Name = 
REMARK  3 active torsions:
REMARK  status: ('A' for Active; 'I' for Inactive)
REMARK    1  A    between atoms: C_2  and  C_4
REMARK    2  A    between atoms: N_8  and  C_9
REMARK    3  A    between atoms: C_9  and  C_10
REMARK                            x       y       z     vdW  Elec       q    Type
REMARK                         _______ _______ _______ _____ _____    ______ ____
ROOT
ATOM      1  C   UNL     1       3.242   1.245   0.397  0.00  0.00    +0.000 A 
ATOM      2  C   UNL     1       2.759   2.063   1.416  0.00  0.00    +0.000 A 
ATOM      3  C   UNL     1       3.468   3.218   1.752  0.00  0.00    +0.000 A 
ATOM      4  C   UNL     1       4.664   3.515   1.099  0.00  0.00    +0.000 A 
ATOM      5  N   UNL     1       5.350   4.664   1.498  0.00  0.00    +0.000 N 
ATOM      6  N   UNL     1       5.152   2.719   0.128  0.00  0.00    +0.000 NA
ATOM      7  C   UNL     1       4.436   1.612  -0.206  0.00  0.00    +0.000 A 
ATOM      8  H   UNL     1       4.815   5.498   1.260  0.00  0.00    +0.000 HD
ENDROOT
BRANCH   1  10
ATOM      9  N   UNL     1       1.220  -0.095   0.204  0.00  0.00    +0.000 N 
ATOM     10  C   UNL     1       2.564   0.007  -0.039  0.00  0.00    +0.000 C 
ATOM     11  O   UNL     1       3.166  -0.880  -0.629  0.00  0.00    +0.000 OA
ATOM     12  H   UNL     1       0.753  -0.903  -0.177  0.00  0.00    +0.000 HD
ATOM     13  H   UNL     1       0.649   0.691   0.474  0.00  0.00    +0.000 HD
ENDBRANCH   1  10
BRANCH   5  14
ATOM     14  C   UNL     1       6.724   4.787   0.997  0.00  0.00    +0.000 C 
BRANCH  14  15
ATOM     15  C   UNL     1       7.288   6.174   1.288  0.00  0.00    +0.000 A 
ATOM     16  N   UNL     1       8.567   6.266   1.714  0.00  0.00    +0.000 NA
ATOM     17  C   UNL     1       9.039   7.506   1.939  0.00  0.00    +0.000 A 
ATOM     18  C   UNL     1       8.298   8.648   1.748  0.00  0.00    +0.000 A 
ATOM     19  C   UNL     1       7.012   8.454   1.305  0.00  0.00    +0.000 A 
ATOM     20  N   UNL     1       6.481   7.240   1.063  0.00  0.00    +0.000 NA
ENDBRANCH  14  15
ENDBRANCH   5  14
TORSDOF 3
