REMARK  Name = 
REMARK  5 active torsions:
REMARK  status: ('A' for Active; 'I' for Inactive)
REMARK    1  A    between atoms: C_2  and  C_4
REMARK    2  A    between atoms: C_7  and  O_8
REMARK    3  A    between atoms: O_8  and  C_9
REMARK    4  A    between atoms: C_9  and  C_10
REMARK    5  A    between atoms: C_14  and  C_15
REMARK                            x       y       z     vdW  Elec       q    Type
REMARK                         _______ _______ _______ _____ _____    ______ ____
ROOT
ATOM      1  C   UNL     1       5.188   3.724   4.505  0.00  0.00    +0.000 C 
ENDROOT
BRANCH   1   2
ATOM      2  C   UNL     1       6.110   4.672   5.240  0.00  0.00    +0.000 A 
ATOM      3  C   UNL     1       5.961   6.053   5.067  0.00  0.00    +0.000 A 
ATOM      4  C   UNL     1       6.732   6.942   5.810  0.00  0.00    +0.000 A 
ATOM      5  C   UNL     1       7.638   6.459   6.757  0.00  0.00    +0.000 A 
ATOM      6  C   UNL     1       7.780   5.081   6.999  0.00  0.00    +0.000 A 
ATOM      7  C   UNL     1       7.018   4.204   6.203  0.00  0.00    +0.000 A 
BRANCH   6   8
ATOM      8  C   UNL     1       8.605   4.564   8.115  0.00  0.00    +0.000 A 
ATOM      9  C   UNL     1       8.680   5.257   9.340  0.00  0.00    +0.000 A 
ATOM     10  C   UNL     1       9.347   4.725  10.448  0.00  0.00    +0.000 A 
ATOM     11  C   UNL     1       9.953   3.477  10.356  0.00  0.00    +0.000 A 
ATOM     12  C   UNL     1       9.911   2.792   9.150  0.00  0.00    +0.000 A 
ATOM     13  F   UNL     1      10.484   1.583   9.061  0.00  0.00    +0.000 F 
ATOM     14  C   UNL     1       9.263   3.324   8.038  0.00  0.00    +0.000 A 
ENDBRANCH   6   8
ENDBRANCH   1   2
BRANCH   1  15
ATOM     15  O   UNL     1       5.838   2.487   4.196  0.00  0.00    +0.000 OA
BRANCH  15  19
ATOM     16  C   UNL     1       3.339  -0.149   2.245  0.00  0.00    +0.000 A 
ATOM     17  C   UNL     1       4.657  -0.520   2.520  0.00  0.00    +0.000 A 
ATOM     18  C   UNL     1       5.494   0.377   3.186  0.00  0.00    +0.000 A 
ATOM     19  C   UNL     1       4.982   1.613   3.551  0.00  0.00    +0.000 A 
ATOM     20  N   UNL     1       3.711   1.996   3.300  0.00  0.00    +0.000 NA
ATOM     21  C   UNL     1       2.922   1.115   2.646  0.00  0.00    +0.000 A 
BRANCH  16  23
ATOM     22  N   UNL     1       2.569  -2.358   1.580  0.00  0.00    +0.000 N 
ATOM     23  C   UNL     1       2.373  -1.005   1.528  0.00  0.00    +0.000 C 
ATOM     24  O   UNL     1       1.409  -0.532   0.939  0.00  0.00    +0.000 OA
ATOM     25  H   UNL     1       1.832  -2.926   1.176  0.00  0.00    +0.000 HD
ATOM     26  H   UNL     1       3.176  -2.794   2.254  0.00  0.00    +0.000 HD
ENDBRANCH  16  23
ENDBRANCH  15  19
ENDBRANCH   1  15
TORSDOF 5
