REMARK  Name = 
REMARK  7 active torsions:
REMARK  status: ('A' for Active; 'I' for Inactive)
REMARK    1  A    between atoms: C_1  and  C_2
REMARK    2  A    between atoms: C_2  and  C_3
REMARK    3  A    between atoms: C_2  and  C_4
REMARK    4  A    between atoms: C_2  and  C_5
REMARK    5  A    between atoms: C_9  and  C_10
REMARK    6  A    between atoms: N_16  and  C_17
REMARK    7  A    between atoms: C_17  and  C_18
REMARK                            x       y       z     vdW  Elec       q    Type
REMARK                         _______ _______ _______ _____ _____    ______ ____
ROOT
ATOM      1  C   UNL     1       3.024   0.404  -1.413  0.00  0.00    +0.000 A 
ATOM      2  N   UNL     1       3.067   1.645  -1.888  0.00  0.00    +0.000 NA
ATOM      3  C   UNL     1       3.461   1.559  -3.191  0.00  0.00    +0.000 A 
ATOM      4  C   UNL     1       3.678   2.555  -4.151  0.00  0.00    +0.000 A 
ATOM      5  C   UNL     1       4.091   2.138  -5.421  0.00  0.00    +0.000 A 
ATOM      6  C   UNL     1       4.248   0.768  -5.655  0.00  0.00    +0.000 A 
ATOM      7  N   UNL     1       4.044  -0.231  -4.753  0.00  0.00    +0.000 NA
ATOM      8  C   UNL     1       3.658   0.240  -3.549  0.00  0.00    +0.000 A 
ATOM      9  N   UNL     1       3.414  -0.488  -2.404  0.00  0.00    +0.000 N 
ENDROOT
BRANCH   5  10
ATOM     10  C   UNL     1       4.382   3.069  -6.539  0.00  0.00    +0.000 C 
ATOM     11  N   UNL     1       4.242   4.411  -6.332  0.00  0.00    +0.000 N 
ATOM     12  O   UNL     1       4.747   2.650  -7.632  0.00  0.00    +0.000 OA
ATOM     13  H   UNL     1       3.954   4.846  -5.470  0.00  0.00    +0.000 HD
ATOM     14  H   UNL     1       4.458   5.018  -7.114  0.00  0.00    +0.000 HD
ENDBRANCH   5  10
BRANCH   1  16
ATOM     15  C   UNL     1       0.990  -0.168  -0.095  0.00  0.00    +0.000 C 
ATOM     16  C   UNL     1       2.503   0.098  -0.009  0.00  0.00    +0.000 C 
ATOM     17  C   UNL     1       2.732   1.343   0.886  0.00  0.00    +0.000 C 
ATOM     18  C   UNL     1       3.188  -1.071   0.710  0.00  0.00    +0.000 C 
ENDBRANCH   1  16
BRANCH   9  19
ATOM     19  C   UNL     1       3.557  -1.937  -2.359  0.00  0.00    +0.000 C 
BRANCH  19  20
ATOM     20  C   UNL     1       4.904  -2.389  -1.829  0.00  0.00    +0.000 A 
ATOM     21  C   UNL     1       4.989  -3.563  -1.061  0.00  0.00    +0.000 A 
ATOM     22  C   UNL     1       6.214  -3.990  -0.539  0.00  0.00    +0.000 A 
ATOM     23  C   UNL     1       7.375  -3.265  -0.797  0.00  0.00    +0.000 A 
ATOM     24  C   UNL     1       7.316  -2.127  -1.595  0.00  0.00    +0.000 A 
ATOM     25  C   UNL     1       6.094  -1.701  -2.118  0.00  0.00    +0.000 A 
ENDBRANCH  19  20
ENDBRANCH   9  19
TORSDOF 4
