REMARK  Name = 
REMARK  7 active torsions:
REMARK  status: ('A' for Active; 'I' for Inactive)
REMARK    1  A    between atoms: C_2  and  C_3
REMARK    2  A    between atoms: C_6  and  N_7
REMARK    3  A    between atoms: N_7  and  C_8
REMARK    4  A    between atoms: C_8  and  C_9
REMARK    5  A    between atoms: C_14  and  C_15
REMARK    6  A    between atoms: C_19  and  O_20
REMARK    7  A    between atoms: O_20  and  C_21
REMARK                            x       y       z     vdW  Elec       q    Type
REMARK                         _______ _______ _______ _____ _____    ______ ____
ROOT
ATOM      1  C   UNL     1       9.663   0.175  -0.674  0.00  0.00    +0.000 A 
ATOM      2  C   UNL     1       9.682   1.200  -1.634  0.00  0.00    +0.000 A 
ATOM      3  C   UNL     1      10.457   2.343  -1.446  0.00  0.00    +0.000 A 
ATOM      4  C   UNL     1      11.259   2.460  -0.312  0.00  0.00    +0.000 A 
ATOM      5  F   UNL     1      11.950   3.600  -0.155  0.00  0.00    +0.000 F 
ATOM      6  C   UNL     1      11.346   1.432   0.637  0.00  0.00    +0.000 A 
ATOM      7  C   UNL     1      10.531   0.301   0.425  0.00  0.00    +0.000 A 
ENDROOT
BRANCH   6   8
ATOM      8  C   UNL     1      12.221   1.496   1.829  0.00  0.00    +0.000 A 
ATOM      9  C   UNL     1      12.878   0.337   2.286  0.00  0.00    +0.000 A 
ATOM     10  C   UNL     1      13.657   0.346   3.441  0.00  0.00    +0.000 A 
ATOM     11  C   UNL     1      13.821   1.531   4.149  0.00  0.00    +0.000 A 
ATOM     12  C   UNL     1      13.222   2.708   3.703  0.00  0.00    +0.000 A 
ATOM     13  C   UNL     1      12.406   2.684   2.565  0.00  0.00    +0.000 A 
BRANCH  12  14
ATOM     14  O   UNL     1      13.468   3.805   4.480  0.00  0.00    +0.000 OA
BRANCH  14  15
ATOM     15  C   UNL     1      13.436   5.049   3.804  0.00  0.00    +0.000 C 
ATOM     16  F   UNL     1      12.158   5.500   3.783  0.00  0.00    +0.000 F 
ATOM     17  F   UNL     1      14.147   5.929   4.556  0.00  0.00    +0.000 F 
ENDBRANCH  14  15
ENDBRANCH  12  14
ENDBRANCH   6   8
BRANCH   1  18
ATOM     18  C   UNL     1       8.654  -0.964  -0.755  0.00  0.00    +0.000 C 
ATOM     19  C   UNL     1       7.811  -1.282   0.467  0.00  0.00    +0.000 C 
ATOM     20  C   UNL     1       7.197  -0.511  -0.653  0.00  0.00    +0.000 C 
BRANCH  18  21
ATOM     21  N   UNL     1       8.926  -1.960  -1.782  0.00  0.00    +0.000 N 
ATOM     22  H   UNL     1       8.763  -1.735  -2.758  0.00  0.00    +0.000 HD
BRANCH  21  26
ATOM     23  C   UNL     1      11.082  -5.455  -1.720  0.00  0.00    +0.000 A 
ATOM     24  C   UNL     1      10.585  -4.897  -2.884  0.00  0.00    +0.000 A 
ATOM     25  N   UNL     1       9.894  -3.728  -2.894  0.00  0.00    +0.000 NA
ATOM     26  C   UNL     1       9.694  -3.113  -1.704  0.00  0.00    +0.000 A 
ATOM     27  C   UNL     1      10.201  -3.685  -0.540  0.00  0.00    +0.000 A 
ATOM     28  N   UNL     1      10.903  -4.857  -0.516  0.00  0.00    +0.000 NA
BRANCH  23  30
ATOM     29  N   UNL     1      12.369  -7.704  -1.840  0.00  0.00    +0.000 NA
ATOM     30  C   UNL     1      11.798  -6.698  -1.754  0.00  0.00    +0.000 C 
ENDBRANCH  23  30
ENDBRANCH  21  26
ENDBRANCH  18  21
ENDBRANCH   1  18
TORSDOF 7
