REMARK  Name = 
REMARK  7 active torsions:
REMARK  status: ('A' for Active; 'I' for Inactive)
REMARK    1  A    between atoms: C_1  and  C_2
REMARK    2  A    between atoms: C_2  and  N_3
REMARK    3  A    between atoms: C_2  and  C_11
REMARK    4  A    between atoms: C_4  and  C_6
REMARK    5  A    between atoms: C_14  and  C_15
REMARK    6  A    between atoms: C_15  and  N_16
REMARK    7  A    between atoms: C_17  and  C_19
REMARK                            x       y       z     vdW  Elec       q    Type
REMARK                         _______ _______ _______ _____ _____    ______ ____
ROOT
ATOM      1  C   UNL     1       2.839  -0.669   1.169  0.00  0.00    +0.000 A 
ATOM      2  C   UNL     1       3.225   0.073   2.299  0.00  0.00    +0.000 A 
ATOM      3  C   UNL     1       3.547  -0.565   3.508  0.00  0.00    +0.000 A 
ATOM      4  C   UNL     1       3.507  -1.962   3.607  0.00  0.00    +0.000 A 
ATOM      5  C   UNL     1       3.130  -2.702   2.481  0.00  0.00    +0.000 A 
ATOM      6  C   UNL     1       2.817  -2.067   1.277  0.00  0.00    +0.000 A 
ENDROOT
BRANCH   1   8
ATOM      7  C   UNL     1       1.437  -0.688  -0.971  0.00  0.00    +0.000 C 
ATOM      8  C   UNL     1       2.485   0.049  -0.126  0.00  0.00    +0.000 C 
BRANCH   8   9
ATOM      9  N   UNL     1       3.685   0.288  -0.905  0.00  0.00    +0.000 N 
ATOM     10  C   UNL     1       3.777   1.264  -1.870  0.00  0.00    +0.000 C 
ATOM     11  O   UNL     1       2.879   2.067  -2.109  0.00  0.00    +0.000 OA
ATOM     12  H   UNL     1       4.487  -0.333  -0.820  0.00  0.00    +0.000 HD
BRANCH  10  13
ATOM     13  C   UNL     1       5.079   1.235  -2.680  0.00  0.00    +0.000 C 
ATOM     14  C   UNL     1       4.931   0.503  -4.000  0.00  0.00    +0.000 C 
ATOM     15  C   UNL     1       6.374   0.225  -4.386  0.00  0.00    +0.000 C 
ATOM     16  C   UNL     1       7.110   0.100  -3.056  0.00  0.00    +0.000 C 
ATOM     17  N   UNL     1       6.136   0.430  -2.011  0.00  0.00    +0.000 NA
ATOM     18  H   UNL     1       6.575   0.987  -1.277  0.00  0.00    +0.000 HD
ENDBRANCH  10  13
ENDBRANCH   8   9
ENDBRANCH   1   8
BRANCH   4  19
ATOM     19  C   UNL     1       3.812  -2.675   4.899  0.00  0.00    +0.000 C 
BRANCH  19  20
ATOM     20  N   UNL     1       2.617  -2.869   5.683  0.00  0.00    +0.000 N 
ATOM     21  C   UNL     1       2.666  -3.446   6.927  0.00  0.00    +0.000 C 
ATOM     22  O   UNL     1       3.724  -3.781   7.448  0.00  0.00    +0.000 OA
ATOM     23  H   UNL     1       1.732  -2.833   5.188  0.00  0.00    +0.000 HD
BRANCH  21  24
ATOM     24  C   UNL     1       1.385  -3.584   7.635  0.00  0.00    +0.000 A 
ATOM     25  C   UNL     1       1.370  -3.645   9.023  0.00  0.00    +0.000 A 
ATOM     26  S   UNL     1      -0.197  -3.775   9.684  0.00  0.00    +0.000 S 
ATOM     27  C   UNL     1      -0.907  -3.808   8.138  0.00  0.00    +0.000 A 
ATOM     28  N   UNL     1      -2.251  -3.946   7.988  0.00  0.00    +0.000 NA
ATOM     29  C   UNL     1      -2.651  -3.985   6.762  0.00  0.00    +0.000 A 
ATOM     30  N   UNL     1      -1.828  -3.888   5.670  0.00  0.00    +0.000 N 
ATOM     31  C   UNL     1      -0.468  -3.713   5.772  0.00  0.00    +0.000 A 
ATOM     32  O   UNL     1       0.233  -3.574   4.776  0.00  0.00    +0.000 OA
ATOM     33  C   UNL     1       0.036  -3.688   7.132  0.00  0.00    +0.000 A 
ATOM     34  H   UNL     1      -2.207  -3.907   4.735  0.00  0.00    +0.000 HD
ENDBRANCH  21  24
ENDBRANCH  19  20
ENDBRANCH   4  19
TORSDOF 6
