REMARK  Name = 
REMARK  7 active torsions:
REMARK  status: ('A' for Active; 'I' for Inactive)
REMARK    1  A    between atoms: C_1  and  N_2
REMARK    2  A    between atoms: N_2  and  C_3
REMARK    3  A    between atoms: C_3  and  C_4
REMARK    4  A    between atoms: C_7  and  C_8
REMARK    5  A    between atoms: C_8  and  C_9
REMARK    6  A    between atoms: C_9  and  C_10
REMARK    7  A    between atoms: C_19  and  C_21
REMARK                            x       y       z     vdW  Elec       q    Type
REMARK                         _______ _______ _______ _____ _____    ______ ____
ROOT
ATOM      1  C   UNL     1       2.866  -1.150  -0.253  0.00  0.00    +0.000 C 
ENDROOT
BRANCH   1   2
ATOM      2  C   UNL     1       2.039  -2.311  -0.739  0.00  0.00    +0.000 A 
ATOM      3  C   UNL     1       2.502  -3.627  -0.566  0.00  0.00    +0.000 A 
ATOM      4  C   UNL     1       1.677  -4.715  -0.847  0.00  0.00    +0.000 A 
ATOM      5  C   UNL     1       0.363  -4.505  -1.306  0.00  0.00    +0.000 A 
ATOM      6  C   UNL     1      -0.069  -3.193  -1.547  0.00  0.00    +0.000 A 
ATOM      7  C   UNL     1       0.765  -2.105  -1.272  0.00  0.00    +0.000 A 
BRANCH   5   8
ATOM      8  C   UNL     1      -0.574  -5.663  -1.540  0.00  0.00    +0.000 C 
BRANCH   8   9
ATOM      9  C   UNL     1      -0.828  -6.490  -0.276  0.00  0.00    +0.000 C 
BRANCH   9  10
ATOM     10  C   UNL     1      -1.805  -7.618  -0.547  0.00  0.00    +0.000 C 
ATOM     11  O   UNL     1      -2.358  -7.753  -1.638  0.00  0.00    +0.000 OA
ATOM     12  N   UNL     1      -2.023  -8.499   0.488  0.00  0.00    +0.000 N 
ATOM     13  C   UNL     1      -1.498  -8.446   1.839  0.00  0.00    +0.000 C 
ATOM     14  C   UNL     1      -1.478  -9.905   2.260  0.00  0.00    +0.000 C 
ATOM     15  C   UNL     1      -2.712 -10.487   1.577  0.00  0.00    +0.000 C 
ATOM     16  C   UNL     1      -2.866  -9.666   0.300  0.00  0.00    +0.000 C 
ENDBRANCH   9  10
ENDBRANCH   8   9
ENDBRANCH   5   8
ENDBRANCH   1   2
BRANCH   1  18
ATOM     17  C   UNL     1       4.056  -1.002  -2.479  0.00  0.00    +0.000 C 
ATOM     18  N   UNL     1       3.721  -0.422  -1.184  0.00  0.00    +0.000 N 
ATOM     19  C   UNL     1       4.458   0.724  -0.811  0.00  0.00    +0.000 C 
ATOM     20  O   UNL     1       5.285   1.219  -1.576  0.00  0.00    +0.000 OA
BRANCH  19  21
ATOM     21  C   UNL     1       4.265   1.329   0.523  0.00  0.00    +0.000 A 
ATOM     22  C   UNL     1       4.282   0.637   1.724  0.00  0.00    +0.000 A 
ATOM     23  S   UNL     1       4.073   1.626   3.099  0.00  0.00    +0.000 S 
ATOM     24  C   UNL     1       4.140   3.036   2.153  0.00  0.00    +0.000 A 
ATOM     25  N   UNL     1       4.144   4.263   2.737  0.00  0.00    +0.000 NA
ATOM     26  C   UNL     1       4.272   5.240   1.901  0.00  0.00    +0.000 A 
ATOM     27  N   UNL     1       4.361   5.100   0.540  0.00  0.00    +0.000 N 
ATOM     28  C   UNL     1       4.231   3.886  -0.101  0.00  0.00    +0.000 A 
ATOM     29  O   UNL     1       4.091   3.828  -1.317  0.00  0.00    +0.000 OA
ATOM     30  C   UNL     1       4.205   2.748   0.801  0.00  0.00    +0.000 A 
ATOM     31  H   UNL     1       4.397   5.911  -0.059  0.00  0.00    +0.000 HD
ENDBRANCH  19  21
ENDBRANCH   1  18
TORSDOF 6
