REMARK  Name = 
REMARK  6 active torsions:
REMARK  status: ('A' for Active; 'I' for Inactive)
REMARK    1  A    between atoms: C_1  and  C_2
REMARK    2  A    between atoms: C_2  and  N_3
REMARK    3  A    between atoms: C_2  and  C_16
REMARK    4  A    between atoms: C_4  and  C_6
REMARK    5  A    between atoms: C_19  and  C_20
REMARK    6  A    between atoms: C_20  and  N_21
REMARK                            x       y       z     vdW  Elec       q    Type
REMARK                         _______ _______ _______ _____ _____    ______ ____
ROOT
ATOM      1  C   UNL     1       3.099   0.067   1.599  0.00  0.00    +0.000 C 
ATOM      2  C   UNL     1       2.498  -0.116   0.202  0.00  0.00    +0.000 C 
ENDROOT
BRANCH   2   3
ATOM      3  C   UNL     1       3.006  -1.351  -0.512  0.00  0.00    +0.000 A 
ATOM      4  C   UNL     1       3.259  -1.324  -1.888  0.00  0.00    +0.000 A 
ATOM      5  C   UNL     1       3.678  -2.481  -2.546  0.00  0.00    +0.000 A 
ATOM      6  C   UNL     1       3.817  -3.657  -1.815  0.00  0.00    +0.000 A 
ATOM      7  N   UNL     1       3.615  -3.704  -0.475  0.00  0.00    +0.000 NA
ATOM      8  C   UNL     1       3.205  -2.567   0.135  0.00  0.00    +0.000 A 
BRANCH   6   9
ATOM      9  C   UNL     1       4.131  -4.967  -2.507  0.00  0.00    +0.000 C 
BRANCH   9  10
ATOM     10  N   UNL     1       5.571  -5.228  -2.560  0.00  0.00    +0.000 N 
ATOM     11  C   UNL     1       5.853  -6.489  -3.129  0.00  0.00    +0.000 A 
ATOM     12  C   UNL     1       7.172  -6.883  -3.255  0.00  0.00    +0.000 A 
ATOM     13  C   UNL     1       7.397  -8.114  -3.831  0.00  0.00    +0.000 A 
ATOM     14  N   UNL     1       6.413  -8.929  -4.256  0.00  0.00    +0.000 NA
ATOM     15  C   UNL     1       5.174  -8.452  -4.097  0.00  0.00    +0.000 A 
ATOM     16  N   UNL     1       4.848  -7.267  -3.566  0.00  0.00    +0.000 NA
ATOM     17  H   UNL     1       5.966  -5.191  -1.620  0.00  0.00    +0.000 HD
ENDBRANCH   9  10
ENDBRANCH   6   9
ENDBRANCH   2   3
BRANCH   2  18
ATOM     18  N   UNL     1       1.042  -0.125   0.250  0.00  0.00    +0.000 N 
ATOM     19  C   UNL     1       0.304   1.034   0.256  0.00  0.00    +0.000 C 
ATOM     20  O   UNL     1       0.855   2.135   0.249  0.00  0.00    +0.000 OA
ATOM     21  H   UNL     1       0.575  -1.025   0.317  0.00  0.00    +0.000 HD
BRANCH  19  22
ATOM     22  C   UNL     1      -1.164   0.926   0.245  0.00  0.00    +0.000 A 
ATOM     23  C   UNL     1      -1.926   2.092   0.243  0.00  0.00    +0.000 A 
ATOM     24  S   UNL     1      -3.607   1.824   0.196  0.00  0.00    +0.000 S 
ATOM     25  C   UNL     1      -3.391   0.137   0.196  0.00  0.00    +0.000 A 
ATOM     26  N   UNL     1      -4.462  -0.697   0.173  0.00  0.00    +0.000 NA
ATOM     27  C   UNL     1      -4.166  -1.953   0.189  0.00  0.00    +0.000 A 
ATOM     28  N   UNL     1      -2.888  -2.448   0.220  0.00  0.00    +0.000 N 
ATOM     29  C   UNL     1      -1.772  -1.643   0.244  0.00  0.00    +0.000 A 
ATOM     30  O   UNL     1      -0.644  -2.122   0.292  0.00  0.00    +0.000 OA
ATOM     31  C   UNL     1      -2.051  -0.218   0.229  0.00  0.00    +0.000 A 
ATOM     32  H   UNL     1      -2.722  -3.443   0.241  0.00  0.00    +0.000 HD
ENDBRANCH  19  22
ENDBRANCH   2  18
TORSDOF 5
