REMARK  Name = 
REMARK  7 active torsions:
REMARK  status: ('A' for Active; 'I' for Inactive)
REMARK    1  A    between atoms: C_1  and  C_2
REMARK    2  A    between atoms: C_9  and  C_10
REMARK    3  A    between atoms: N_12  and  C_13
REMARK    4  A    between atoms: C_13  and  C_14
REMARK    5  A    between atoms: C_17  and  C_18
REMARK    6  A    between atoms: C_19  and  C_20
REMARK    7  A    between atoms: C_20  and  N_21
REMARK                            x       y       z     vdW  Elec       q    Type
REMARK                         _______ _______ _______ _____ _____    ______ ____
ROOT
ATOM      1  C   UNL     1       0.054  -5.088  -0.019  0.00  0.00    +0.000 C 
ENDROOT
BRANCH   1   2
ATOM      2  C   UNL     1       0.064  -6.590  -0.003  0.00  0.00    +0.000 A 
ATOM      3  C   UNL     1      -1.130  -7.318  -0.092  0.00  0.00    +0.000 A 
ATOM      4  C   UNL     1      -1.111  -8.716  -0.127  0.00  0.00    +0.000 A 
ATOM      5  C   UNL     1       0.101  -9.410  -0.076  0.00  0.00    +0.000 A 
ATOM      6  C   UNL     1       1.288  -8.681   0.077  0.00  0.00    +0.000 A 
ATOM      7  C   UNL     1       1.273  -7.286   0.108  0.00  0.00    +0.000 A 
BRANCH   5   8
ATOM      8  C   UNL     1       0.103 -10.878  -0.105  0.00  0.00    +0.000 C 
ATOM      9  C   UNL     1       1.112 -11.598  -0.624  0.00  0.00    +0.000 C 
BRANCH   9  10
ATOM     10  C   UNL     1       1.233 -13.089  -0.514  0.00  0.00    +0.000 C 
BRANCH  10  11
ATOM     11  N   UNL     1       2.436 -13.451   0.248  0.00  0.00    +0.000 NA
ATOM     12  C   UNL     1       2.616 -14.919   0.303  0.00  0.00    +0.000 C 
ATOM     13  C   UNL     1       1.654 -15.637   1.268  0.00  0.00    +0.000 C 
ATOM     14  O   UNL     1       1.711 -15.082   2.587  0.00  0.00    +0.000 OA
ATOM     15  C   UNL     1       1.438 -13.676   2.561  0.00  0.00    +0.000 C 
ATOM     16  C   UNL     1       2.425 -12.944   1.642  0.00  0.00    +0.000 C 
ENDBRANCH  10  11
ENDBRANCH   9  10
ENDBRANCH   5   8
ENDBRANCH   1   2
BRANCH   1  19
ATOM     17  C   UNL     1      -0.178  -3.173   1.470  0.00  0.00    +0.000 C 
ATOM     18  O   UNL     1      -0.196  -2.408   0.511  0.00  0.00    +0.000 OA
ATOM     19  N   UNL     1      -0.084  -4.538   1.307  0.00  0.00    +0.000 N 
ATOM     20  H   UNL     1       0.112  -5.134   2.100  0.00  0.00    +0.000 HD
BRANCH  17  29
ATOM     21  C   UNL     1       1.393  -0.186   1.408  0.00  0.00    +0.000 C 
ATOM     22  C   UNL     1       0.924  -0.325   2.825  0.00  0.00    +0.000 A 
ATOM     23  N   UNL     1       1.229   0.728   3.634  0.00  0.00    +0.000 NA
ATOM     24  C   UNL     1       0.865   0.694   4.922  0.00  0.00    +0.000 A 
ATOM     25  N   UNL     1       0.220  -0.288   5.545  0.00  0.00    +0.000 NA
ATOM     26  C   UNL     1      -0.071  -1.316   4.731  0.00  0.00    +0.000 A 
ATOM     27  S   UNL     1      -0.891  -2.666   5.358  0.00  0.00    +0.000 S 
ATOM     28  C   UNL     1      -0.882  -3.443   3.845  0.00  0.00    +0.000 A 
ATOM     29  C   UNL     1      -0.256  -2.704   2.853  0.00  0.00    +0.000 A 
ATOM     30  C   UNL     1       0.227  -1.429   3.375  0.00  0.00    +0.000 A 
ENDBRANCH  17  29
ENDBRANCH   1  19
TORSDOF 6
