REMARK  Name = 
REMARK  8 active torsions:
REMARK  status: ('A' for Active; 'I' for Inactive)
REMARK    1  A    between atoms: C_1  and  C_2
REMARK    2  A    between atoms: C_2  and  N_3
REMARK    3  A    between atoms: C_2  and  C_16
REMARK    4  A    between atoms: C_4  and  C_6
REMARK    5  A    between atoms: C_19  and  C_20
REMARK    6  A    between atoms: C_20  and  N_21
REMARK    7  A    between atoms: N_21  and  C_22
REMARK    8  A    between atoms: C_22  and  C_23
REMARK                            x       y       z     vdW  Elec       q    Type
REMARK                         _______ _______ _______ _____ _____    ______ ____
ROOT
ATOM      1  C   UNL     1       3.135   0.278  -1.269  0.00  0.00    +0.000 C 
ATOM      2  C   UNL     1       2.420   0.006   0.057  0.00  0.00    +0.000 C 
ENDROOT
BRANCH   2   3
ATOM      3  C   UNL     1       2.859  -1.319   0.657  0.00  0.00    +0.000 A 
ATOM      4  C   UNL     1       3.472  -1.358   1.915  0.00  0.00    +0.000 A 
ATOM      5  C   UNL     1       3.796  -2.582   2.509  0.00  0.00    +0.000 A 
ATOM      6  C   UNL     1       3.503  -3.794   1.866  0.00  0.00    +0.000 A 
ATOM      7  C   UNL     1       2.915  -3.757   0.598  0.00  0.00    +0.000 A 
ATOM      8  C   UNL     1       2.603  -2.535  -0.001  0.00  0.00    +0.000 A 
BRANCH   6   9
ATOM      9  C   UNL     1       3.807  -5.113   2.537  0.00  0.00    +0.000 C 
BRANCH   9  10
ATOM     10  N   UNL     1       3.099  -5.222   3.811  0.00  0.00    +0.000 NA
ATOM     11  H   UNL     1       2.099  -5.125   3.643  0.00  0.00    +0.000 HD
BRANCH  10  12
ATOM     12  C   UNL     1       3.360  -6.501   4.463  0.00  0.00    +0.000 C 
BRANCH  12  13
ATOM     13  C   UNL     1       2.602  -6.602   5.764  0.00  0.00    +0.000 A 
ATOM     14  C   UNL     1       1.661  -7.613   5.976  0.00  0.00    +0.000 A 
ATOM     15  C   UNL     1       0.993  -7.655   7.191  0.00  0.00    +0.000 A 
ATOM     16  N   UNL     1       1.194  -6.775   8.194  0.00  0.00    +0.000 NA
ATOM     17  C   UNL     1       2.107  -5.806   7.971  0.00  0.00    +0.000 A 
ATOM     18  C   UNL     1       2.829  -5.682   6.794  0.00  0.00    +0.000 A 
ENDBRANCH  12  13
ENDBRANCH  10  12
ENDBRANCH   9  10
ENDBRANCH   6   9
ENDBRANCH   2   3
BRANCH   2  19
ATOM     19  N   UNL     1       0.976  -0.001  -0.111  0.00  0.00    +0.000 N 
ATOM     20  C   UNL     1       0.216   1.130  -0.217  0.00  0.00    +0.000 C 
ATOM     21  O   UNL     1       0.708   2.255  -0.187  0.00  0.00    +0.000 OA
ATOM     22  H   UNL     1       0.514  -0.899  -0.006  0.00  0.00    +0.000 HD
BRANCH  20  23
ATOM     23  C   UNL     1      -1.229   0.931  -0.415  0.00  0.00    +0.000 A 
ATOM     24  C   UNL     1      -1.995   1.963  -0.941  0.00  0.00    +0.000 A 
ATOM     25  S   UNL     1      -3.647   1.578  -1.107  0.00  0.00    +0.000 S 
ATOM     26  C   UNL     1      -3.411   0.027  -0.446  0.00  0.00    +0.000 A 
ATOM     27  N   UNL     1      -4.459  -0.823  -0.272  0.00  0.00    +0.000 NA
ATOM     28  C   UNL     1      -4.143  -1.953   0.268  0.00  0.00    +0.000 A 
ATOM     29  N   UNL     1      -2.873  -2.316   0.629  0.00  0.00    +0.000 N 
ATOM     30  C   UNL     1      -1.778  -1.518   0.405  0.00  0.00    +0.000 A 
ATOM     31  O   UNL     1      -0.644  -1.930   0.619  0.00  0.00    +0.000 OA
ATOM     32  C   UNL     1      -2.080  -0.208  -0.143  0.00  0.00    +0.000 A 
ATOM     33  H   UNL     1      -2.686  -3.230   1.014  0.00  0.00    +0.000 HD
ENDBRANCH  20  23
ENDBRANCH   2  19
TORSDOF 7
