REMARK  Name = 
REMARK  5 active torsions:
REMARK  status: ('A' for Active; 'I' for Inactive)
REMARK    1  A    between atoms: N_1  and  C_2
REMARK    2  A    between atoms: C_2  and  C_3
REMARK    3  A    between atoms: C_6  and  C_7
REMARK    4  A    between atoms: C_7  and  N_8
REMARK    5  A    between atoms: C_12  and  C_13
REMARK                            x       y       z     vdW  Elec       q    Type
REMARK                         _______ _______ _______ _____ _____    ______ ____
ROOT
ATOM      1  N   UNL     1       2.937  -6.191   1.450  0.00  0.00    +0.000 N 
ATOM      2  C   UNL     1       3.220  -7.483   1.925  0.00  0.00    +0.000 A 
ATOM      3  C   UNL     1       2.453  -8.571   1.481  0.00  0.00    +0.000 A 
ATOM      4  N   UNL     1       2.644  -9.859   1.874  0.00  0.00    +0.000 NA
ATOM      5  C   UNL     1       3.659 -10.026   2.763  0.00  0.00    +0.000 A 
ATOM      6  C   UNL     1       4.420  -8.963   3.225  0.00  0.00    +0.000 A 
ATOM      7  N   UNL     1       4.208  -7.680   2.824  0.00  0.00    +0.000 NA
ATOM      8  H   UNL     1       2.985  -6.197   0.432  0.00  0.00    +0.000 HD
ENDROOT
BRANCH   5   9
ATOM      9  C   UNL     1       3.953 -11.404   3.242  0.00  0.00    +0.000 C 
ATOM     10  N   UNL     1       3.151 -12.396   2.752  0.00  0.00    +0.000 N 
ATOM     11  O   UNL     1       4.861 -11.640   4.028  0.00  0.00    +0.000 OA
ATOM     12  H   UNL     1       2.398 -12.177   2.108  0.00  0.00    +0.000 HD
ATOM     13  H   UNL     1       3.306 -13.350   3.047  0.00  0.00    +0.000 HD
ENDBRANCH   5   9
BRANCH   1  14
ATOM     14  C   UNL     1       3.812  -5.146   1.996  0.00  0.00    +0.000 C 
BRANCH  14  18
ATOM     15  C   UNL     1       2.761  -1.458   0.231  0.00  0.00    +0.000 A 
ATOM     16  C   UNL     1       4.040  -1.988   0.095  0.00  0.00    +0.000 A 
ATOM     17  N   UNL     1       4.418  -3.163   0.657  0.00  0.00    +0.000 NA
ATOM     18  C   UNL     1       3.468  -3.804   1.387  0.00  0.00    +0.000 A 
ATOM     19  C   UNL     1       2.196  -3.261   1.541  0.00  0.00    +0.000 A 
ATOM     20  N   UNL     1       1.814  -2.092   0.969  0.00  0.00    +0.000 NA
BRANCH  15  21
ATOM     21  C   UNL     1       2.385  -0.174  -0.468  0.00  0.00    +0.000 C 
BRANCH  21  22
ATOM     22  N   UNL     1       2.516  -0.266  -1.926  0.00  0.00    +0.000 NA
ATOM     23  H   UNL     1       2.179   0.602  -2.340  0.00  0.00    +0.000 HD
ATOM     24  H   UNL     1       1.880  -0.993  -2.255  0.00  0.00    +0.000 HD
ENDBRANCH  21  22
ENDBRANCH  15  21
ENDBRANCH  14  18
ENDBRANCH   1  14
TORSDOF 5
