REMARK  Name = 
REMARK  7 active torsions:
REMARK  status: ('A' for Active; 'I' for Inactive)
REMARK    1  A    between atoms: C_1  and  C_2
REMARK    2  A    between atoms: C_2  and  C_3
REMARK    3  A    between atoms: C_2  and  C_14
REMARK    4  A    between atoms: C_3  and  O_4
REMARK    5  A    between atoms: O_4  and  C_5
REMARK    6  A    between atoms: C_8  and  C_9
REMARK    7  A    between atoms: C_18  and  C_19
REMARK                            x       y       z     vdW  Elec       q    Type
REMARK                         _______ _______ _______ _____ _____    ______ ____
ROOT
ATOM      1  O   UNL     1       0.559  -1.291   0.428  0.00  0.00    +0.000 OA
ENDROOT
BRANCH   1   2
ATOM      2  C   UNL     1      -0.806  -1.387   0.597  0.00  0.00    +0.000 A 
ATOM      3  C   UNL     1      -1.326  -2.602   1.037  0.00  0.00    +0.000 A 
ATOM      4  N   UNL     1      -2.646  -2.790   1.312  0.00  0.00    +0.000 NA
ATOM      5  C   UNL     1      -3.422  -1.685   1.110  0.00  0.00    +0.000 A 
ATOM      6  C   UNL     1      -2.907  -0.486   0.646  0.00  0.00    +0.000 A 
ATOM      7  N   UNL     1      -1.588  -0.308   0.379  0.00  0.00    +0.000 NA
BRANCH   5   8
ATOM      8  C   UNL     1      -4.869  -1.772   1.453  0.00  0.00    +0.000 C 
ATOM      9  N   UNL     1      -5.302  -2.972   1.946  0.00  0.00    +0.000 N 
ATOM     10  O   UNL     1      -5.625  -0.818   1.315  0.00  0.00    +0.000 OA
ATOM     11  H   UNL     1      -4.656  -3.740   2.073  0.00  0.00    +0.000 HD
ATOM     12  H   UNL     1      -6.268  -3.065   2.226  0.00  0.00    +0.000 HD
ENDBRANCH   5   8
ENDBRANCH   1   2
BRANCH   1  13
ATOM     13  C   UNL     1       0.975  -0.013  -0.076  0.00  0.00    +0.000 C 
BRANCH  13  15
ATOM     14  C   UNL     1       3.079  -1.116  -0.980  0.00  0.00    +0.000 C 
ATOM     15  C   UNL     1       2.516   0.039  -0.143  0.00  0.00    +0.000 C 
BRANCH  15  16
ATOM     16  C   UNL     1       3.015   1.392  -0.637  0.00  0.00    +0.000 A 
ATOM     17  C   UNL     1       3.811   2.193   0.196  0.00  0.00    +0.000 A 
ATOM     18  C   UNL     1       4.248   3.452  -0.224  0.00  0.00    +0.000 A 
ATOM     19  C   UNL     1       3.901   3.930  -1.487  0.00  0.00    +0.000 A 
ATOM     20  C   UNL     1       3.124   3.144  -2.339  0.00  0.00    +0.000 A 
ATOM     21  C   UNL     1       2.686   1.880  -1.916  0.00  0.00    +0.000 A 
BRANCH  20  22
ATOM     22  C   UNL     1       2.774   3.629  -3.647  0.00  0.00    +0.000 C 
ATOM     23  N   UNL     1       2.492   4.016  -4.702  0.00  0.00    +0.000 NA
ENDBRANCH  20  22
ENDBRANCH  15  16
ENDBRANCH  13  15
ENDBRANCH   1  13
TORSDOF 6
