REMARK  Name = 
REMARK  5 active torsions:
REMARK  status: ('A' for Active; 'I' for Inactive)
REMARK    1  A    between atoms: N_1  and  C_2
REMARK    2  A    between atoms: C_2  and  C_3
REMARK    3  A    between atoms: C_3  and  C_4
REMARK    4  A    between atoms: C_7  and  C_8
REMARK    5  A    between atoms: C_8  and  N_9
REMARK                            x       y       z     vdW  Elec       q    Type
REMARK                         _______ _______ _______ _____ _____    ______ ____
ROOT
ATOM      1  C   UNL     1       4.641  -0.600  -1.292  0.00  0.00    +0.000 A 
ATOM      2  C   UNL     1       5.381  -0.903  -2.442  0.00  0.00    +0.000 A 
ATOM      3  C   UNL     1       6.774  -0.775  -2.449  0.00  0.00    +0.000 A 
ATOM      4  C   UNL     1       7.457  -0.347  -1.300  0.00  0.00    +0.000 A 
ATOM      5  C   UNL     1       6.714  -0.069  -0.142  0.00  0.00    +0.000 A 
ATOM      6  C   UNL     1       5.322  -0.199  -0.137  0.00  0.00    +0.000 A 
ENDROOT
BRANCH   1   7
ATOM      7  C   UNL     1       3.132  -0.676  -1.304  0.00  0.00    +0.000 C 
BRANCH   7   8
ATOM      8  C   UNL     1       2.609  -2.058  -0.902  0.00  0.00    +0.000 C 
BRANCH   8   9
ATOM      9  N   UNL     1       1.146  -2.088  -0.920  0.00  0.00    +0.000 NA
ATOM     10  H   UNL     1       0.823  -3.019  -0.656  0.00  0.00    +0.000 HD
ATOM     11  H   UNL     1       0.810  -1.928  -1.869  0.00  0.00    +0.000 HD
ENDBRANCH   8   9
ENDBRANCH   7   8
ENDBRANCH   1   7
BRANCH   4  12
ATOM     12  C   UNL     1       8.949  -0.076  -1.332  0.00  0.00    +0.000 C 
BRANCH  12  13
ATOM     13  N   UNL     1       9.194   1.336  -1.598  0.00  0.00    +0.000 N 
ATOM     14  N   UNL     1       9.277   2.203  -0.555  0.00  0.00    +0.000 NA
ATOM     15  C   UNL     1       8.964   3.377  -1.114  0.00  0.00    +0.000 A 
ATOM     16  C   UNL     1       8.772   3.284  -2.509  0.00  0.00    +0.000 A 
ATOM     17  C   UNL     1       8.367   4.155  -3.536  0.00  0.00    +0.000 A 
ATOM     18  C   UNL     1       8.343   3.670  -4.847  0.00  0.00    +0.000 A 
ATOM     19 CL   UNL     1       7.767   4.689  -6.111  0.00  0.00    +0.000 Cl
ATOM     20  C   UNL     1       8.761   2.374  -5.151  0.00  0.00    +0.000 A 
ATOM     21  C   UNL     1       9.137   1.487  -4.137  0.00  0.00    +0.000 A 
ATOM     22  C   UNL     1       9.087   1.964  -2.820  0.00  0.00    +0.000 A 
ENDBRANCH  12  13
ENDBRANCH   4  12
TORSDOF 5
