REMARK  Name = 
REMARK  8 active torsions:
REMARK  status: ('A' for Active; 'I' for Inactive)
REMARK    1  A    between atoms: C_1  and  O_2
REMARK    2  A    between atoms: O_2  and  C_3
REMARK    3  A    between atoms: C_7  and  N_8
REMARK    4  A    between atoms: N_8  and  C_9
REMARK    5  A    between atoms: C_9  and  C_10
REMARK    6  A    between atoms: C_14  and  C_15
REMARK    7  A    between atoms: C_19  and  O_20
REMARK    8  A    between atoms: O_20  and  C_21
REMARK                            x       y       z     vdW  Elec       q    Type
REMARK                         _______ _______ _______ _____ _____    ______ ____
ROOT
ATOM      1  C   UNL     1       2.017  -5.899   3.293  0.00  0.00    +0.000 A 
ATOM      2  C   UNL     1       0.978  -6.780   2.980  0.00  0.00    +0.000 A 
ATOM      3  C   UNL     1       0.971  -8.068   3.509  0.00  0.00    +0.000 A 
ATOM      4  C   UNL     1       2.009  -8.490   4.346  0.00  0.00    +0.000 A 
ATOM      5  C   UNL     1       3.080  -7.639   4.671  0.00  0.00    +0.000 A 
ATOM      6  C   UNL     1       3.037  -6.328   4.159  0.00  0.00    +0.000 A 
ENDROOT
BRANCH   5   7
ATOM      7  C   UNL     1       4.268  -8.118   5.416  0.00  0.00    +0.000 A 
ATOM      8  C   UNL     1       4.759  -9.421   5.222  0.00  0.00    +0.000 A 
ATOM      9  C   UNL     1       5.948  -9.847   5.818  0.00  0.00    +0.000 A 
ATOM     10  C   UNL     1       6.690  -8.973   6.609  0.00  0.00    +0.000 A 
ATOM     11  C   UNL     1       6.230  -7.678   6.829  0.00  0.00    +0.000 A 
ATOM     12  C   UNL     1       5.015  -7.272   6.258  0.00  0.00    +0.000 A 
BRANCH  11  13
ATOM     13  O   UNL     1       6.874  -6.712   7.554  0.00  0.00    +0.000 OA
ATOM     14  C   UNL     1       8.181  -7.026   8.020  0.00  0.00    +0.000 C 
ENDBRANCH  11  13
ENDBRANCH   5   7
BRANCH   1  15
ATOM     15  C   UNL     1       2.091  -4.532   2.658  0.00  0.00    +0.000 C 
BRANCH  15  16
ATOM     16  N   UNL     1       1.207  -3.597   3.332  0.00  0.00    +0.000 N 
ATOM     17  H   UNL     1       1.208  -3.697   4.346  0.00  0.00    +0.000 HD
BRANCH  16  22
ATOM     18  C   UNL     1       1.584  -0.464   1.326  0.00  0.00    +0.000 A 
ATOM     19  C   UNL     1       0.803   0.360   2.126  0.00  0.00    +0.000 A 
ATOM     20  N   UNL     1       0.195  -0.040   3.264  0.00  0.00    +0.000 NA
ATOM     21  C   UNL     1       0.380  -1.338   3.615  0.00  0.00    +0.000 A 
ATOM     22  C   UNL     1       1.159  -2.262   2.914  0.00  0.00    +0.000 A 
ATOM     23  C   UNL     1       1.741  -1.793   1.729  0.00  0.00    +0.000 A 
BRANCH  18  25
ATOM     24  C   UNL     1       2.957  -0.706  -0.600  0.00  0.00    +0.000 C 
ATOM     25  O   UNL     1       2.120   0.112   0.212  0.00  0.00    +0.000 OA
ENDBRANCH  18  25
ENDBRANCH  16  22
ENDBRANCH  15  16
ENDBRANCH   1  15
TORSDOF 6
