REMARK  Name = 
REMARK  8 active torsions:
REMARK  status: ('A' for Active; 'I' for Inactive)
REMARK    1  A    between atoms: C_1  and  O_2
REMARK    2  A    between atoms: O_2  and  C_3
REMARK    3  A    between atoms: C_5  and  C_6
REMARK    4  A    between atoms: C_6  and  N_7
REMARK    5  A    between atoms: C_12  and  C_13
REMARK    6  A    between atoms: N_15  and  C_16
REMARK    7  A    between atoms: N_15  and  C_17
REMARK    8  A    between atoms: C_23  and  C_24
REMARK                            x       y       z     vdW  Elec       q    Type
REMARK                         _______ _______ _______ _____ _____    ______ ____
ROOT
ATOM      1  C   UNL     1       3.091   0.426  -4.754  0.00  0.00    +0.000 C 
ENDROOT
BRANCH   1   2
ATOM      2  N   UNL     1       1.932   1.301  -4.618  0.00  0.00    +0.000 N 
ATOM      3  C   UNL     1       0.730   1.110  -5.257  0.00  0.00    +0.000 A 
ATOM      4  C   UNL     1      -0.123   2.117  -4.858  0.00  0.00    +0.000 A 
ATOM      5  C   UNL     1       0.592   2.952  -3.961  0.00  0.00    +0.000 A 
ATOM      6  C   UNL     1       0.286   4.100  -3.213  0.00  0.00    +0.000 A 
ATOM      7  C   UNL     1       1.295   4.691  -2.437  0.00  0.00    +0.000 A 
ATOM      8  C   UNL     1       2.567   4.138  -2.515  0.00  0.00    +0.000 A 
ATOM      9  N   UNL     1       2.916   2.999  -3.181  0.00  0.00    +0.000 NA
ATOM     10  C   UNL     1       1.889   2.454  -3.872  0.00  0.00    +0.000 A 
BRANCH   7  11
ATOM     11  C   UNL     1       0.943   5.930  -1.694  0.00  0.00    +0.000 C 
ATOM     12  O   UNL     1       0.098   6.645  -2.238  0.00  0.00    +0.000 OA
ATOM     13  N   UNL     1       1.474   6.261  -0.443  0.00  0.00    +0.000 N 
ATOM     14  C   UNL     1       2.453   5.528   0.346  0.00  0.00    +0.000 C 
ATOM     15  C   UNL     1       0.977   7.477   0.194  0.00  0.00    +0.000 C 
ENDBRANCH   7  11
ENDBRANCH   1   2
BRANCH   1  18
ATOM     16  C   UNL     1       3.917  -1.242  -1.408  0.00  0.00    +0.000 A 
ATOM     17  C   UNL     1       3.820  -0.304  -2.448  0.00  0.00    +0.000 A 
ATOM     18  C   UNL     1       3.152  -0.600  -3.648  0.00  0.00    +0.000 A 
ATOM     19  C   UNL     1       2.550  -1.855  -3.793  0.00  0.00    +0.000 A 
ATOM     20  C   UNL     1       2.632  -2.794  -2.763  0.00  0.00    +0.000 A 
ATOM     21  C   UNL     1       3.315  -2.505  -1.568  0.00  0.00    +0.000 A 
BRANCH  21  22
ATOM     22  C   UNL     1       3.327  -3.591  -0.535  0.00  0.00    +0.000 C 
ATOM     23  N   UNL     1       3.942  -3.348   0.658  0.00  0.00    +0.000 N 
ATOM     24  O   UNL     1       2.798  -4.679  -0.741  0.00  0.00    +0.000 OA
ATOM     25  H   UNL     1       4.441  -2.482   0.822  0.00  0.00    +0.000 HD
ATOM     26  H   UNL     1       3.977  -4.084   1.348  0.00  0.00    +0.000 HD
ENDBRANCH  21  22
BRANCH  16  28
ATOM     27  C   UNL     1       4.824   0.356   0.120  0.00  0.00    +0.000 C 
ATOM     28  O   UNL     1       4.629  -1.003  -0.259  0.00  0.00    +0.000 OA
ENDBRANCH  16  28
ENDBRANCH   1  18
TORSDOF 5
