REMARK  Name = 
REMARK  6 active torsions:
REMARK  status: ('A' for Active; 'I' for Inactive)
REMARK    1  A    between atoms: C_1  and  N_2
REMARK    2  A    between atoms: N_2  and  C_3
REMARK    3  A    between atoms: C_3  and  C_4
REMARK    4  A    between atoms: C_7  and  C_8
REMARK    5  A    between atoms: C_8  and  C_9
REMARK    6  A    between atoms: C_18  and  C_20
REMARK                            x       y       z     vdW  Elec       q    Type
REMARK                         _______ _______ _______ _____ _____    ______ ____
ROOT
ATOM      1  C   UNL     1       4.598  -0.664  -2.643  0.00  0.00    +0.000 C 
ATOM      2  N   UNL     1       4.122  -0.241  -1.331  0.00  0.00    +0.000 N 
ATOM      3  C   UNL     1       4.770   0.878  -0.777  0.00  0.00    +0.000 C 
ATOM      4  O   UNL     1       5.659   1.463  -1.392  0.00  0.00    +0.000 OA
ENDROOT
BRANCH   3   5
ATOM      5  C   UNL     1       4.409   1.334   0.574  0.00  0.00    +0.000 A 
ATOM      6  C   UNL     1       4.317   0.512   1.687  0.00  0.00    +0.000 A 
ATOM      7  S   UNL     1       3.944   1.348   3.128  0.00  0.00    +0.000 S 
ATOM      8  C   UNL     1       4.047   2.853   2.343  0.00  0.00    +0.000 A 
ATOM      9  N   UNL     1       3.939   4.016   3.037  0.00  0.00    +0.000 NA
ATOM     10  C   UNL     1       4.116   5.077   2.321  0.00  0.00    +0.000 A 
ATOM     11  N   UNL     1       4.351   5.078   0.969  0.00  0.00    +0.000 N 
ATOM     12  C   UNL     1       4.329   3.931   0.205  0.00  0.00    +0.000 A 
ATOM     13  O   UNL     1       4.305   3.991  -1.019  0.00  0.00    +0.000 OA
ATOM     14  C   UNL     1       4.262   2.710   0.984  0.00  0.00    +0.000 A 
ATOM     15  H   UNL     1       4.416   5.947   0.457  0.00  0.00    +0.000 HD
ENDBRANCH   3   5
BRANCH   2  16
ATOM     16  C   UNL     1       3.028  -0.948  -0.665  0.00  0.00    +0.000 C 
BRANCH  16  17
ATOM     17  C   UNL     1       2.245  -1.971  -1.444  0.00  0.00    +0.000 A 
ATOM     18  C   UNL     1       2.590  -3.329  -1.362  0.00  0.00    +0.000 A 
ATOM     19  C   UNL     1       1.813  -4.293  -2.005  0.00  0.00    +0.000 A 
ATOM     20  C   UNL     1       0.689  -3.916  -2.740  0.00  0.00    +0.000 A 
ATOM     21  C   UNL     1       0.370  -2.555  -2.856  0.00  0.00    +0.000 A 
ATOM     22  C   UNL     1       1.144  -1.588  -2.214  0.00  0.00    +0.000 A 
BRANCH  20  23
ATOM     23  C   UNL     1      -0.167  -4.960  -3.414  0.00  0.00    +0.000 C 
BRANCH  23  24
ATOM     24  C   UNL     1      -1.587  -5.085  -2.872  0.00  0.00    +0.000 C 
ATOM     25  O   UNL     1      -2.014  -4.422  -1.927  0.00  0.00    +0.000 OA
ATOM     26  N   UNL     1      -2.384  -6.017  -3.511  0.00  0.00    +0.000 N 
ATOM     27  C   UNL     1      -2.024  -6.863  -4.632  0.00  0.00    +0.000 C 
ATOM     28  C   UNL     1      -3.364  -7.267  -5.217  0.00  0.00    +0.000 C 
ATOM     29  C   UNL     1      -4.272  -7.360  -3.997  0.00  0.00    +0.000 C 
ATOM     30  C   UNL     1      -3.714  -6.328  -3.022  0.00  0.00    +0.000 C 
ENDBRANCH  23  24
ENDBRANCH  20  23
ENDBRANCH  16  17
ENDBRANCH   2  16
TORSDOF 5
