REMARK  Name = 
REMARK  6 active torsions:
REMARK  status: ('A' for Active; 'I' for Inactive)
REMARK    1  A    between atoms: C_1  and  C_2
REMARK    2  A    between atoms: C_2  and  N_3
REMARK    3  A    between atoms: C_2  and  C_16
REMARK    4  A    between atoms: C_4  and  C_6
REMARK    5  A    between atoms: C_19  and  C_20
REMARK    6  A    between atoms: C_21  and  C_22
REMARK                            x       y       z     vdW  Elec       q    Type
REMARK                         _______ _______ _______ _____ _____    ______ ____
ROOT
ATOM      1  C   UNL     1       0.991   0.168  -0.055  0.00  0.00    +0.000 C 
ATOM      2  C   UNL     1       2.522   0.143  -0.156  0.00  0.00    +0.000 C 
ENDROOT
BRANCH   2   3
ATOM      3  C   UNL     1       3.068   1.555  -0.368  0.00  0.00    +0.000 A 
ATOM      4  C   UNL     1       2.762   2.287  -1.517  0.00  0.00    +0.000 A 
ATOM      5  N   UNL     1       3.286   3.510  -1.797  0.00  0.00    +0.000 NA
ATOM      6  C   UNL     1       4.139   4.000  -0.871  0.00  0.00    +0.000 A 
ATOM      7  C   UNL     1       4.426   3.305   0.294  0.00  0.00    +0.000 A 
ATOM      8  N   UNL     1       3.905   2.077   0.571  0.00  0.00    +0.000 NA
BRANCH   6   9
ATOM      9  C   UNL     1       4.785   5.230  -1.218  0.00  0.00    +0.000 C 
ATOM     10  C   UNL     1       5.369   6.227  -1.560  0.00  0.00    +0.000 C 
BRANCH  10  11
ATOM     11  C   UNL     1       6.095   7.383  -2.012  0.00  0.00    +0.000 A 
ATOM     12  C   UNL     1       5.435   8.431  -2.643  0.00  0.00    +0.000 A 
ATOM     13  C   UNL     1       6.189   9.505  -3.087  0.00  0.00    +0.000 A 
ATOM     14  N   UNL     1       7.528   9.593  -2.940  0.00  0.00    +0.000 NA
ATOM     15  C   UNL     1       8.143   8.563  -2.323  0.00  0.00    +0.000 A 
ATOM     16  C   UNL     1       7.477   7.446  -1.845  0.00  0.00    +0.000 A 
ENDBRANCH  10  11
ENDBRANCH   6   9
ENDBRANCH   2   3
BRANCH   2  17
ATOM     17  N   UNL     1       2.978  -0.761  -1.215  0.00  0.00    +0.000 N 
ATOM     18  C   UNL     1       2.729  -2.115  -1.189  0.00  0.00    +0.000 C 
ATOM     19  O   UNL     1       2.065  -2.654  -0.310  0.00  0.00    +0.000 OA
ATOM     20  H   UNL     1       3.812  -0.468  -1.717  0.00  0.00    +0.000 HD
BRANCH  18  21
ATOM     21  C   UNL     1       3.230  -2.884  -2.335  0.00  0.00    +0.000 A 
ATOM     22  C   UNL     1       2.551  -4.015  -2.767  0.00  0.00    +0.000 A 
ATOM     23  S   UNL     1       3.250  -4.746  -4.142  0.00  0.00    +0.000 S 
ATOM     24  C   UNL     1       4.516  -3.609  -4.169  0.00  0.00    +0.000 A 
ATOM     25  N   UNL     1       5.504  -3.676  -5.102  0.00  0.00    +0.000 NA
ATOM     26  C   UNL     1       6.419  -2.774  -4.974  0.00  0.00    +0.000 A 
ATOM     27  N   UNL     1       6.433  -1.806  -4.002  0.00  0.00    +0.000 N 
ATOM     28  C   UNL     1       5.434  -1.672  -3.069  0.00  0.00    +0.000 A 
ATOM     29  O   UNL     1       5.426  -0.753  -2.258  0.00  0.00    +0.000 OA
ATOM     30  C   UNL     1       4.393  -2.676  -3.157  0.00  0.00    +0.000 A 
ATOM     31  H   UNL     1       7.173  -1.120  -3.966  0.00  0.00    +0.000 HD
ENDBRANCH  18  21
ENDBRANCH   2  17
TORSDOF 5
