REMARK  Name = 
REMARK  11 active torsions:
REMARK  status: ('A' for Active; 'I' for Inactive)
REMARK    1  A    between atoms: C_2  and  C_25
REMARK    2  A    between atoms: N_3  and  C_4
REMARK    3  A    between atoms: C_4  and  C_5
REMARK    4  A    between atoms: C_8  and  C_9
REMARK    5  A    between atoms: C_9  and  N_10
REMARK    6  A    between atoms: N_10  and  C_11
REMARK    7  A    between atoms: N_10  and  C_14
REMARK    8  A    between atoms: C_11  and  C_12
REMARK    9  A    between atoms: C_14  and  C_15
REMARK   10  A    between atoms: C_18  and  C_19
REMARK   11  A    between atoms: C_19  and  O_20
REMARK                            x       y       z     vdW  Elec       q    Type
REMARK                         _______ _______ _______ _____ _____    ______ ____
ROOT
ATOM      1  C   UNL     1       3.202   2.672  -2.551  0.00  0.00    +0.000 A 
ATOM      2  C   UNL     1       2.774   3.945  -2.944  0.00  0.00    +0.000 A 
ATOM      3  C   UNL     1       3.631   4.789  -3.646  0.00  0.00    +0.000 A 
ATOM      4  C   UNL     1       4.934   4.377  -3.960  0.00  0.00    +0.000 A 
ATOM      5  C   UNL     1       5.319   3.062  -3.671  0.00  0.00    +0.000 A 
ATOM      6  C   UNL     1       4.455   2.212  -2.978  0.00  0.00    +0.000 A 
ENDROOT
BRANCH   1   7
ATOM      7  C   UNL     1       2.327   1.833  -1.659  0.00  0.00    +0.000 C 
BRANCH   7  10
ATOM      8  O   UNL     1      -0.329   2.432  -2.404  0.00  0.00    +0.000 OA
ATOM      9  C   UNL     1       0.178   1.376  -2.774  0.00  0.00    +0.000 C 
ATOM     10  N   UNL     1       1.441   0.992  -2.410  0.00  0.00    +0.000 N 
ATOM     11  H   UNL     1       1.873   0.203  -2.876  0.00  0.00    +0.000 HD
BRANCH   9  12
ATOM     12  C   UNL     1      -0.567   0.412  -3.588  0.00  0.00    +0.000 A 
ATOM     13  C   UNL     1      -1.953   0.429  -3.591  0.00  0.00    +0.000 A 
ATOM     14  S   UNL     1      -2.649  -0.785  -4.567  0.00  0.00    +0.000 S 
ATOM     15  C   UNL     1      -1.118  -1.344  -5.058  0.00  0.00    +0.000 A 
ATOM     16  N   UNL     1      -0.996  -2.379  -5.933  0.00  0.00    +0.000 NA
ATOM     17  C   UNL     1       0.223  -2.668  -6.247  0.00  0.00    +0.000 A 
ATOM     18  N   UNL     1       1.330  -2.024  -5.767  0.00  0.00    +0.000 N 
ATOM     19  C   UNL     1       1.259  -1.035  -4.819  0.00  0.00    +0.000 A 
ATOM     20  O   UNL     1       2.277  -0.587  -4.300  0.00  0.00    +0.000 OA
ATOM     21  C   UNL     1      -0.091  -0.633  -4.464  0.00  0.00    +0.000 A 
ATOM     22  H   UNL     1       2.257  -2.326  -6.025  0.00  0.00    +0.000 HD
ENDBRANCH   9  12
ENDBRANCH   7  10
ENDBRANCH   1   7
BRANCH   4  23
ATOM     23  C   UNL     1       5.921   5.365  -4.547  0.00  0.00    +0.000 C 
BRANCH  23  24
ATOM     24  N   UNL     1       6.128   6.547  -3.685  0.00  0.00    +0.000 NA
BRANCH  24  25
ATOM     25  C   UNL     1       6.625   6.213  -2.326  0.00  0.00    +0.000 C 
BRANCH  25  26
ATOM     26  C   UNL     1       7.984   5.512  -2.192  0.00  0.00    +0.000 C 
ATOM     27  F   UNL     1       8.978   6.310  -2.667  0.00  0.00    +0.000 F 
ENDBRANCH  25  26
ENDBRANCH  24  25
BRANCH  24  28
ATOM     28  C   UNL     1       7.013   7.532  -4.329  0.00  0.00    +0.000 C 
BRANCH  28  29
ATOM     29  C   UNL     1       6.456   8.129  -5.605  0.00  0.00    +0.000 A 
ATOM     30  C   UNL     1       5.246   8.834  -5.609  0.00  0.00    +0.000 A 
ATOM     31  C   UNL     1       4.770   9.422  -6.784  0.00  0.00    +0.000 A 
ATOM     32  C   UNL     1       5.498   9.313  -7.980  0.00  0.00    +0.000 A 
ATOM     33  C   UNL     1       6.694   8.589  -7.979  0.00  0.00    +0.000 A 
ATOM     34  C   UNL     1       7.173   8.006  -6.804  0.00  0.00    +0.000 A 
BRANCH  32  35
ATOM     35  C   UNL     1       5.001   9.953  -9.247  0.00  0.00    +0.000 C 
BRANCH  35  36
ATOM     36  O   UNL     1       5.945  10.902  -9.728  0.00  0.00    +0.000 OA
ATOM     37  H   UNL     1       6.244  11.414  -8.957  0.00  0.00    +0.000 HD
ENDBRANCH  35  36
ENDBRANCH  32  35
ENDBRANCH  28  29
ENDBRANCH  24  28
ENDBRANCH  23  24
ENDBRANCH   4  23
TORSDOF 11
