REMARK  Name = 
REMARK  10 active torsions:
REMARK  status: ('A' for Active; 'I' for Inactive)
REMARK    1  A    between atoms: N_1  and  C_2
REMARK    2  A    between atoms: C_2  and  C_3
REMARK    3  A    between atoms: C_6  and  C_7
REMARK    4  A    between atoms: C_7  and  O_8
REMARK    5  A    between atoms: O_8  and  C_9
REMARK    6  A    between atoms: O_8  and  C_13
REMARK    7  A    between atoms: C_9  and  C_10
REMARK    8  A    between atoms: C_10  and  C_11
REMARK    9  A    between atoms: C_11  and  O_12
REMARK   10  A    between atoms: C_13  and  C_14
REMARK                            x       y       z     vdW  Elec       q    Type
REMARK                         _______ _______ _______ _____ _____    ______ ____
ROOT
ATOM      1  O   UNL     1       4.096   3.266  -5.259  0.00  0.00    +0.000 OA
ENDROOT
BRANCH   1   2
ATOM      2  C   UNL     1       4.126   1.836  -5.200  0.00  0.00    +0.000 C 
BRANCH   2   6
ATOM      3  C   UNL     1       2.112   0.012  -1.916  0.00  0.00    +0.000 A 
ATOM      4  C   UNL     1       3.148  -0.672  -2.549  0.00  0.00    +0.000 A 
ATOM      5  C   UNL     1       3.852  -0.056  -3.579  0.00  0.00    +0.000 A 
ATOM      6  C   UNL     1       3.512   1.245  -3.951  0.00  0.00    +0.000 A 
ATOM      7  N   UNL     1       2.552   1.958  -3.317  0.00  0.00    +0.000 NA
ATOM      8  C   UNL     1       1.875   1.324  -2.320  0.00  0.00    +0.000 A 
BRANCH   3   9
ATOM      9  C   UNL     1       1.258  -0.653  -0.873  0.00  0.00    +0.000 C 
BRANCH   9  10
ATOM     10  N   UNL     1      -0.134  -0.710  -1.303  0.00  0.00    +0.000 NA
ATOM     11  H   UNL     1      -0.681  -1.216  -0.606  0.00  0.00    +0.000 HD
ATOM     12  H   UNL     1      -0.203  -1.262  -2.159  0.00  0.00    +0.000 HD
ENDBRANCH   9  10
ENDBRANCH   3   9
ENDBRANCH   2   6
ENDBRANCH   1   2
BRANCH   1  13
ATOM     13  C   UNL     1       4.934   3.889  -4.274  0.00  0.00    +0.000 C 
BRANCH  13  14
ATOM     14  C   UNL     1       5.045   5.410  -4.281  0.00  0.00    +0.000 C 
BRANCH  14  15
ATOM     15  C   UNL     1       3.725   6.136  -4.062  0.00  0.00    +0.000 C 
BRANCH  15  16
ATOM     16  O   UNL     1       3.942   7.524  -4.249  0.00  0.00    +0.000 OA
ATOM     17  H   UNL     1       4.433   7.872  -3.480  0.00  0.00    +0.000 HD
ENDBRANCH  15  16
ENDBRANCH  14  15
ENDBRANCH  13  14
ENDBRANCH   1  13
BRANCH   1  18
ATOM     18  C   UNL     1       4.264   3.763  -6.588  0.00  0.00    +0.000 C 
BRANCH  18  19
ATOM     19  C   UNL     1       3.138   3.388  -7.523  0.00  0.00    +0.000 A 
ATOM     20  C   UNL     1       1.820   3.793  -7.253  0.00  0.00    +0.000 A 
ATOM     21  C   UNL     1       0.792   3.486  -8.143  0.00  0.00    +0.000 A 
ATOM     22  C   UNL     1       1.067   2.782  -9.312  0.00  0.00    +0.000 A 
ATOM     23  C   UNL     1       2.368   2.377  -9.594  0.00  0.00    +0.000 A 
ATOM     24  C   UNL     1       3.401   2.680  -8.707  0.00  0.00    +0.000 A 
ENDBRANCH  18  19
ENDBRANCH   1  18
TORSDOF 10
