REMARK  Name = 
REMARK  5 active torsions:
REMARK  status: ('A' for Active; 'I' for Inactive)
REMARK    1  A    between atoms: N_1  and  C_2
REMARK    2  A    between atoms: C_2  and  C_3
REMARK    3  A    between atoms: C_3  and  C_4
REMARK    4  A    between atoms: C_8  and  C_9
REMARK    5  A    between atoms: C_9  and  N_10
REMARK                            x       y       z     vdW  Elec       q    Type
REMARK                         _______ _______ _______ _____ _____    ______ ____
ROOT
ATOM      1  C   UNL     1       4.532   0.293  -1.318  0.00  0.00    +0.000 A 
ATOM      2  C   UNL     1       5.153  -0.930  -1.549  0.00  0.00    +0.000 A 
ATOM      3  C   UNL     1       6.539  -1.002  -1.468  0.00  0.00    +0.000 A 
ATOM      4  C   UNL     1       7.266   0.147  -1.173  0.00  0.00    +0.000 A 
ATOM      5  C   UNL     1       6.585   1.349  -0.996  0.00  0.00    +0.000 A 
ATOM      6  N   UNL     1       5.231   1.430  -1.072  0.00  0.00    +0.000 NA
ENDROOT
BRANCH   1   7
ATOM      7  C   UNL     1       3.029   0.403  -1.340  0.00  0.00    +0.000 C 
BRANCH   7   8
ATOM      8  C   UNL     1       2.506   0.716  -2.742  0.00  0.00    +0.000 C 
BRANCH   8   9
ATOM      9  N   UNL     1       1.044   0.799  -2.750  0.00  0.00    +0.000 NA
ATOM     10  H   UNL     1       0.727   1.036  -3.691  0.00  0.00    +0.000 HD
ATOM     11  H   UNL     1       0.746   1.570  -2.153  0.00  0.00    +0.000 HD
ENDBRANCH   8   9
ENDBRANCH   7   8
ENDBRANCH   1   7
BRANCH   5  12
ATOM     12  C   UNL     1       7.342   2.635  -0.784  0.00  0.00    +0.000 C 
BRANCH  12  13
ATOM     13  N   UNL     1       7.566   2.942   0.625  0.00  0.00    +0.000 N 
ATOM     14  C   UNL     1       8.695   2.581   1.321  0.00  0.00    +0.000 A 
ATOM     15  C   UNL     1       8.654   3.195   2.552  0.00  0.00    +0.000 A 
ATOM     16  C   UNL     1       7.467   3.972   2.608  0.00  0.00    +0.000 A 
ATOM     17  C   UNL     1       6.914   4.830   3.580  0.00  0.00    +0.000 A 
ATOM     18  C   UNL     1       5.707   5.466   3.305  0.00  0.00    +0.000 A 
ATOM     19  F   UNL     1       5.184   6.298   4.217  0.00  0.00    +0.000 F 
ATOM     20  C   UNL     1       5.032   5.265   2.109  0.00  0.00    +0.000 A 
ATOM     21  C   UNL     1       5.558   4.414   1.132  0.00  0.00    +0.000 A 
ATOM     22  C   UNL     1       6.788   3.786   1.399  0.00  0.00    +0.000 A 
ENDBRANCH  12  13
ENDBRANCH   5  12
TORSDOF 5
