REMARK  Name = 
REMARK  5 active torsions:
REMARK  status: ('A' for Active; 'I' for Inactive)
REMARK    1  A    between atoms: C_2  and  C_18
REMARK    2  A    between atoms: N_3  and  C_4
REMARK    3  A    between atoms: C_4  and  C_5
REMARK    4  A    between atoms: N_8  and  C_9
REMARK    5  A    between atoms: C_9  and  C_10
REMARK                            x       y       z     vdW  Elec       q    Type
REMARK                         _______ _______ _______ _____ _____    ______ ____
ROOT
ATOM      1  O   UNL     1       3.924   0.209  -1.563  0.00  0.00    +0.000 OA
ATOM      2  C   UNL     1       3.267   0.250  -0.531  0.00  0.00    +0.000 C 
ATOM      3  N   UNL     1       2.505   1.327  -0.119  0.00  0.00    +0.000 N 
ATOM      4  H   UNL     1       1.850   1.174   0.632  0.00  0.00    +0.000 HD
ENDROOT
BRANCH   2   5
ATOM      5  C   UNL     1       3.011  -0.912   0.309  0.00  0.00    +0.000 A 
ATOM      6  C   UNL     1       2.741  -2.166  -0.211  0.00  0.00    +0.000 A 
ATOM      7  S   UNL     1       1.836  -3.112   0.902  0.00  0.00    +0.000 S 
ATOM      8  C   UNL     1       1.978  -1.924   2.117  0.00  0.00    +0.000 A 
ATOM      9  N   UNL     1       1.309  -1.997   3.298  0.00  0.00    +0.000 NA
ATOM     10  C   UNL     1       1.595  -1.047   4.130  0.00  0.00    +0.000 A 
ATOM     11  N   UNL     1       2.523  -0.057   3.908  0.00  0.00    +0.000 N 
ATOM     12  C   UNL     1       3.227   0.063   2.728  0.00  0.00    +0.000 A 
ATOM     13  O   UNL     1       4.094   0.902   2.573  0.00  0.00    +0.000 OA
ATOM     14  C   UNL     1       2.830  -0.912   1.729  0.00  0.00    +0.000 A 
ATOM     15  H   UNL     1       2.771   0.593   4.638  0.00  0.00    +0.000 HD
ENDBRANCH   2   5
BRANCH   3  16
ATOM     16  C   UNL     1       2.328   2.545  -0.880  0.00  0.00    +0.000 C 
BRANCH  16  17
ATOM     17  C   UNL     1       3.541   3.473  -0.782  0.00  0.00    +0.000 C 
ATOM     18  C   UNL     1       3.820   3.964   0.649  0.00  0.00    +0.000 C 
ATOM     19  C   UNL     1       3.110   5.262   1.032  0.00  0.00    +0.000 C 
ATOM     20  N   UNL     1       3.351   6.302   0.025  0.00  0.00    +0.000 NA
ATOM     21  C   UNL     1       2.750   5.893  -1.247  0.00  0.00    +0.000 C 
ATOM     22  C   UNL     1       3.431   4.632  -1.784  0.00  0.00    +0.000 C 
BRANCH  20  23
ATOM     23  C   UNL     1       2.828   7.608   0.506  0.00  0.00    +0.000 C 
BRANCH  23  24
ATOM     24  C   UNL     1       3.049   8.813  -0.410  0.00  0.00    +0.000 A 
ATOM     25  N   UNL     1       2.080   9.100  -1.313  0.00  0.00    +0.000 NA
ATOM     26  C   UNL     1       2.289  10.177  -2.092  0.00  0.00    +0.000 A 
ATOM     27  C   UNL     1       3.400  10.977  -2.003  0.00  0.00    +0.000 A 
ATOM     28  C   UNL     1       4.323  10.609  -1.054  0.00  0.00    +0.000 A 
ATOM     29  N   UNL     1       4.175   9.543  -0.247  0.00  0.00    +0.000 NA
ENDBRANCH  23  24
ENDBRANCH  20  23
ENDBRANCH  16  17
ENDBRANCH   3  16
TORSDOF 5
