REMARK  Name = 
REMARK  7 active torsions:
REMARK  status: ('A' for Active; 'I' for Inactive)
REMARK    1  A    between atoms: C_2  and  C_4
REMARK    2  A    between atoms: C_7  and  N_8
REMARK    3  A    between atoms: N_8  and  C_9
REMARK    4  A    between atoms: C_9  and  C_10
REMARK    5  A    between atoms: C_10  and  C_13
REMARK    6  A    between atoms: C_15  and  C_16
REMARK    7  A    between atoms: C_19  and  C_20
REMARK                            x       y       z     vdW  Elec       q    Type
REMARK                         _______ _______ _______ _____ _____    ______ ____
ROOT
ATOM      1  C   UNL     1       5.996   2.660  -6.635  0.00  0.00    +0.000 C 
ATOM      2  F   UNL     1       6.856   1.783  -7.254  0.00  0.00    +0.000 F 
ATOM      3  F   UNL     1       4.849   1.932  -6.440  0.00  0.00    +0.000 F 
ENDROOT
BRANCH   1   4
ATOM      4  C   UNL     1       5.724   3.877  -7.510  0.00  0.00    +0.000 A 
ATOM      5  C   UNL     1       5.142   3.668  -8.764  0.00  0.00    +0.000 A 
ATOM      6  C   UNL     1       4.877   4.752  -9.614  0.00  0.00    +0.000 A 
ATOM      7  C   UNL     1       5.235   6.024  -9.151  0.00  0.00    +0.000 A 
ATOM      8  C   UNL     1       5.803   6.156  -7.895  0.00  0.00    +0.000 A 
ATOM      9  N   UNL     1       6.051   5.118  -7.069  0.00  0.00    +0.000 NA
BRANCH   6  10
ATOM     10  C   UNL     1       4.262   4.572 -10.944  0.00  0.00    +0.000 A 
ATOM     11  C   UNL     1       3.343   3.562 -11.223  0.00  0.00    +0.000 A 
ATOM     12  C   UNL     1       2.826   3.441 -12.513  0.00  0.00    +0.000 A 
ATOM     13  C   UNL     1       3.232   4.332 -13.508  0.00  0.00    +0.000 A 
ATOM     14  C   UNL     1       4.138   5.316 -13.145  0.00  0.00    +0.000 A 
ATOM     15  N   UNL     1       4.650   5.455 -11.898  0.00  0.00    +0.000 NA
BRANCH  13  16
ATOM     16  C   UNL     1       2.733   4.259 -14.916  0.00  0.00    +0.000 C 
ATOM     17  F   UNL     1       1.856   3.239 -15.127  0.00  0.00    +0.000 F 
ATOM     18  F   UNL     1       2.086   5.393 -15.300  0.00  0.00    +0.000 F 
ATOM     19  F   UNL     1       3.738   4.077 -15.817  0.00  0.00    +0.000 F 
ENDBRANCH  13  16
ENDBRANCH   6  10
ENDBRANCH   1   4
BRANCH   1  20
ATOM     20  C   UNL     1       6.602   3.005  -5.253  0.00  0.00    +0.000 C 
BRANCH  20  21
ATOM     21  N   UNL     1       6.806   1.787  -4.429  0.00  0.00    +0.000 N 
ATOM     22  H   UNL     1       7.337   1.078  -4.930  0.00  0.00    +0.000 HD
BRANCH  21  26
ATOM     23  C   UNL     1       8.272   2.284  -0.626  0.00  0.00    +0.000 A 
ATOM     24  C   UNL     1       8.121   3.372  -1.471  0.00  0.00    +0.000 A 
ATOM     25  N   UNL     1       7.653   3.251  -2.743  0.00  0.00    +0.000 NA
ATOM     26  C   UNL     1       7.344   2.004  -3.157  0.00  0.00    +0.000 A 
ATOM     27  C   UNL     1       7.504   0.917  -2.284  0.00  0.00    +0.000 A 
ATOM     28  N   UNL     1       7.973   1.014  -1.012  0.00  0.00    +0.000 NA
BRANCH  23  30
ATOM     29  N   UNL     1       8.891   1.344   1.515  0.00  0.00    +0.000 N 
ATOM     30  C   UNL     1       8.766   2.482   0.764  0.00  0.00    +0.000 C 
ATOM     31  O   UNL     1       9.042   3.587   1.211  0.00  0.00    +0.000 OA
ATOM     32  H   UNL     1       9.213   1.409   2.470  0.00  0.00    +0.000 HD
ATOM     33  H   UNL     1       8.649   0.444   1.114  0.00  0.00    +0.000 HD
ENDBRANCH  23  30
ENDBRANCH  21  26
ENDBRANCH  20  21
ENDBRANCH   1  20
TORSDOF 7
