REMARK  Name = 
REMARK  9 active torsions:
REMARK  status: ('A' for Active; 'I' for Inactive)
REMARK    1  A    between atoms: C_1  and  N_2
REMARK    2  A    between atoms: N_2  and  C_3
REMARK    3  A    between atoms: N_2  and  C_4
REMARK    4  A    between atoms: C_4  and  C_5
REMARK    5  A    between atoms: C_5  and  O_6
REMARK    6  A    between atoms: O_6  and  C_7
REMARK    7  A    between atoms: C_7  and  C_8
REMARK    8  A    between atoms: C_7  and  C_14
REMARK    9  A    between atoms: C_17  and  C_18
REMARK                            x       y       z     vdW  Elec       q    Type
REMARK                         _______ _______ _______ _____ _____    ______ ____
ROOT
ATOM      1  C   UNL     1       6.232  -2.146  -1.894  0.00  0.00    +0.000 C 
ENDROOT
BRANCH   1   2
ATOM      2  C   UNL     1       4.706  -2.054  -1.900  0.00  0.00    +0.000 A 
ATOM      3  C   UNL     1       3.933  -2.247  -0.743  0.00  0.00    +0.000 A 
ATOM      4  C   UNL     1       2.554  -2.019  -0.759  0.00  0.00    +0.000 A 
ATOM      5  C   UNL     1       1.924  -1.606  -1.931  0.00  0.00    +0.000 A 
ATOM      6  C   UNL     1       2.669  -1.439  -3.095  0.00  0.00    +0.000 A 
ATOM      7  C   UNL     1       4.047  -1.665  -3.081  0.00  0.00    +0.000 A 
ENDBRANCH   1   2
BRANCH   1   8
ATOM      8  C   UNL     1       6.791  -3.239  -2.805  0.00  0.00    +0.000 A 
ATOM      9  C   UNL     1       6.899  -4.564  -2.377  0.00  0.00    +0.000 A 
ATOM     10  C   UNL     1       7.615  -5.476  -3.159  0.00  0.00    +0.000 A 
ATOM     11  C   UNL     1       8.175  -5.052  -4.366  0.00  0.00    +0.000 A 
ATOM     12  C   UNL     1       7.983  -3.731  -4.740  0.00  0.00    +0.000 A 
ATOM     13  N   UNL     1       7.304  -2.823  -3.996  0.00  0.00    +0.000 NA
BRANCH  11  14
ATOM     14  C   UNL     1       9.009  -5.910  -5.234  0.00  0.00    +0.000 C 
ATOM     15  N   UNL     1       8.877  -7.264  -5.108  0.00  0.00    +0.000 N 
ATOM     16  O   UNL     1       9.779  -5.431  -6.057  0.00  0.00    +0.000 OA
ATOM     17  H   UNL     1       8.114  -7.702  -4.616  0.00  0.00    +0.000 HD
ATOM     18  H   UNL     1       9.393  -7.828  -5.773  0.00  0.00    +0.000 HD
ENDBRANCH  11  14
ENDBRANCH   1   8
BRANCH   1  19
ATOM     19  O   UNL     1       6.724  -2.231  -0.542  0.00  0.00    +0.000 OA
BRANCH  19  20
ATOM     20  C   UNL     1       8.148  -2.206  -0.389  0.00  0.00    +0.000 C 
BRANCH  20  21
ATOM     21  C   UNL     1       8.847  -0.914  -0.856  0.00  0.00    +0.000 C 
BRANCH  21  23
ATOM     22  C   UNL     1      10.910   0.269  -1.268  0.00  0.00    +0.000 C 
ATOM     23  N   UNL     1      10.320  -0.970  -0.755  0.00  0.00    +0.000 NA
ATOM     24  C   UNL     1      10.785  -1.220   0.609  0.00  0.00    +0.000 C 
ENDBRANCH  21  23
ENDBRANCH  20  21
ENDBRANCH  19  20
ENDBRANCH   1  19
TORSDOF 7
