REMARK  Name = 
REMARK  4 active torsions:
REMARK  status: ('A' for Active; 'I' for Inactive)
REMARK    1  A    between atoms: C_2  and  C_4
REMARK    2  A    between atoms: N_8  and  C_9
REMARK    3  A    between atoms: C_9  and  C_10
REMARK    4  A    between atoms: C_14  and  C_15
REMARK                            x       y       z     vdW  Elec       q    Type
REMARK                         _______ _______ _______ _____ _____    ______ ____
ROOT
ATOM      1  C   UNL     1       5.465  -5.111   2.447  0.00  0.00    +0.000 C 
ATOM      2  C   UNL     1       5.715  -5.947   1.213  0.00  0.00    +0.000 C 
ATOM      3  C   UNL     1       4.927  -6.529   2.341  0.00  0.00    +0.000 C 
ENDROOT
BRANCH   1   8
ATOM      4  C   UNL     1       2.312  -2.573   5.638  0.00  0.00    +0.000 A 
ATOM      5  C   UNL     1       3.018  -3.765   5.791  0.00  0.00    +0.000 A 
ATOM      6  C   UNL     1       3.681  -4.296   4.695  0.00  0.00    +0.000 A 
ATOM      7  C   UNL     1       3.697  -3.614   3.479  0.00  0.00    +0.000 A 
ATOM      8  N   UNL     1       4.448  -4.049   2.386  0.00  0.00    +0.000 N 
ATOM      9  N   UNL     1       2.976  -2.488   3.303  0.00  0.00    +0.000 NA
ATOM     10  C   UNL     1       2.283  -2.008   4.369  0.00  0.00    +0.000 A 
ATOM     11  H   UNL     1       4.407  -3.383   1.624  0.00  0.00    +0.000 HD
BRANCH   4  13
ATOM     12  N   UNL     1       2.153  -2.113   8.001  0.00  0.00    +0.000 N 
ATOM     13  C   UNL     1       1.616  -1.915   6.765  0.00  0.00    +0.000 C 
ATOM     14  O   UNL     1       0.639  -1.210   6.583  0.00  0.00    +0.000 OA
ATOM     15  H   UNL     1       1.753  -1.570   8.755  0.00  0.00    +0.000 HD
ATOM     16  H   UNL     1       3.090  -2.477   8.143  0.00  0.00    +0.000 HD
ENDBRANCH   4  13
ENDBRANCH   1   8
BRANCH   1  17
ATOM     17  C   UNL     1       6.629  -4.791   3.393  0.00  0.00    +0.000 A 
ATOM     18  C   UNL     1       7.453  -3.680   3.196  0.00  0.00    +0.000 A 
ATOM     19  C   UNL     1       8.229  -3.217   4.250  0.00  0.00    +0.000 A 
ATOM     20  N   UNL     1       8.247  -3.775   5.482  0.00  0.00    +0.000 NA
ATOM     21  C   UNL     1       7.502  -4.894   5.670  0.00  0.00    +0.000 A 
ATOM     22  C   UNL     1       6.761  -5.450   4.626  0.00  0.00    +0.000 A 
BRANCH  21  23
ATOM     23  C   UNL     1       7.396  -5.434   7.050  0.00  0.00    +0.000 A 
ATOM     24  C   UNL     1       7.969  -4.798   8.151  0.00  0.00    +0.000 A 
ATOM     25  C   UNL     1       7.804  -5.351   9.424  0.00  0.00    +0.000 A 
ATOM     26  C   UNL     1       7.072  -6.517   9.572  0.00  0.00    +0.000 A 
ATOM     27  C   UNL     1       6.516  -7.082   8.443  0.00  0.00    +0.000 A 
ATOM     28  N   UNL     1       6.653  -6.571   7.200  0.00  0.00    +0.000 NA
ENDBRANCH  21  23
ENDBRANCH   1  17
TORSDOF 4
