REMARK  Name = 
REMARK  7 active torsions:
REMARK  status: ('A' for Active; 'I' for Inactive)
REMARK    1  A    between atoms: C_2  and  C_3
REMARK    2  A    between atoms: C_2  and  C_13
REMARK    3  A    between atoms: C_3  and  N_4
REMARK    4  A    between atoms: C_5  and  C_7
REMARK    5  A    between atoms: C_16  and  C_17
REMARK    6  A    between atoms: C_17  and  N_18
REMARK    7  A    between atoms: C_19  and  C_21
REMARK                            x       y       z     vdW  Elec       q    Type
REMARK                         _______ _______ _______ _____ _____    ______ ____
ROOT
ATOM      1  C   UNL     1      -2.645  -4.571   0.182  0.00  0.00    +0.000 A 
ATOM      2  C   UNL     1      -2.911  -5.894  -0.165  0.00  0.00    +0.000 A 
ATOM      3  C   UNL     1      -4.072  -6.239  -0.843  0.00  0.00    +0.000 A 
ATOM      4  C   UNL     1      -4.999  -5.261  -1.213  0.00  0.00    +0.000 A 
ATOM      5  C   UNL     1      -4.741  -3.929  -0.840  0.00  0.00    +0.000 A 
ATOM      6  C   UNL     1      -3.566  -3.578  -0.153  0.00  0.00    +0.000 A 
ENDROOT
BRANCH   1   8
ATOM      7  O   UNL     1      -0.834  -3.172   0.751  0.00  0.00    +0.000 OA
ATOM      8  C   UNL     1      -1.347  -4.265   0.861  0.00  0.00    +0.000 C 
BRANCH   8   9
ATOM      9  C   UNL     1      -0.721  -5.378   1.696  0.00  0.00    +0.000 C 
BRANCH   9  10
ATOM     10  N   UNL     1      -1.117  -5.307   3.083  0.00  0.00    +0.000 N 
ATOM     11  C   UNL     1      -1.798  -6.364   3.650  0.00  0.00    +0.000 C 
ATOM     12  O   UNL     1      -2.083  -7.365   2.998  0.00  0.00    +0.000 OA
ATOM     13  H   UNL     1      -0.884  -4.474   3.607  0.00  0.00    +0.000 HD
BRANCH  11  14
ATOM     14  C   UNL     1      -2.195  -6.185   5.135  0.00  0.00    +0.000 C 
ATOM     15  C   UNL     1      -2.942  -7.419   5.665  0.00  0.00    +0.000 C 
ATOM     16  C   UNL     1      -2.024  -8.637   5.788  0.00  0.00    +0.000 C 
ATOM     17  C   UNL     1      -0.762  -8.294   6.569  0.00  0.00    +0.000 C 
ATOM     18  C   UNL     1      -0.094  -7.018   6.057  0.00  0.00    +0.000 C 
ATOM     19  N   UNL     1      -1.028  -5.893   5.997  0.00  0.00    +0.000 NA
ATOM     20  H   UNL     1      -0.544  -5.058   5.677  0.00  0.00    +0.000 HD
ENDBRANCH  11  14
ENDBRANCH   9  10
ENDBRANCH   8   9
ENDBRANCH   1   8
BRANCH   4  21
ATOM     21  C   UNL     1      -6.233  -5.589  -2.031  0.00  0.00    +0.000 C 
BRANCH  21  22
ATOM     22  N   UNL     1      -7.391  -5.923  -1.236  0.00  0.00    +0.000 N 
ATOM     23  C   UNL     1      -8.598  -6.244  -1.798  0.00  0.00    +0.000 C 
ATOM     24  O   UNL     1      -8.791  -6.273  -3.012  0.00  0.00    +0.000 OA
ATOM     25  H   UNL     1      -7.398  -5.610  -0.276  0.00  0.00    +0.000 HD
BRANCH  23  26
ATOM     26  C   UNL     1      -9.652  -6.617  -0.842  0.00  0.00    +0.000 A 
ATOM     27  C   UNL     1     -10.647  -7.512  -1.206  0.00  0.00    +0.000 A 
ATOM     28  S   UNL     1     -11.763  -7.832   0.046  0.00  0.00    +0.000 S 
ATOM     29  C   UNL     1     -10.972  -6.759   1.104  0.00  0.00    +0.000 A 
ATOM     30  N   UNL     1     -11.442  -6.531   2.362  0.00  0.00    +0.000 NA
ATOM     31  C   UNL     1     -10.765  -5.673   3.039  0.00  0.00    +0.000 A 
ATOM     32  N   UNL     1      -9.644  -5.018   2.582  0.00  0.00    +0.000 N 
ATOM     33  C   UNL     1      -9.099  -5.273   1.352  0.00  0.00    +0.000 A 
ATOM     34  O   UNL     1      -8.021  -4.772   1.013  0.00  0.00    +0.000 OA
ATOM     35  C   UNL     1      -9.852  -6.192   0.524  0.00  0.00    +0.000 A 
ATOM     36  H   UNL     1      -9.135  -4.390   3.182  0.00  0.00    +0.000 HD
ENDBRANCH  23  26
ENDBRANCH  21  22
ENDBRANCH   4  21
TORSDOF 7
