REMARK  Name = 
REMARK  7 active torsions:
REMARK  status: ('A' for Active; 'I' for Inactive)
REMARK    1  A    between atoms: C_1  and  N_2
REMARK    2  A    between atoms: C_8  and  C_9
REMARK    3  A    between atoms: N_11  and  C_12
REMARK    4  A    between atoms: C_12  and  C_13
REMARK    5  A    between atoms: C_16  and  C_17
REMARK    6  A    between atoms: C_17  and  O_18
REMARK    7  A    between atoms: O_18  and  C_19
REMARK                            x       y       z     vdW  Elec       q    Type
REMARK                         _______ _______ _______ _____ _____    ______ ____
ROOT
ATOM      1  C   UNL     1       4.952  -6.535   1.966  0.00  0.00    +0.000 C 
ATOM      2  O   UNL     1       4.634  -7.648   1.555  0.00  0.00    +0.000 OA
ATOM      3  N   UNL     1       5.771  -5.688   1.270  0.00  0.00    +0.000 N 
ATOM      4  H   UNL     1       5.906  -4.742   1.604  0.00  0.00    +0.000 HD
ENDROOT
BRANCH   1  12
ATOM      5  C   UNL     1       4.192  -1.008   3.164  0.00  0.00    +0.000 C 
ATOM      6  N   UNL     1       4.071  -2.306   3.794  0.00  0.00    +0.000 N 
ATOM      7  C   UNL     1       3.658  -2.418   5.106  0.00  0.00    +0.000 A 
ATOM      8  N   UNL     1       3.526  -3.527   5.758  0.00  0.00    +0.000 NA
ATOM      9  C   UNL     1       3.826  -4.641   5.042  0.00  0.00    +0.000 A 
ATOM     10  S   UNL     1       3.666  -6.191   5.726  0.00  0.00    +0.000 S 
ATOM     11  C   UNL     1       4.164  -6.943   4.279  0.00  0.00    +0.000 A 
ATOM     12  C   UNL     1       4.492  -6.045   3.273  0.00  0.00    +0.000 A 
ATOM     13  C   UNL     1       4.271  -4.693   3.736  0.00  0.00    +0.000 A 
ATOM     14  C   UNL     1       4.425  -3.424   3.045  0.00  0.00    +0.000 A 
ATOM     15  O   UNL     1       4.865  -3.341   1.901  0.00  0.00    +0.000 OA
ENDBRANCH   1  12
BRANCH   3  16
ATOM     16  C   UNL     1       6.230  -5.961  -0.068  0.00  0.00    +0.000 C 
BRANCH  16  17
ATOM     17  C   UNL     1       7.551  -6.682  -0.073  0.00  0.00    +0.000 A 
ATOM     18  C   UNL     1       7.582  -8.082  -0.066  0.00  0.00    +0.000 A 
ATOM     19  C   UNL     1       8.797  -8.768  -0.063  0.00  0.00    +0.000 A 
ATOM     20  C   UNL     1      10.007  -8.064  -0.047  0.00  0.00    +0.000 A 
ATOM     21  C   UNL     1       9.979  -6.663  -0.060  0.00  0.00    +0.000 A 
ATOM     22  C   UNL     1       8.762  -5.976  -0.062  0.00  0.00    +0.000 A 
BRANCH  20  23
ATOM     23  C   UNL     1      11.322  -8.803   0.014  0.00  0.00    +0.000 C 
BRANCH  23  24
ATOM     24  O   UNL     1      11.792  -9.065  -1.308  0.00  0.00    +0.000 OA
BRANCH  24  25
ATOM     25  C   UNL     1      13.041  -9.661  -1.294  0.00  0.00    +0.000 A 
ATOM     26  C   UNL     1      13.595  -9.989  -2.521  0.00  0.00    +0.000 A 
ATOM     27  C   UNL     1      14.862 -10.570  -2.538  0.00  0.00    +0.000 A 
ATOM     28  C   UNL     1      15.525 -10.794  -1.336  0.00  0.00    +0.000 A 
ATOM     29  C   UNL     1      14.887 -10.438  -0.161  0.00  0.00    +0.000 A 
ATOM     30  N   UNL     1      13.662  -9.875  -0.113  0.00  0.00    +0.000 NA
ENDBRANCH  24  25
ENDBRANCH  23  24
ENDBRANCH  20  23
ENDBRANCH  16  17
ENDBRANCH   3  16
TORSDOF 6
