REMARK  Name = 
REMARK  6 active torsions:
REMARK  status: ('A' for Active; 'I' for Inactive)
REMARK    1  A    between atoms: C_1  and  C_2
REMARK    2  A    between atoms: C_2  and  O_3
REMARK    3  A    between atoms: C_2  and  C_14
REMARK    4  A    between atoms: O_3  and  C_4
REMARK    5  A    between atoms: C_7  and  C_8
REMARK    6  A    between atoms: C_12  and  N_13
REMARK                            x       y       z     vdW  Elec       q    Type
REMARK                         _______ _______ _______ _____ _____    ______ ____
ROOT
ATOM      1  C   UNL     1       0.283   0.912  -0.589  0.00  0.00    +0.000 A 
ATOM      2  N   UNL     1       0.829   2.144  -0.721  0.00  0.00    +0.000 NA
ATOM      3  C   UNL     1       0.035   3.057  -1.334  0.00  0.00    +0.000 A 
ATOM      4  C   UNL     1      -1.239   2.746  -1.791  0.00  0.00    +0.000 A 
ATOM      5  N   UNL     1      -1.782   1.498  -1.689  0.00  0.00    +0.000 NA
ATOM      6  C   UNL     1      -1.001   0.582  -1.079  0.00  0.00    +0.000 A 
ENDROOT
BRANCH   4   7
ATOM      7  C   UNL     1      -2.088   3.819  -2.378  0.00  0.00    +0.000 C 
ATOM      8  N   UNL     1      -3.346   3.443  -2.764  0.00  0.00    +0.000 N 
ATOM      9  O   UNL     1      -1.696   4.973  -2.494  0.00  0.00    +0.000 OA
ATOM     10  H   UNL     1      -3.666   2.496  -2.590  0.00  0.00    +0.000 HD
ATOM     11  H   UNL     1      -3.992   4.144  -3.095  0.00  0.00    +0.000 HD
ENDBRANCH   4   7
BRANCH   6  12
ATOM     12  N   UNL     1      -1.561  -0.685  -0.897  0.00  0.00    +0.000 N 
ATOM     13  H   UNL     1      -2.422  -0.759  -1.426  0.00  0.00    +0.000 HD
ATOM     14  H   UNL     1      -0.887  -1.423  -1.088  0.00  0.00    +0.000 HD
ENDBRANCH   6  12
BRANCH   1  15
ATOM     15  O   UNL     1       0.963  -0.040   0.141  0.00  0.00    +0.000 OA
BRANCH  15  17
ATOM     16  C   UNL     1       3.017  -0.561   1.252  0.00  0.00    +0.000 C 
ATOM     17  C   UNL     1       2.389  -0.001  -0.029  0.00  0.00    +0.000 C 
BRANCH  17  18
ATOM     18  C   UNL     1       2.780  -0.882  -1.207  0.00  0.00    +0.000 A 
ATOM     19  N   UNL     1       2.353  -2.182  -1.149  0.00  0.00    +0.000 NA
ATOM     20  C   UNL     1       2.712  -3.017  -2.146  0.00  0.00    +0.000 A 
ATOM     21  C   UNL     1       3.468  -2.624  -3.233  0.00  0.00    +0.000 A 
ATOM     22  C   UNL     1       3.884  -1.298  -3.299  0.00  0.00    +0.000 A 
ATOM     23  C   UNL     1       3.543  -0.410  -2.276  0.00  0.00    +0.000 A 
ATOM     24 CL   UNL     1       4.107   1.213  -2.407  0.00  0.00    +0.000 Cl
ENDBRANCH  17  18
ENDBRANCH  15  17
ENDBRANCH   1  15
TORSDOF 5
