REMARK  Name = 
REMARK  12 active torsions:
REMARK  status: ('A' for Active; 'I' for Inactive)
REMARK    1  A    between atoms: C_1  and  N_2
REMARK    2  A    between atoms: N_2  and  C_3
REMARK    3  A    between atoms: N_2  and  C_4
REMARK    4  A    between atoms: C_4  and  C_5
REMARK    5  A    between atoms: C_5  and  C_6
REMARK    6  A    between atoms: C_6  and  C_7
REMARK    7  A    between atoms: C_7  and  O_8
REMARK    8  A    between atoms: O_8  and  C_9
REMARK    9  A    between atoms: C_12  and  C_13
REMARK   10  A    between atoms: C_13  and  O_14
REMARK   11  A    between atoms: O_14  and  C_15
REMARK   12  A    between atoms: C_18  and  C_19
REMARK                            x       y       z     vdW  Elec       q    Type
REMARK                         _______ _______ _______ _____ _____    ______ ____
ROOT
ATOM      1  C   UNL     1       8.352  -3.576   2.474  0.00  0.00    +0.000 A 
ATOM      2  C   UNL     1       9.195  -2.505   2.762  0.00  0.00    +0.000 A 
ATOM      3  C   UNL     1      10.557  -2.723   2.990  0.00  0.00    +0.000 A 
ATOM      4  C   UNL     1      11.096  -4.014   2.921  0.00  0.00    +0.000 A 
ATOM      5  C   UNL     1      10.240  -5.090   2.657  0.00  0.00    +0.000 A 
ATOM      6  C   UNL     1       8.879  -4.868   2.429  0.00  0.00    +0.000 A 
ENDROOT
BRANCH   1   7
ATOM      7  O   UNL     1       7.013  -3.491   2.215  0.00  0.00    +0.000 OA
BRANCH   7   8
ATOM      8  C   UNL     1       6.415  -2.197   2.318  0.00  0.00    +0.000 C 
BRANCH   8   9
ATOM      9  C   UNL     1       4.917  -2.326   2.059  0.00  0.00    +0.000 C 
BRANCH   9  10
ATOM     10  C   UNL     1       4.238  -3.225   3.098  0.00  0.00    +0.000 C 
BRANCH  10  11
ATOM     11  C   UNL     1       2.740  -3.423   2.829  0.00  0.00    +0.000 C 
BRANCH  11  13
ATOM     12  C   UNL     1       2.992  -5.325   1.326  0.00  0.00    +0.000 C 
ATOM     13  N   UNL     1       2.432  -3.984   1.503  0.00  0.00    +0.000 NA
ATOM     14  C   UNL     1       0.984  -4.018   1.293  0.00  0.00    +0.000 C 
ENDBRANCH  11  13
ENDBRANCH  10  11
ENDBRANCH   9  10
ENDBRANCH   8   9
ENDBRANCH   7   8
ENDBRANCH   1   7
BRANCH   4  15
ATOM     15  C   UNL     1      12.573  -4.234   3.132  0.00  0.00    +0.000 C 
BRANCH  15  16
ATOM     16  O   UNL     1      12.826  -4.397   4.525  0.00  0.00    +0.000 OA
BRANCH  16  17
ATOM     17  C   UNL     1      14.131  -4.588   4.892  0.00  0.00    +0.000 A 
ATOM     18  C   UNL     1      15.222  -4.675   4.026  0.00  0.00    +0.000 A 
ATOM     19  C   UNL     1      16.508  -4.888   4.535  0.00  0.00    +0.000 A 
ATOM     20  C   UNL     1      16.719  -5.005   5.913  0.00  0.00    +0.000 A 
ATOM     21  C   UNL     1      15.626  -4.922   6.783  0.00  0.00    +0.000 A 
ATOM     22  C   UNL     1      14.342  -4.715   6.269  0.00  0.00    +0.000 A 
BRANCH  20  23
ATOM     23  C   UNL     1      18.104  -5.250   6.394  0.00  0.00    +0.000 C 
ATOM     24  N   UNL     1      18.407  -4.872   7.672  0.00  0.00    +0.000 N 
ATOM     25  O   UNL     1      18.958  -5.740   5.666  0.00  0.00    +0.000 OA
ATOM     26  H   UNL     1      17.815  -4.264   8.220  0.00  0.00    +0.000 HD
ATOM     27  H   UNL     1      19.379  -4.954   7.943  0.00  0.00    +0.000 HD
ENDBRANCH  20  23
ENDBRANCH  16  17
ENDBRANCH  15  16
ENDBRANCH   4  15
TORSDOF 10
