REMARK  Name = 
REMARK  7 active torsions:
REMARK  status: ('A' for Active; 'I' for Inactive)
REMARK    1  A    between atoms: C_1  and  C_2
REMARK    2  A    between atoms: C_2  and  C_3
REMARK    3  A    between atoms: C_2  and  C_14
REMARK    4  A    between atoms: C_3  and  N_4
REMARK    5  A    between atoms: N_4  and  C_5
REMARK    6  A    between atoms: C_8  and  C_9
REMARK    7  A    between atoms: C_18  and  C_19
REMARK                            x       y       z     vdW  Elec       q    Type
REMARK                         _______ _______ _______ _____ _____    ______ ____
ROOT
ATOM      1  C   UNL     1       3.102   0.515  -1.473  0.00  0.00    +0.000 C 
ENDROOT
BRANCH   1   3
ATOM      2  C   UNL     1       1.003  -0.063  -0.103  0.00  0.00    +0.000 C 
ATOM      3  C   UNL     1       2.461   0.277  -0.133  0.00  0.00    +0.000 C 
BRANCH   3   4
ATOM      4  C   UNL     1       3.076   0.955   1.016  0.00  0.00    +0.000 A 
ATOM      5  C   UNL     1       4.358   0.609   1.452  0.00  0.00    +0.000 A 
ATOM      6  C   UNL     1       4.998   1.371   2.432  0.00  0.00    +0.000 A 
ATOM      7  C   UNL     1       4.374   2.504   2.956  0.00  0.00    +0.000 A 
ATOM      8  C   UNL     1       3.092   2.867   2.524  0.00  0.00    +0.000 A 
ATOM      9  C   UNL     1       2.433   2.057   1.590  0.00  0.00    +0.000 A 
BRANCH   8  10
ATOM     10  C   UNL     1       2.431   4.145   2.973  0.00  0.00    +0.000 C 
ATOM     11  F   UNL     1       3.225   4.928   3.753  0.00  0.00    +0.000 F 
ATOM     12  F   UNL     1       2.068   4.923   1.914  0.00  0.00    +0.000 F 
ATOM     13  F   UNL     1       1.291   3.929   3.684  0.00  0.00    +0.000 F 
ENDBRANCH   8  10
ENDBRANCH   3   4
ENDBRANCH   1   3
BRANCH   1  14
ATOM     14  N   UNL     1       2.612   1.799  -1.969  0.00  0.00    +0.000 N 
ATOM     15  H   UNL     1       2.645   2.511  -1.240  0.00  0.00    +0.000 HD
BRANCH  14  16
ATOM     16  C   UNL     1       3.174   2.285  -3.159  0.00  0.00    +0.000 A 
ATOM     17  C   UNL     1       3.253   3.667  -3.364  0.00  0.00    +0.000 A 
ATOM     18  C   UNL     1       3.770   4.179  -4.555  0.00  0.00    +0.000 A 
ATOM     19  C   UNL     1       4.169   3.282  -5.534  0.00  0.00    +0.000 A 
ATOM     20  N   UNL     1       4.063   1.930  -5.410  0.00  0.00    +0.000 NA
ATOM     21  C   UNL     1       3.554   1.481  -4.237  0.00  0.00    +0.000 A 
BRANCH  19  22
ATOM     22  C   UNL     1       4.754   3.793  -6.814  0.00  0.00    +0.000 C 
ATOM     23  N   UNL     1       5.109   2.835  -7.724  0.00  0.00    +0.000 N 
ATOM     24  O   UNL     1       4.914   4.989  -7.039  0.00  0.00    +0.000 OA
ATOM     25  H   UNL     1       4.966   1.856  -7.502  0.00  0.00    +0.000 HD
ATOM     26  H   UNL     1       5.518   3.110  -8.604  0.00  0.00    +0.000 HD
ENDBRANCH  19  22
ENDBRANCH  14  16
ENDBRANCH   1  14
TORSDOF 6
