REMARK  Name = 
REMARK  8 active torsions:
REMARK  status: ('A' for Active; 'I' for Inactive)
REMARK    1  A    between atoms: C_1  and  C_2
REMARK    2  A    between atoms: C_2  and  C_3
REMARK    3  A    between atoms: C_7  and  C_8
REMARK    4  A    between atoms: C_8  and  C_9
REMARK    5  A    between atoms: C_9  and  N_10
REMARK    6  A    between atoms: N_10  and  C_11
REMARK    7  A    between atoms: C_14  and  C_15
REMARK    8  A    between atoms: C_23  and  O_24
REMARK                            x       y       z     vdW  Elec       q    Type
REMARK                         _______ _______ _______ _____ _____    ______ ____
ROOT
ATOM      1  C   UNL     1       2.973   0.483   1.379  0.00  0.00    +0.000 A 
ATOM      2  C   UNL     1       2.729   1.756   1.915  0.00  0.00    +0.000 A 
ATOM      3  C   UNL     1       3.044   2.053   3.246  0.00  0.00    +0.000 A 
ATOM      4  C   UNL     1       3.598   1.079   4.079  0.00  0.00    +0.000 A 
ATOM      5  C   UNL     1       3.864  -0.199   3.583  0.00  0.00    +0.000 A 
ATOM      6  C   UNL     1       3.571  -0.457   2.231  0.00  0.00    +0.000 A 
ENDROOT
BRANCH   1   8
ATOM      7  C   UNL     1       0.957   0.186  -0.031  0.00  0.00    +0.000 C 
ATOM      8  C   UNL     1       2.503   0.098  -0.045  0.00  0.00    +0.000 C 
ATOM      9  C   UNL     1       3.105   1.070  -1.094  0.00  0.00    +0.000 C 
ATOM     10  C   UNL     1       2.756   0.704  -2.539  0.00  0.00    +0.000 C 
ATOM     11  C   UNL     1       3.136  -0.734  -2.883  0.00  0.00    +0.000 C 
ATOM     12  C   UNL     1       2.555  -1.729  -1.889  0.00  0.00    +0.000 C 
ATOM     13  C   UNL     1       2.912  -1.354  -0.454  0.00  0.00    +0.000 C 
BRANCH  11  14
ATOM     14  O   UNL     1       2.676  -1.050  -4.192  0.00  0.00    +0.000 OA
ATOM     15  H   UNL     1       1.703  -1.031  -4.184  0.00  0.00    +0.000 HD
ENDBRANCH  11  14
ENDBRANCH   1   8
BRANCH   5  16
ATOM     16  C   UNL     1       4.402  -1.278   4.514  0.00  0.00    +0.000 C 
BRANCH  16  17
ATOM     17  C   UNL     1       4.671  -2.611   3.804  0.00  0.00    +0.000 C 
BRANCH  17  18
ATOM     18  N   UNL     1       5.134  -3.679   4.691  0.00  0.00    +0.000 N 
ATOM     19  H   UNL     1       4.529  -3.792   5.503  0.00  0.00    +0.000 HD
BRANCH  18  20
ATOM     20  C   UNL     1       5.367  -4.917   4.050  0.00  0.00    +0.000 A 
ATOM     21  C   UNL     1       5.820  -5.025   2.728  0.00  0.00    +0.000 A 
ATOM     22  C   UNL     1       6.110  -6.267   2.166  0.00  0.00    +0.000 A 
ATOM     23  C   UNL     1       5.970  -7.391   2.961  0.00  0.00    +0.000 A 
ATOM     24  N   UNL     1       5.567  -7.353   4.261  0.00  0.00    +0.000 NA
ATOM     25  C   UNL     1       5.297  -6.120   4.764  0.00  0.00    +0.000 A 
BRANCH  23  26
ATOM     26  C   UNL     1       6.308  -8.734   2.392  0.00  0.00    +0.000 C 
ATOM     27  N   UNL     1       6.155  -9.787   3.249  0.00  0.00    +0.000 N 
ATOM     28  O   UNL     1       6.700  -8.890   1.240  0.00  0.00    +0.000 OA
ATOM     29  H   UNL     1       5.866  -9.613   4.203  0.00  0.00    +0.000 HD
ATOM     30  H   UNL     1       6.409 -10.716   2.946  0.00  0.00    +0.000 HD
ENDBRANCH  23  26
ENDBRANCH  18  20
ENDBRANCH  17  18
ENDBRANCH  16  17
ENDBRANCH   5  16
TORSDOF 7
