REMARK  Name = 
REMARK  5 active torsions:
REMARK  status: ('A' for Active; 'I' for Inactive)
REMARK    1  A    between atoms: C_1  and  C_2
REMARK    2  A    between atoms: C_2  and  C_3
REMARK    3  A    between atoms: C_2  and  N_4
REMARK    4  A    between atoms: C_2  and  C_14
REMARK    5  A    between atoms: C_8  and  C_9
REMARK                            x       y       z     vdW  Elec       q    Type
REMARK                         _______ _______ _______ _____ _____    ______ ____
ROOT
ATOM      1  N   UNL     1       2.809  -0.362   1.358  0.00  0.00    +0.000 N 
ATOM      2  C   UNL     1       2.333   0.284   2.502  0.00  0.00    +0.000 A 
ATOM      3  C   UNL     1       2.645  -0.193   3.784  0.00  0.00    +0.000 A 
ATOM      4  N   UNL     1       2.179   0.348   4.948  0.00  0.00    +0.000 NA
ATOM      5  C   UNL     1       1.366   1.427   4.779  0.00  0.00    +0.000 A 
ATOM      6  C   UNL     1       1.062   1.924   3.529  0.00  0.00    +0.000 A 
ATOM      7  N   UNL     1       1.527   1.348   2.388  0.00  0.00    +0.000 NA
ATOM      8  H   UNL     1       3.817  -0.482   1.430  0.00  0.00    +0.000 HD
ENDROOT
BRANCH   5   9
ATOM      9  C   UNL     1       0.765   2.072   5.979  0.00  0.00    +0.000 C 
ATOM     10  N   UNL     1       1.056   1.489   7.183  0.00  0.00    +0.000 N 
ATOM     11  O   UNL     1       0.038   3.053   5.900  0.00  0.00    +0.000 OA
ATOM     12  H   UNL     1       1.627   0.650   7.224  0.00  0.00    +0.000 HD
ATOM     13  H   UNL     1       0.636   1.861   8.023  0.00  0.00    +0.000 HD
ENDBRANCH   5   9
BRANCH   1  15
ATOM     14  C   UNL     1       0.918   0.131  -0.220  0.00  0.00    +0.000 C 
ATOM     15  C   UNL     1       2.444   0.140   0.004  0.00  0.00    +0.000 C 
ATOM     16  C   UNL     1       3.023   1.565  -0.185  0.00  0.00    +0.000 C 
BRANCH  15  17
ATOM     17  C   UNL     1       3.058  -0.821  -1.057  0.00  0.00    +0.000 A 
ATOM     18  C   UNL     1       3.395  -0.358  -2.347  0.00  0.00    +0.000 A 
ATOM     19  C   UNL     1       3.997  -1.191  -3.293  0.00  0.00    +0.000 A 
ATOM     20  C   UNL     1       4.249  -2.519  -2.980  0.00  0.00    +0.000 A 
ATOM     21 CL   UNL     1       5.030  -3.531  -4.131  0.00  0.00    +0.000 Cl
ATOM     22  C   UNL     1       3.872  -3.027  -1.740  0.00  0.00    +0.000 A 
ATOM     23  C   UNL     1       3.270  -2.188  -0.791  0.00  0.00    +0.000 A 
ENDBRANCH  15  17
ENDBRANCH   1  15
TORSDOF 3
