REMARK  Name = 
REMARK  4 active torsions:
REMARK  status: ('A' for Active; 'I' for Inactive)
REMARK    1  A    between atoms: C_2  and  C_4
REMARK    2  A    between atoms: N_8  and  C_9
REMARK    3  A    between atoms: C_9  and  C_10
REMARK    4  A    between atoms: C_14  and  C_15
REMARK                            x       y       z     vdW  Elec       q    Type
REMARK                         _______ _______ _______ _____ _____    ______ ____
ROOT
ATOM      1  C   UNL     1       6.463   0.174   1.444  0.00  0.00    +0.000 A 
ATOM      2  C   UNL     1       5.711  -0.452   2.406  0.00  0.00    +0.000 A 
ATOM      3  N   UNL     1       5.946  -1.712   2.833  0.00  0.00    +0.000 NA
ATOM      4  C   UNL     1       6.963  -2.377   2.264  0.00  0.00    +0.000 A 
ATOM      5  N   UNL     1       7.262  -3.668   2.672  0.00  0.00    +0.000 N 
ATOM      6  N   UNL     1       7.734  -1.862   1.294  0.00  0.00    +0.000 NA
ATOM      7  C   UNL     1       7.466  -0.593   0.900  0.00  0.00    +0.000 A 
ATOM      8  H   UNL     1       7.802  -4.096   1.928  0.00  0.00    +0.000 HD
ENDROOT
BRANCH   1  10
ATOM      9  N   UNL     1       5.611   2.407   1.860  0.00  0.00    +0.000 N 
ATOM     10  C   UNL     1       6.210   1.545   0.982  0.00  0.00    +0.000 C 
ATOM     11  O   UNL     1       6.547   1.908  -0.137  0.00  0.00    +0.000 OA
ATOM     12  H   UNL     1       5.519   3.370   1.554  0.00  0.00    +0.000 HD
ATOM     13  H   UNL     1       5.545   2.238   2.854  0.00  0.00    +0.000 HD
ENDBRANCH   1  10
BRANCH   5  14
ATOM     14  C   UNL     1       6.104  -4.417   3.120  0.00  0.00    +0.000 C 
BRANCH  14  15
ATOM     15  C   UNL     1       6.514  -5.797   3.561  0.00  0.00    +0.000 A 
ATOM     16  C   UNL     1       5.960  -6.929   2.982  0.00  0.00    +0.000 A 
ATOM     17  N   UNL     1       6.259  -8.189   3.360  0.00  0.00    +0.000 NA
ATOM     18  C   UNL     1       7.156  -8.327   4.369  0.00  0.00    +0.000 A 
ATOM     19  C   UNL     1       7.779  -7.275   5.046  0.00  0.00    +0.000 A 
ATOM     20  C   UNL     1       7.426  -5.988   4.610  0.00  0.00    +0.000 A 
BRANCH  19  21
ATOM     21  C   UNL     1       8.736  -7.500   6.147  0.00  0.00    +0.000 A 
ATOM     22  C   UNL     1       9.814  -6.636   6.392  0.00  0.00    +0.000 A 
ATOM     23  C   UNL     1      10.694  -6.871   7.449  0.00  0.00    +0.000 A 
ATOM     24  C   UNL     1      10.484  -7.983   8.244  0.00  0.00    +0.000 A 
ATOM     25  N   UNL     1       9.471  -8.850   8.053  0.00  0.00    +0.000 NA
ATOM     26  C   UNL     1       8.630  -8.587   7.022  0.00  0.00    +0.000 A 
ENDBRANCH  19  21
ENDBRANCH  14  15
ENDBRANCH   5  14
TORSDOF 4
