REMARK  Name = 
REMARK  4 active torsions:
REMARK  status: ('A' for Active; 'I' for Inactive)
REMARK    1  A    between atoms: C_2  and  C_4
REMARK    2  A    between atoms: N_8  and  C_9
REMARK    3  A    between atoms: C_9  and  C_10
REMARK    4  A    between atoms: C_14  and  C_15
REMARK                            x       y       z     vdW  Elec       q    Type
REMARK                         _______ _______ _______ _____ _____    ______ ____
ROOT
ATOM      1  C   UNL     1       5.220   1.868   5.504  0.00  0.00    +0.000 C 
ATOM      2  C   UNL     1       5.092   0.629   6.381  0.00  0.00    +0.000 C 
ATOM      3  C   UNL     1       3.935   1.561   6.248  0.00  0.00    +0.000 C 
ENDROOT
BRANCH   1   8
ATOM      4  C   UNL     1       3.651   3.517   0.820  0.00  0.00    +0.000 A 
ATOM      5  C   UNL     1       2.894   3.361   1.978  0.00  0.00    +0.000 A 
ATOM      6  C   UNL     1       3.474   2.759   3.099  0.00  0.00    +0.000 A 
ATOM      7  C   UNL     1       4.790   2.317   3.039  0.00  0.00    +0.000 A 
ATOM      8  N   UNL     1       5.399   1.587   4.066  0.00  0.00    +0.000 N 
ATOM      9  N   UNL     1       5.537   2.476   1.925  0.00  0.00    +0.000 NA
ATOM     10  C   UNL     1       4.959   3.063   0.845  0.00  0.00    +0.000 A 
ATOM     11  H   UNL     1       6.367   1.473   3.767  0.00  0.00    +0.000 HD
BRANCH   4  13
ATOM     12  N   UNL     1       2.023   4.907  -0.335  0.00  0.00    +0.000 N 
ATOM     13  C   UNL     1       3.106   4.081  -0.432  0.00  0.00    +0.000 C 
ATOM     14  O   UNL     1       3.615   3.830  -1.518  0.00  0.00    +0.000 OA
ATOM     15  H   UNL     1       1.707   5.341  -1.193  0.00  0.00    +0.000 HD
ATOM     16  H   UNL     1       1.722   5.320   0.535  0.00  0.00    +0.000 HD
ENDBRANCH   4  13
ENDBRANCH   1   8
BRANCH   1  17
ATOM     17  C   UNL     1       6.086   3.024   5.993  0.00  0.00    +0.000 A 
ATOM     18  C   UNL     1       7.364   2.818   6.534  0.00  0.00    +0.000 A 
ATOM     19  C   UNL     1       8.193   3.890   6.860  0.00  0.00    +0.000 A 
ATOM     20  C   UNL     1       7.770   5.197   6.620  0.00  0.00    +0.000 A 
ATOM     21  C   UNL     1       6.511   5.461   6.059  0.00  0.00    +0.000 A 
ATOM     22  C   UNL     1       5.676   4.358   5.797  0.00  0.00    +0.000 A 
BRANCH  21  23
ATOM     23  C   UNL     1       6.113   6.824   5.639  0.00  0.00    +0.000 A 
ATOM     24  C   UNL     1       7.050   7.692   5.041  0.00  0.00    +0.000 A 
ATOM     25  C   UNL     1       6.677   8.943   4.539  0.00  0.00    +0.000 A 
ATOM     26  C   UNL     1       5.353   9.353   4.619  0.00  0.00    +0.000 A 
ATOM     27  C   UNL     1       4.419   8.517   5.215  0.00  0.00    +0.000 A 
ATOM     28  F   UNL     1       3.137   8.901   5.277  0.00  0.00    +0.000 F 
ATOM     29  C   UNL     1       4.785   7.274   5.730  0.00  0.00    +0.000 A 
ENDBRANCH  21  23
ENDBRANCH   1  17
TORSDOF 4
