REMARK  Name = 
REMARK  7 active torsions:
REMARK  status: ('A' for Active; 'I' for Inactive)
REMARK    1  A    between atoms: C_1  and  C_2
REMARK    2  A    between atoms: C_2  and  N_3
REMARK    3  A    between atoms: C_2  and  C_16
REMARK    4  A    between atoms: C_4  and  C_6
REMARK    5  A    between atoms: C_19  and  C_20
REMARK    6  A    between atoms: C_20  and  O_21
REMARK    7  A    between atoms: O_21  and  C_22
REMARK                            x       y       z     vdW  Elec       q    Type
REMARK                         _______ _______ _______ _____ _____    ______ ____
ROOT
ATOM      1  C   UNL     1       1.567  -0.440   1.126  0.00  0.00    +0.000 C 
ATOM      2  C   UNL     1       2.382   0.005  -0.095  0.00  0.00    +0.000 C 
ENDROOT
BRANCH   2   3
ATOM      3  C   UNL     1       3.007   1.359   0.205  0.00  0.00    +0.000 A 
ATOM      4  C   UNL     1       2.636   2.460  -0.578  0.00  0.00    +0.000 A 
ATOM      5  C   UNL     1       2.971   3.755  -0.184  0.00  0.00    +0.000 A 
ATOM      6  C   UNL     1       3.718   3.972   0.981  0.00  0.00    +0.000 A 
ATOM      7  C   UNL     1       4.161   2.871   1.724  0.00  0.00    +0.000 A 
ATOM      8  C   UNL     1       3.820   1.574   1.332  0.00  0.00    +0.000 A 
BRANCH   6   9
ATOM      9  C   UNL     1       4.014   5.380   1.435  0.00  0.00    +0.000 C 
BRANCH   9  10
ATOM     10  O   UNL     1       2.951   5.852   2.270  0.00  0.00    +0.000 OA
BRANCH  10  11
ATOM     11  C   UNL     1       3.208   7.127   2.739  0.00  0.00    +0.000 A 
ATOM     12  C   UNL     1       2.249   7.723   3.542  0.00  0.00    +0.000 A 
ATOM     13  C   UNL     1       2.502   9.005   4.029  0.00  0.00    +0.000 A 
ATOM     14  C   UNL     1       3.698   9.638   3.699  0.00  0.00    +0.000 A 
ATOM     15  C   UNL     1       4.593   8.959   2.893  0.00  0.00    +0.000 A 
ATOM     16  N   UNL     1       4.374   7.724   2.405  0.00  0.00    +0.000 NA
ENDBRANCH  10  11
ENDBRANCH   9  10
ENDBRANCH   6   9
ENDBRANCH   2   3
BRANCH   2  17
ATOM     17  N   UNL     1       3.383  -0.977  -0.456  0.00  0.00    +0.000 N 
ATOM     18  C   UNL     1       3.126  -2.050  -1.264  0.00  0.00    +0.000 C 
ATOM     19  O   UNL     1       2.083  -2.179  -1.896  0.00  0.00    +0.000 OA
ATOM     20  H   UNL     1       4.166  -1.038   0.183  0.00  0.00    +0.000 HD
BRANCH  18  21
ATOM     21  C   UNL     1       4.206  -3.038  -1.369  0.00  0.00    +0.000 A 
ATOM     22  C   UNL     1       4.419  -3.759  -2.535  0.00  0.00    +0.000 A 
ATOM     23  S   UNL     1       5.708  -4.876  -2.409  0.00  0.00    +0.000 S 
ATOM     24  C   UNL     1       5.980  -4.466  -0.779  0.00  0.00    +0.000 A 
ATOM     25  N   UNL     1       6.918  -5.108  -0.030  0.00  0.00    +0.000 NA
ATOM     26  C   UNL     1       6.982  -4.716   1.201  0.00  0.00    +0.000 A 
ATOM     27  N   UNL     1       6.209  -3.722   1.744  0.00  0.00    +0.000 N 
ATOM     28  C   UNL     1       5.303  -3.003   1.010  0.00  0.00    +0.000 A 
ATOM     29  O   UNL     1       4.719  -2.042   1.499  0.00  0.00    +0.000 OA
ATOM     30  C   UNL     1       5.143  -3.451  -0.359  0.00  0.00    +0.000 A 
ATOM     31  H   UNL     1       6.332  -3.428   2.702  0.00  0.00    +0.000 HD
ENDBRANCH  18  21
ENDBRANCH   2  17
TORSDOF 6
