REMARK  Name = 
REMARK  9 active torsions:
REMARK  status: ('A' for Active; 'I' for Inactive)
REMARK    1  A    between atoms: C_1  and  O_2
REMARK    2  A    between atoms: O_2  and  C_3
REMARK    3  A    between atoms: C_10  and  C_11
REMARK    4  A    between atoms: N_13  and  C_14
REMARK    5  A    between atoms: C_14  and  C_15
REMARK    6  A    between atoms: C_18  and  C_19
REMARK    7  A    between atoms: C_19  and  O_20
REMARK    8  A    between atoms: O_20  and  C_21
REMARK    9  A    between atoms: C_21  and  C_22
REMARK                            x       y       z     vdW  Elec       q    Type
REMARK                         _______ _______ _______ _____ _____    ______ ____
ROOT
ATOM      1  C   UNL     1       3.107  -3.177  -0.745  0.00  0.00    +0.000 C 
ENDROOT
BRANCH   1   2
ATOM      2  C   UNL     1       2.055  -3.338   0.323  0.00  0.00    +0.000 A 
ATOM      3  C   UNL     1       1.481  -4.589   0.584  0.00  0.00    +0.000 A 
ATOM      4  C   UNL     1       0.455  -4.720   1.527  0.00  0.00    +0.000 A 
ATOM      5  C   UNL     1      -0.029  -3.600   2.216  0.00  0.00    +0.000 A 
ATOM      6  C   UNL     1       0.558  -2.353   1.968  0.00  0.00    +0.000 A 
ATOM      7  C   UNL     1       1.587  -2.222   1.031  0.00  0.00    +0.000 A 
BRANCH   5   8
ATOM      8  C   UNL     1      -1.184  -3.725   3.178  0.00  0.00    +0.000 C 
BRANCH   8   9
ATOM      9  O   UNL     1      -0.827  -4.584   4.253  0.00  0.00    +0.000 OA
BRANCH   9  10
ATOM     10  C   UNL     1      -1.863  -4.652   5.231  0.00  0.00    +0.000 C 
BRANCH  10  11
ATOM     11  C   UNL     1      -1.416  -5.546   6.356  0.00  0.00    +0.000 A 
ATOM     12  C   UNL     1      -0.275  -5.217   7.104  0.00  0.00    +0.000 A 
ATOM     13  C   UNL     1       0.144  -6.032   8.156  0.00  0.00    +0.000 A 
ATOM     14  C   UNL     1      -0.574  -7.184   8.472  0.00  0.00    +0.000 A 
ATOM     15  C   UNL     1      -1.709  -7.521   7.737  0.00  0.00    +0.000 A 
ATOM     16  C   UNL     1      -2.130  -6.705   6.684  0.00  0.00    +0.000 A 
ENDBRANCH  10  11
ENDBRANCH   9  10
ENDBRANCH   8   9
ENDBRANCH   5   8
ENDBRANCH   1   2
BRANCH   1  19
ATOM     17  C   UNL     1       3.243  -2.612  -3.139  0.00  0.00    +0.000 C 
ATOM     18  O   UNL     1       4.470  -2.688  -3.116  0.00  0.00    +0.000 OA
ATOM     19  N   UNL     1       2.501  -2.841  -2.012  0.00  0.00    +0.000 N 
ATOM     20  H   UNL     1       1.492  -2.817  -2.055  0.00  0.00    +0.000 HD
BRANCH  17  28
ATOM     21  C   UNL     1      -0.096  -2.302  -3.941  0.00  0.00    +0.000 A 
ATOM     22  N   UNL     1      -1.297  -2.041  -4.497  0.00  0.00    +0.000 NA
ATOM     23  C   UNL     1      -1.325  -1.611  -5.762  0.00  0.00    +0.000 A 
ATOM     24  N   UNL     1      -0.283  -1.416  -6.564  0.00  0.00    +0.000 NA
ATOM     25  C   UNL     1       0.893  -1.682  -5.971  0.00  0.00    +0.000 A 
ATOM     26  S   UNL     1       2.332  -1.502  -6.852  0.00  0.00    +0.000 S 
ATOM     27  C   UNL     1       3.269  -1.963  -5.511  0.00  0.00    +0.000 A 
ATOM     28  C   UNL     1       2.523  -2.251  -4.373  0.00  0.00    +0.000 A 
ATOM     29  C   UNL     1       1.096  -2.113  -4.662  0.00  0.00    +0.000 A 
BRANCH  21  31
ATOM     30  C   UNL     1      -1.343  -2.927  -2.046  0.00  0.00    +0.000 C 
ATOM     31  O   UNL     1      -0.059  -2.774  -2.645  0.00  0.00    +0.000 OA
ENDBRANCH  21  31
ENDBRANCH  17  28
ENDBRANCH   1  19
TORSDOF 8
