REMARK  Name = 
REMARK  6 active torsions:
REMARK  status: ('A' for Active; 'I' for Inactive)
REMARK    1  A    between atoms: N_1  and  C_2
REMARK    2  A    between atoms: C_2  and  C_3
REMARK    3  A    between atoms: C_6  and  O_7
REMARK    4  A    between atoms: O_7  and  C_8
REMARK    5  A    between atoms: C_8  and  C_9
REMARK    6  A    between atoms: C_12  and  C_13
REMARK                            x       y       z     vdW  Elec       q    Type
REMARK                         _______ _______ _______ _____ _____    ______ ____
ROOT
ATOM      1  C   UNL     1       3.399   6.089   1.686  0.00  0.00    +0.000 C 
ENDROOT
BRANCH   1   2
ATOM      2  C   UNL     1       3.794   7.286   2.527  0.00  0.00    +0.000 A 
ATOM      3  C   UNL     1       3.862   8.549   1.916  0.00  0.00    +0.000 A 
ATOM      4  C   UNL     1       4.143   9.691   2.668  0.00  0.00    +0.000 A 
ATOM      5  C   UNL     1       4.342   9.592   4.048  0.00  0.00    +0.000 A 
ATOM      6  C   UNL     1       4.280   8.337   4.667  0.00  0.00    +0.000 A 
ATOM      7  C   UNL     1       4.000   7.192   3.910  0.00  0.00    +0.000 A 
BRANCH   5   8
ATOM      8  C   UNL     1       4.626  10.840   4.804  0.00  0.00    +0.000 C 
ATOM      9  N   UNL     1       4.306  10.858   6.133  0.00  0.00    +0.000 N 
ATOM     10  O   UNL     1       5.089  11.834   4.258  0.00  0.00    +0.000 OA
ATOM     11  H   UNL     1       3.705  10.167   6.557  0.00  0.00    +0.000 HD
ATOM     12  H   UNL     1       4.398  11.752   6.599  0.00  0.00    +0.000 HD
ENDBRANCH   5   8
ENDBRANCH   1   2
BRANCH   1  13
ATOM     13  O   UNL     1       3.984   4.873   2.164  0.00  0.00    +0.000 OA
BRANCH  13  17
ATOM     14  C   UNL     1       2.978   1.643  -0.207  0.00  0.00    +0.000 A 
ATOM     15  C   UNL     1       3.831   1.469   0.886  0.00  0.00    +0.000 A 
ATOM     16  C   UNL     1       4.164   2.565   1.686  0.00  0.00    +0.000 A 
ATOM     17  C   UNL     1       3.627   3.800   1.366  0.00  0.00    +0.000 A 
ATOM     18  N   UNL     1       2.788   4.000   0.327  0.00  0.00    +0.000 NA
ATOM     19  C   UNL     1       2.487   2.924  -0.432  0.00  0.00    +0.000 A 
BRANCH  14  20
ATOM     20  C   UNL     1       2.585   0.508  -1.108  0.00  0.00    +0.000 C 
BRANCH  20  21
ATOM     21  N   UNL     1       3.004   0.754  -2.482  0.00  0.00    +0.000 NA
ATOM     22  H   UNL     1       2.775  -0.055  -3.056  0.00  0.00    +0.000 HD
ATOM     23  H   UNL     1       4.019   0.848  -2.511  0.00  0.00    +0.000 HD
ENDBRANCH  20  21
ENDBRANCH  14  20
ENDBRANCH  13  17
ENDBRANCH   1  13
TORSDOF 6
