REMARK  Name = 
REMARK  4 active torsions:
REMARK  status: ('A' for Active; 'I' for Inactive)
REMARK    1  A    between atoms: C_1  and  C_2
REMARK    2  A    between atoms: C_2  and  N_3
REMARK    3  A    between atoms: C_2  and  C_13
REMARK    4  A    between atoms: C_7  and  C_8
REMARK                            x       y       z     vdW  Elec       q    Type
REMARK                         _______ _______ _______ _____ _____    ______ ____
ROOT
ATOM      1  N   UNL     1       2.846  -1.354  -0.269  0.00  0.00    +0.000 N 
ATOM      2  C   UNL     1       3.010  -2.157   0.879  0.00  0.00    +0.000 A 
ATOM      3  C   UNL     1       3.339  -3.517   0.747  0.00  0.00    +0.000 A 
ATOM      4  N   UNL     1       3.525  -4.375   1.792  0.00  0.00    +0.000 NA
ATOM      5  C   UNL     1       3.364  -3.807   3.017  0.00  0.00    +0.000 A 
ATOM      6  C   UNL     1       3.039  -2.470   3.168  0.00  0.00    +0.000 A 
ATOM      7  N   UNL     1       2.846  -1.634   2.112  0.00  0.00    +0.000 NA
ATOM      8  H   UNL     1       3.705  -1.400  -0.813  0.00  0.00    +0.000 HD
ENDROOT
BRANCH   5   9
ATOM      9  C   UNL     1       3.541  -4.657   4.229  0.00  0.00    +0.000 C 
ATOM     10  N   UNL     1       3.803  -5.984   4.014  0.00  0.00    +0.000 N 
ATOM     11  O   UNL     1       3.452  -4.200   5.362  0.00  0.00    +0.000 OA
ATOM     12  H   UNL     1       3.857  -6.353   3.071  0.00  0.00    +0.000 HD
ATOM     13  H   UNL     1       3.913  -6.598   4.806  0.00  0.00    +0.000 HD
ENDBRANCH   5   9
BRANCH   1  15
ATOM     14  C   UNL     1       0.920   0.161   0.061  0.00  0.00    +0.000 C 
ATOM     15  C   UNL     1       2.446   0.038  -0.012  0.00  0.00    +0.000 C 
BRANCH  15  16
ATOM     16  C   UNL     1       2.995   0.959  -1.099  0.00  0.00    +0.000 A 
ATOM     17  C   UNL     1       3.914   1.960  -0.740  0.00  0.00    +0.000 A 
ATOM     18  C   UNL     1       4.352   2.900  -1.675  0.00  0.00    +0.000 A 
ATOM     19  C   UNL     1       3.893   2.848  -2.991  0.00  0.00    +0.000 A 
ATOM     20 CL   UNL     1       4.446   4.069  -4.081  0.00  0.00    +0.000 Cl
ATOM     21  C   UNL     1       3.007   1.836  -3.377  0.00  0.00    +0.000 A 
ATOM     22 CL   UNL     1       2.406   1.706  -4.992  0.00  0.00    +0.000 Cl
ATOM     23  C   UNL     1       2.564   0.895  -2.435  0.00  0.00    +0.000 A 
ENDBRANCH  15  16
ENDBRANCH   1  15
TORSDOF 3
