REMARK  Name = 
REMARK  7 active torsions:
REMARK  status: ('A' for Active; 'I' for Inactive)
REMARK    1  A    between atoms: C_2  and  C_4
REMARK    2  A    between atoms: C_7  and  N_8
REMARK    3  A    between atoms: N_8  and  C_9
REMARK    4  A    between atoms: C_9  and  C_10
REMARK    5  A    between atoms: C_10  and  C_13
REMARK    6  A    between atoms: C_17  and  O_18
REMARK    7  A    between atoms: O_18  and  C_19
REMARK                            x       y       z     vdW  Elec       q    Type
REMARK                         _______ _______ _______ _____ _____    ______ ____
ROOT
ATOM      1  C   UNL     1       5.021   3.216   5.249  0.00  0.00    +0.000 C 
ENDROOT
BRANCH   1   2
ATOM      2  C   UNL     1       6.008   4.055   6.106  0.00  0.00    +0.000 C 
ATOM      3  F   UNL     1       7.256   3.508   6.000  0.00  0.00    +0.000 F 
ATOM      4  F   UNL     1       6.111   5.297   5.538  0.00  0.00    +0.000 F 
BRANCH   2   5
ATOM      5  C   UNL     1       5.541   4.118   7.550  0.00  0.00    +0.000 A 
ATOM      6  C   UNL     1       5.907   3.109   8.454  0.00  0.00    +0.000 A 
ATOM      7  C   UNL     1       5.446   3.137   9.770  0.00  0.00    +0.000 A 
ATOM      8  C   UNL     1       4.622   4.178  10.205  0.00  0.00    +0.000 A 
ATOM      9  C   UNL     1       4.265   5.200   9.328  0.00  0.00    +0.000 A 
ATOM     10  C   UNL     1       4.722   5.168   8.006  0.00  0.00    +0.000 A 
BRANCH   9  11
ATOM     11  O   UNL     1       3.527   6.302   9.689  0.00  0.00    +0.000 OA
BRANCH  11  12
ATOM     12  C   UNL     1       2.539   6.157  10.732  0.00  0.00    +0.000 C 
ATOM     13  C   UNL     1       1.764   7.434  11.097  0.00  0.00    +0.000 C 
ATOM     14  C   UNL     1       2.084   7.047  12.535  0.00  0.00    +0.000 C 
ATOM     15  O   UNL     1       3.067   6.084  12.089  0.00  0.00    +0.000 OA
ENDBRANCH  11  12
ENDBRANCH   9  11
ENDBRANCH   2   5
ENDBRANCH   1   2
BRANCH   1  16
ATOM     16  N   UNL     1       5.398   3.119   3.827  0.00  0.00    +0.000 N 
ATOM     17  H   UNL     1       5.842   3.953   3.442  0.00  0.00    +0.000 HD
BRANCH  16  21
ATOM     18  C   UNL     1       3.210   0.802   1.055  0.00  0.00    +0.000 A 
ATOM     19  C   UNL     1       2.749   0.928   2.366  0.00  0.00    +0.000 A 
ATOM     20  C   UNL     1       3.456   1.715   3.289  0.00  0.00    +0.000 A 
ATOM     21  C   UNL     1       4.610   2.415   2.920  0.00  0.00    +0.000 A 
ATOM     22  C   UNL     1       5.062   2.270   1.600  0.00  0.00    +0.000 A 
ATOM     23  C   UNL     1       4.376   1.469   0.674  0.00  0.00    +0.000 A 
BRANCH  18  25
ATOM     24  N   UNL     1       1.179  -0.267   0.240  0.00  0.00    +0.000 N 
ATOM     25  C   UNL     1       2.523  -0.071   0.070  0.00  0.00    +0.000 C 
ATOM     26  O   UNL     1       3.119  -0.577  -0.871  0.00  0.00    +0.000 OA
ATOM     27  H   UNL     1       0.707  -0.791  -0.485  0.00  0.00    +0.000 HD
ATOM     28  H   UNL     1       0.618   0.322   0.838  0.00  0.00    +0.000 HD
ENDBRANCH  18  25
ENDBRANCH  16  21
ENDBRANCH   1  16
TORSDOF 7
