REMARK  Name = 
REMARK  4 active torsions:
REMARK  status: ('A' for Active; 'I' for Inactive)
REMARK    1  A    between atoms: N_1  and  C_2
REMARK    2  A    between atoms: C_2  and  C_3
REMARK    3  A    between atoms: C_6  and  C_7
REMARK    4  A    between atoms: C_7  and  N_8
REMARK                            x       y       z     vdW  Elec       q    Type
REMARK                         _______ _______ _______ _____ _____    ______ ____
ROOT
ATOM      1  C   UNL     1       4.704   4.301   0.560  0.00  0.00    +0.000 C 
ENDROOT
BRANCH   1   2
ATOM      2  N   UNL     1       6.125   4.579   0.727  0.00  0.00    +0.000 N 
ATOM      3  C   UNL     1       7.039   3.656   1.175  0.00  0.00    +0.000 A 
ATOM      4  C   UNL     1       8.251   4.290   1.319  0.00  0.00    +0.000 A 
ATOM      5  C   UNL     1       8.076   5.646   0.939  0.00  0.00    +0.000 A 
ATOM      6  C   UNL     1       8.945   6.757   0.888  0.00  0.00    +0.000 A 
ATOM      7  C   UNL     1       8.459   7.988   0.439  0.00  0.00    +0.000 A 
ATOM      8  C   UNL     1       7.134   8.111   0.048  0.00  0.00    +0.000 A 
ATOM      9  F   UNL     1       6.691   9.299  -0.388  0.00  0.00    +0.000 F 
ATOM     10  C   UNL     1       6.246   7.035   0.095  0.00  0.00    +0.000 A 
ATOM     11  C   UNL     1       6.740   5.803   0.550  0.00  0.00    +0.000 A 
ENDBRANCH   1   2
BRANCH   1  15
ATOM     12  C   UNL     1       2.909   1.214  -0.790  0.00  0.00    +0.000 C 
ATOM     13  C   UNL     1       4.433   1.368  -0.646  0.00  0.00    +0.000 C 
ATOM     14  C   UNL     1       4.962   2.610  -1.362  0.00  0.00    +0.000 C 
ATOM     15  C   UNL     1       4.292   3.904  -0.874  0.00  0.00    +0.000 C 
ATOM     16  C   UNL     1       2.761   3.772  -0.987  0.00  0.00    +0.000 C 
ATOM     17  C   UNL     1       2.204   2.503  -0.331  0.00  0.00    +0.000 C 
BRANCH  12  18
ATOM     18  C   UNL     1       2.479   0.815  -2.217  0.00  0.00    +0.000 C 
BRANCH  18  19
ATOM     19  N   UNL     1       3.074  -0.456  -2.618  0.00  0.00    +0.000 NA
ATOM     20  H   UNL     1       2.755  -0.706  -3.553  0.00  0.00    +0.000 HD
ATOM     21  H   UNL     1       2.757  -1.198  -1.996  0.00  0.00    +0.000 HD
ENDBRANCH  18  19
ENDBRANCH  12  18
ENDBRANCH   1  15
TORSDOF 4
