REMARK  Name = 
REMARK  10 active torsions:
REMARK  status: ('A' for Active; 'I' for Inactive)
REMARK    1  A    between atoms: C_1  and  C_2
REMARK    2  A    between atoms: C_7  and  C_8
REMARK    3  A    between atoms: C_8  and  C_9
REMARK    4  A    between atoms: C_8  and  C_10
REMARK    5  A    between atoms: C_8  and  C_11
REMARK    6  A    between atoms: C_11  and  N_12
REMARK    7  A    between atoms: N_12  and  C_13
REMARK    8  A    between atoms: C_16  and  S_17
REMARK    9  A    between atoms: S_17  and  C_18
REMARK   10  A    between atoms: C_27  and  C_28
REMARK                            x       y       z     vdW  Elec       q    Type
REMARK                         _______ _______ _______ _____ _____    ______ ____
ROOT
ATOM      1  C   UNL     1       1.782   4.924  -4.836  0.00  0.00    +0.000 C 
ATOM      2  C   UNL     1       1.700   5.004  -6.384  0.00  0.00    +0.000 C 
ATOM      3  C   UNL     1       0.812   5.975  -4.252  0.00  0.00    +0.000 C 
ENDROOT
BRANCH   1  10
ATOM      4  C   UNL     1      -1.574  -1.582  -3.709  0.00  0.00    +0.000 C 
ATOM      5  C   UNL     1      -1.017  -1.829  -5.107  0.00  0.00    +0.000 C 
ATOM      6  C   UNL     1       0.315  -1.108  -5.374  0.00  0.00    +0.000 C 
ATOM      7  N   UNL     1       0.144   0.313  -5.680  0.00  0.00    +0.000 N 
ATOM      8  C   UNL     1       0.521   1.257  -4.742  0.00  0.00    +0.000 A 
ATOM      9  C   UNL     1       0.935   2.513  -5.196  0.00  0.00    +0.000 A 
ATOM     10  C   UNL     1       1.352   3.529  -4.323  0.00  0.00    +0.000 A 
ATOM     11  C   UNL     1       1.331   3.208  -2.962  0.00  0.00    +0.000 A 
ATOM     12  C   UNL     1       0.924   1.937  -2.575  0.00  0.00    +0.000 A 
ATOM     13  N   UNL     1       0.539   0.962  -3.430  0.00  0.00    +0.000 NA
ATOM     14  C   UNL     1      -0.951   0.643  -6.602  0.00  0.00    +0.000 C 
ATOM     15  C   UNL     1      -2.242  -0.134  -6.269  0.00  0.00    +0.000 C 
ATOM     16  C   UNL     1      -3.263   0.036  -7.389  0.00  0.00    +0.000 C 
ATOM     17  O   UNL     1      -1.996  -1.542  -6.125  0.00  0.00    +0.000 OA
ENDBRANCH   1  10
BRANCH   1  18
ATOM     18  C   UNL     1       3.251   5.234  -4.396  0.00  0.00    +0.000 C 
BRANCH  18  19
ATOM     19  N   UNL     1       3.705   6.571  -4.794  0.00  0.00    +0.000 N 
ATOM     20  H   UNL     1       3.301   6.956  -5.643  0.00  0.00    +0.000 HD
BRANCH  19  21
ATOM     21  C   UNL     1       5.009   7.007  -4.570  0.00  0.00    +0.000 A 
ATOM     22  C   UNL     1       5.954   6.277  -3.839  0.00  0.00    +0.000 A 
ATOM     23  C   UNL     1       7.209   6.813  -3.531  0.00  0.00    +0.000 A 
ATOM     24  C   UNL     1       7.525   8.110  -3.936  0.00  0.00    +0.000 A 
ATOM     25  C   UNL     1       6.603   8.866  -4.648  0.00  0.00    +0.000 A 
ATOM     26  C   UNL     1       5.354   8.312  -4.964  0.00  0.00    +0.000 A 
BRANCH  24  27
ATOM     27  S   UNL     1       9.060   8.834  -3.413  0.00  0.00    +0.000 S 
ATOM     28  C   UNL     1      10.209   8.403  -4.686  0.00  0.00    +0.000 C 
ATOM     29  O   UNL     1       8.891  10.279  -3.432  0.00  0.00    +0.000 OA
ATOM     30  O   UNL     1       9.466   8.159  -2.194  0.00  0.00    +0.000 OA
ENDBRANCH  24  27
ENDBRANCH  19  21
ENDBRANCH  18  19
ENDBRANCH   1  18
TORSDOF 5
