REMARK  Name = 
REMARK  4 active torsions:
REMARK  status: ('A' for Active; 'I' for Inactive)
REMARK    1  A    between atoms: C_2  and  C_4
REMARK    2  A    between atoms: C_7  and  N_8
REMARK    3  A    between atoms: N_8  and  C_9
REMARK    4  A    between atoms: C_9  and  C_10
REMARK                            x       y       z     vdW  Elec       q    Type
REMARK                         _______ _______ _______ _____ _____    ______ ____
ROOT
ATOM      1  C   UNL     1       2.845  -1.538  -0.102  0.00  0.00    +0.000 A 
ATOM      2  C   UNL     1       4.209  -1.310  -0.001  0.00  0.00    +0.000 A 
ATOM      3  C   UNL     1       5.074  -2.347  -0.342  0.00  0.00    +0.000 A 
ATOM      4  C   UNL     1       4.573  -3.566  -0.808  0.00  0.00    +0.000 A 
ATOM      5  C   UNL     1       3.184  -3.691  -0.851  0.00  0.00    +0.000 A 
ATOM      6  N   UNL     1       2.302  -2.720  -0.509  0.00  0.00    +0.000 NA
ENDROOT
BRANCH   1   8
ATOM      7  N   UNL     1       0.561  -0.796   0.204  0.00  0.00    +0.000 N 
ATOM      8  C   UNL     1       1.882  -0.451   0.265  0.00  0.00    +0.000 C 
ATOM      9  O   UNL     1       2.245   0.668   0.604  0.00  0.00    +0.000 OA
ATOM     10  H   UNL     1      -0.143  -0.120   0.454  0.00  0.00    +0.000 HD
ATOM     11  H   UNL     1       0.304  -1.739  -0.067  0.00  0.00    +0.000 HD
ENDBRANCH   1   8
BRANCH   4  12
ATOM     12  N   UNL     1       5.488  -4.561  -1.143  0.00  0.00    +0.000 N 
ATOM     13  H   UNL     1       5.963  -4.929  -0.320  0.00  0.00    +0.000 HD
BRANCH  12  14
ATOM     14  C   UNL     1       5.097  -5.622  -2.063  0.00  0.00    +0.000 C 
BRANCH  14  15
ATOM     15  C   UNL     1       6.340  -6.248  -2.651  0.00  0.00    +0.000 A 
ATOM     16  C   UNL     1       6.564  -7.629  -2.574  0.00  0.00    +0.000 A 
ATOM     17  C   UNL     1       7.705  -8.193  -3.149  0.00  0.00    +0.000 A 
ATOM     18  C   UNL     1       8.632  -7.387  -3.807  0.00  0.00    +0.000 A 
ATOM     19  C   UNL     1       8.421  -6.012  -3.894  0.00  0.00    +0.000 A 
ATOM     20  C   UNL     1       7.281  -5.447  -3.321  0.00  0.00    +0.000 A 
ENDBRANCH  14  15
ENDBRANCH  12  14
ENDBRANCH   4  12
TORSDOF 4
