REMARK  Name = 
REMARK  5 active torsions:
REMARK  status: ('A' for Active; 'I' for Inactive)
REMARK    1  A    between atoms: C_2  and  C_4
REMARK    2  A    between atoms: C_7  and  N_8
REMARK    3  A    between atoms: N_8  and  C_9
REMARK    4  A    between atoms: C_9  and  C_10
REMARK    5  A    between atoms: C_14  and  C_15
REMARK                            x       y       z     vdW  Elec       q    Type
REMARK                         _______ _______ _______ _____ _____    ______ ____
ROOT
ATOM      1  C   UNL     1       5.058  -5.926   0.588  0.00  0.00    +0.000 C 
ENDROOT
BRANCH   1   2
ATOM      2  C   UNL     1       6.039  -6.968   1.059  0.00  0.00    +0.000 A 
ATOM      3  C   UNL     1       7.360  -6.973   0.609  0.00  0.00    +0.000 A 
ATOM      4  C   UNL     1       8.199  -7.992   1.026  0.00  0.00    +0.000 A 
ATOM      5  N   UNL     1       7.812  -9.003   1.836  0.00  0.00    +0.000 NA
ATOM      6  C   UNL     1       6.524  -9.016   2.261  0.00  0.00    +0.000 A 
ATOM      7  C   UNL     1       5.629  -8.003   1.909  0.00  0.00    +0.000 A 
BRANCH   6   8
ATOM      8  C   UNL     1       6.125 -10.179   3.080  0.00  0.00    +0.000 A 
ATOM      9  C   UNL     1       7.057 -10.858   3.888  0.00  0.00    +0.000 A 
ATOM     10  C   UNL     1       6.687 -11.964   4.664  0.00  0.00    +0.000 A 
ATOM     11  C   UNL     1       5.371 -12.414   4.643  0.00  0.00    +0.000 A 
ATOM     12  C   UNL     1       4.445 -11.764   3.844  0.00  0.00    +0.000 A 
ATOM     13  F   UNL     1       3.176 -12.199   3.813  0.00  0.00    +0.000 F 
ATOM     14  C   UNL     1       4.805 -10.668   3.070  0.00  0.00    +0.000 A 
ENDBRANCH   6   8
ENDBRANCH   1   2
BRANCH   1  15
ATOM     15  N   UNL     1       5.517  -4.593   0.939  0.00  0.00    +0.000 N 
ATOM     16  H   UNL     1       5.872  -4.519   1.890  0.00  0.00    +0.000 HD
BRANCH  15  20
ATOM     17  C   UNL     1       3.440  -1.111  -0.252  0.00  0.00    +0.000 A 
ATOM     18  C   UNL     1       2.903  -2.365  -0.550  0.00  0.00    +0.000 A 
ATOM     19  C   UNL     1       3.576  -3.529  -0.155  0.00  0.00    +0.000 A 
ATOM     20  C   UNL     1       4.772  -3.470   0.571  0.00  0.00    +0.000 A 
ATOM     21  C   UNL     1       5.303  -2.201   0.848  0.00  0.00    +0.000 A 
ATOM     22  C   UNL     1       4.651  -1.032   0.437  0.00  0.00    +0.000 A 
BRANCH  17  24
ATOM     23  N   UNL     1       1.424   0.121  -0.844  0.00  0.00    +0.000 N 
ATOM     24  C   UNL     1       2.783   0.145  -0.697  0.00  0.00    +0.000 C 
ATOM     25  O   UNL     1       3.421   1.171  -0.896  0.00  0.00    +0.000 OA
ATOM     26  H   UNL     1       0.981   1.007  -1.054  0.00  0.00    +0.000 HD
ATOM     27  H   UNL     1       0.850  -0.611  -0.452  0.00  0.00    +0.000 HD
ENDBRANCH  17  24
ENDBRANCH  15  20
ENDBRANCH   1  15
TORSDOF 5
