REMARK  Name = 
REMARK  8 active torsions:
REMARK  status: ('A' for Active; 'I' for Inactive)
REMARK    1  A    between atoms: N_1  and  C_2
REMARK    2  A    between atoms: C_2  and  C_3
REMARK    3  A    between atoms: C_3  and  N_4
REMARK    4  A    between atoms: C_3  and  C_17
REMARK    5  A    between atoms: C_5  and  C_7
REMARK    6  A    between atoms: C_20  and  C_21
REMARK    7  A    between atoms: C_21  and  N_22
REMARK    8  A    between atoms: C_23  and  C_25
REMARK                            x       y       z     vdW  Elec       q    Type
REMARK                         _______ _______ _______ _____ _____    ______ ____
ROOT
ATOM      1  C   UNL     1       0.000   0.000   0.000  0.00  0.00    +0.000 C 
ENDROOT
BRANCH   1   2
ATOM      2  C   UNL     1       0.000   0.000   0.000  0.00  0.00    +0.000 C 
ATOM      3  C   UNL     1       0.000   0.000   0.000  0.00  0.00    +0.000 C 
ATOM      4  C   UNL     1       0.000   0.000   0.000  0.00  0.00    +0.000 C 
ATOM      5  C   UNL     1       0.000   0.000   0.000  0.00  0.00    +0.000 C 
ATOM      6  C   UNL     1       0.000   0.000   0.000  0.00  0.00    +0.000 C 
ATOM      7  C   UNL     1       0.000   0.000   0.000  0.00  0.00    +0.000 C 
BRANCH   5   8
ATOM      8  C   UNL     1       0.000   0.000   0.000  0.00  0.00    +0.000 C 
BRANCH   8   9
ATOM      9  N   UNL     1       0.000   0.000   0.000  0.00  0.00    +0.000 N 
ATOM     10  C   UNL     1       0.000   0.000   0.000  0.00  0.00    +0.000 C 
ATOM     11  O   UNL     1       0.000   0.000   0.000  0.00  0.00    +0.000 OA
ATOM     12  H   UNL     1       0.000   0.000   0.000  0.00  0.00    +0.000 HD
BRANCH  10  13
ATOM     13  C   UNL     1       0.000   0.000   0.000  0.00  0.00    +0.000 A 
ATOM     14  C   UNL     1       0.000   0.000   0.000  0.00  0.00    +0.000 A 
ATOM     15  C   UNL     1       0.000   0.000   0.000  0.00  0.00    +0.000 A 
ATOM     16  C   UNL     1       0.000   0.000   0.000  0.00  0.00    +0.000 A 
ATOM     17  C   UNL     1       0.000   0.000   0.000  0.00  0.00    +0.000 A 
ATOM     18  N   UNL     1       0.000   0.000   0.000  0.00  0.00    +0.000 NA
ENDBRANCH  10  13
ENDBRANCH   8   9
ENDBRANCH   5   8
ENDBRANCH   1   2
BRANCH   1  19
ATOM     19  N   UNL     1       0.000   0.000   0.000  0.00  0.00    +0.000 N 
ATOM     20  C   UNL     1       0.000   0.000   0.000  0.00  0.00    +0.000 C 
ATOM     21  O   UNL     1       0.000   0.000   0.000  0.00  0.00    +0.000 OA
ATOM     22  H   UNL     1       0.000   0.000   0.000  0.00  0.00    +0.000 HD
BRANCH  20  23
ATOM     23  C   UNL     1       0.000   0.000   0.000  0.00  0.00    +0.000 A 
ATOM     24  C   UNL     1       0.000   0.000   0.000  0.00  0.00    +0.000 A 
ATOM     25  S   UNL     1       0.000   0.000   0.000  0.00  0.00    +0.000 S 
ATOM     26  C   UNL     1       0.000   0.000   0.000  0.00  0.00    +0.000 A 
ATOM     27  N   UNL     1       0.000   0.000   0.000  0.00  0.00    +0.000 NA
ATOM     28  C   UNL     1       0.000   0.000   0.000  0.00  0.00    +0.000 A 
ATOM     29  N   UNL     1       0.000   0.000   0.000  0.00  0.00    +0.000 N 
ATOM     30  C   UNL     1       0.000   0.000   0.000  0.00  0.00    +0.000 A 
ATOM     31  O   UNL     1       0.000   0.000   0.000  0.00  0.00    +0.000 OA
ATOM     32  C   UNL     1       0.000   0.000   0.000  0.00  0.00    +0.000 A 
ATOM     33  H   UNL     1       0.000   0.000   0.000  0.00  0.00    +0.000 HD
ENDBRANCH  20  23
ENDBRANCH   1  19
BRANCH   1  34
ATOM     34  C   UNL     1       0.000   0.000   0.000  0.00  0.00    +0.000 C 
BRANCH  34  35
ATOM     35  N   UNL     1       0.000   0.000   0.000  0.00  0.00    +0.000 N 
ATOM     36  H   UNL     1       0.000   0.000   0.000  0.00  0.00    +0.000 HD
ATOM     37  H   UNL     1       0.000   0.000   0.000  0.00  0.00    +0.000 HD
ATOM     38  H   UNL     1       0.000   0.000   0.000  0.00  0.00    +0.000 HD
ENDBRANCH  34  35
ENDBRANCH   1  34
TORSDOF 8
