REMARK  Name = 
REMARK  5 active torsions:
REMARK  status: ('A' for Active; 'I' for Inactive)
REMARK    1  A    between atoms: C_2  and  C_18
REMARK    2  A    between atoms: N_3  and  C_4
REMARK    3  A    between atoms: C_4  and  C_5
REMARK    4  A    between atoms: C_8  and  C_9
REMARK    5  A    between atoms: C_9  and  C_10
REMARK                            x       y       z     vdW  Elec       q    Type
REMARK                         _______ _______ _______ _____ _____    ______ ____
ROOT
ATOM      1  O   UNL     1       0.782  -0.149   0.496  0.00  0.00    +0.000 OA
ATOM      2  C   UNL     1       1.386  -0.812   1.333  0.00  0.00    +0.000 C 
ATOM      3  N   UNL     1       2.177  -1.882   0.981  0.00  0.00    +0.000 N 
ATOM      4  H   UNL     1       2.484  -2.522   1.707  0.00  0.00    +0.000 HD
ENDROOT
BRANCH   2   5
ATOM      5  C   UNL     1       1.341  -0.482   2.761  0.00  0.00    +0.000 A 
ATOM      6  C   UNL     1       1.043   0.813   3.167  0.00  0.00    +0.000 A 
ATOM      7  S   UNL     1       1.054   1.017   4.861  0.00  0.00    +0.000 S 
ATOM      8  C   UNL     1       1.408  -0.628   5.114  0.00  0.00    +0.000 A 
ATOM      9  N   UNL     1       1.526  -1.137   6.370  0.00  0.00    +0.000 NA
ATOM     10  C   UNL     1       1.757  -2.407   6.412  0.00  0.00    +0.000 A 
ATOM     11  N   UNL     1       1.888  -3.215   5.312  0.00  0.00    +0.000 N 
ATOM     12  C   UNL     1       1.812  -2.740   4.026  0.00  0.00    +0.000 A 
ATOM     13  O   UNL     1       1.987  -3.478   3.061  0.00  0.00    +0.000 OA
ATOM     14  C   UNL     1       1.536  -1.320   3.921  0.00  0.00    +0.000 A 
ATOM     15  H   UNL     1       2.082  -4.200   5.413  0.00  0.00    +0.000 HD
ENDBRANCH   2   5
BRANCH   3  16
ATOM     16  C   UNL     1       2.209  -2.376  -0.373  0.00  0.00    +0.000 C 
BRANCH  16  17
ATOM     17  C   UNL     1       3.178  -3.511  -0.524  0.00  0.00    +0.000 A 
ATOM     18  C   UNL     1       4.533  -3.294  -0.779  0.00  0.00    +0.000 A 
ATOM     19  C   UNL     1       5.402  -4.380  -0.886  0.00  0.00    +0.000 A 
ATOM     20  C   UNL     1       4.895  -5.669  -0.730  0.00  0.00    +0.000 A 
ATOM     21  N   UNL     1       3.583  -5.904  -0.472  0.00  0.00    +0.000 NA
ATOM     22  C   UNL     1       2.765  -4.830  -0.367  0.00  0.00    +0.000 A 
BRANCH  20  23
ATOM     23  C   UNL     1       5.822  -6.865  -0.754  0.00  0.00    +0.000 C 
BRANCH  23  24
ATOM     24  C   UNL     1       6.425  -7.147   0.603  0.00  0.00    +0.000 A 
ATOM     25  C   UNL     1       5.608  -7.524   1.669  0.00  0.00    +0.000 A 
ATOM     26  C   UNL     1       6.171  -7.681   2.931  0.00  0.00    +0.000 A 
ATOM     27  C   UNL     1       7.536  -7.483   3.094  0.00  0.00    +0.000 A 
ATOM     28  C   UNL     1       8.285  -7.146   1.979  0.00  0.00    +0.000 A 
ATOM     29  N   UNL     1       7.764  -6.969   0.744  0.00  0.00    +0.000 NA
ENDBRANCH  23  24
ENDBRANCH  20  23
ENDBRANCH  16  17
ENDBRANCH   3  16
TORSDOF 5
