REMARK  Name = 
REMARK  9 active torsions:
REMARK  status: ('A' for Active; 'I' for Inactive)
REMARK    1  A    between atoms: N_1  and  C_2
REMARK    2  A    between atoms: C_2  and  C_3
REMARK    3  A    between atoms: C_3  and  N_4
REMARK    4  A    between atoms: C_3  and  C_26
REMARK    5  A    between atoms: N_4  and  C_5
REMARK    6  A    between atoms: C_5  and  C_6
REMARK    7  A    between atoms: C_9  and  C_10
REMARK    8  A    between atoms: C_10  and  N_11
REMARK    9  A    between atoms: C_12  and  C_14
REMARK                            x       y       z     vdW  Elec       q    Type
REMARK                         _______ _______ _______ _____ _____    ______ ____
ROOT
ATOM      1  C   UNL     1       0.563  -2.726  -2.860  0.00  0.00    +0.000 A 
ATOM      2  C   UNL     1       0.691  -4.104  -3.022  0.00  0.00    +0.000 A 
ATOM      3  C   UNL     1       0.340  -4.678  -4.241  0.00  0.00    +0.000 A 
ATOM      4  C   UNL     1      -0.156  -3.872  -5.267  0.00  0.00    +0.000 A 
ATOM      5  C   UNL     1      -0.256  -2.507  -5.013  0.00  0.00    +0.000 A 
ATOM      6  N   UNL     1       0.094  -1.918  -3.845  0.00  0.00    +0.000 NA
ENDROOT
BRANCH   1   7
ATOM      7  C   UNL     1       0.995  -2.075  -1.559  0.00  0.00    +0.000 C 
BRANCH   7   8
ATOM      8  N   UNL     1      -0.124  -1.433  -0.867  0.00  0.00    +0.000 NA
ATOM      9  H   UNL     1      -0.497  -0.726  -1.510  0.00  0.00    +0.000 HD
BRANCH   8  10
ATOM     10  C   UNL     1       0.297  -0.727   0.369  0.00  0.00    +0.000 C 
BRANCH  10  11
ATOM     11  C   UNL     1      -0.857   0.117   0.923  0.00  0.00    +0.000 A 
ATOM     12  C   UNL     1      -2.034  -0.482   1.376  0.00  0.00    +0.000 A 
ATOM     13  C   UNL     1      -3.075   0.313   1.844  0.00  0.00    +0.000 A 
ATOM     14  C   UNL     1      -2.931   1.692   1.827  0.00  0.00    +0.000 A 
ATOM     15  C   UNL     1      -1.744   2.217   1.344  0.00  0.00    +0.000 A 
ATOM     16  N   UNL     1      -0.708   1.469   0.898  0.00  0.00    +0.000 NA
ENDBRANCH  10  11
BRANCH  10  17
ATOM     17  C   UNL     1       0.901  -1.670   1.464  0.00  0.00    +0.000 C 
BRANCH  17  18
ATOM     18  N   UNL     1       0.044  -2.781   1.903  0.00  0.00    +0.000 NA
ATOM     19  H   UNL     1       0.537  -3.363   2.574  0.00  0.00    +0.000 HD
ATOM     20  H   UNL     1      -0.197  -3.355   1.095  0.00  0.00    +0.000 HD
ENDBRANCH  17  18
ENDBRANCH  10  17
ENDBRANCH   8  10
ENDBRANCH   7   8
ENDBRANCH   1   7
BRANCH   4  21
ATOM     21  C   UNL     1      -0.510  -4.436  -6.611  0.00  0.00    +0.000 C 
BRANCH  21  22
ATOM     22  N   UNL     1       0.630  -4.419  -7.491  0.00  0.00    +0.000 N 
ATOM     23  C   UNL     1       0.537  -4.792  -8.807  0.00  0.00    +0.000 C 
ATOM     24  O   UNL     1      -0.524  -5.142  -9.315  0.00  0.00    +0.000 OA
ATOM     25  H   UNL     1       1.546  -4.392  -7.054  0.00  0.00    +0.000 HD
BRANCH  23  26
ATOM     26  C   UNL     1       1.771  -4.684  -9.594  0.00  0.00    +0.000 A 
ATOM     27  C   UNL     1       1.706  -4.499 -10.967  0.00  0.00    +0.000 A 
ATOM     28  S   UNL     1       3.236  -4.343 -11.708  0.00  0.00    +0.000 S 
ATOM     29  C   UNL     1       4.038  -4.567 -10.224  0.00  0.00    +0.000 A 
ATOM     30  N   UNL     1       5.396  -4.574 -10.154  0.00  0.00    +0.000 NA
ATOM     31  C   UNL     1       5.871  -4.773  -8.972  0.00  0.00    +0.000 A 
ATOM     32  N   UNL     1       5.110  -4.965  -7.842  0.00  0.00    +0.000 N 
ATOM     33  C   UNL     1       3.737  -4.938  -7.864  0.00  0.00    +0.000 A 
ATOM     34  O   UNL     1       3.083  -5.059  -6.830  0.00  0.00    +0.000 OA
ATOM     35  C   UNL     1       3.153  -4.732  -9.174  0.00  0.00    +0.000 A 
ATOM     36  H   UNL     1       5.545  -5.099  -6.945  0.00  0.00    +0.000 HD
ENDBRANCH  23  26
ENDBRANCH  21  22
ENDBRANCH   4  21
TORSDOF 9
