REMARK  Name = 
REMARK  5 active torsions:
REMARK  status: ('A' for Active; 'I' for Inactive)
REMARK    1  A    between atoms: C_2  and  C_4
REMARK    2  A    between atoms: C_7  and  C_8
REMARK    3  A    between atoms: C_8  and  S_9
REMARK    4  A    between atoms: S_9  and  C_10
REMARK    5  A    between atoms: C_15  and  C_16
REMARK                            x       y       z     vdW  Elec       q    Type
REMARK                         _______ _______ _______ _____ _____    ______ ____
ROOT
ATOM      1  C   UNL     1       5.820  -6.789  -3.178  0.00  0.00    +0.000 A 
ATOM      2  C   UNL     1       7.123  -6.663  -3.662  0.00  0.00    +0.000 A 
ATOM      3  C   UNL     1       7.859  -7.806  -3.958  0.00  0.00    +0.000 A 
ATOM      4  F   UNL     1       9.100  -7.677  -4.445  0.00  0.00    +0.000 F 
ATOM      5  C   UNL     1       7.323  -9.079  -3.789  0.00  0.00    +0.000 A 
ATOM      6  C   UNL     1       6.020  -9.232  -3.299  0.00  0.00    +0.000 A 
ATOM      7  C   UNL     1       5.280  -8.072  -3.001  0.00  0.00    +0.000 A 
ENDROOT
BRANCH   6   8
ATOM      8  C   UNL     1       5.377 -10.600  -3.153  0.00  0.00    +0.000 C 
ATOM      9  C   UNL     1       6.178 -11.527  -2.222  0.00  0.00    +0.000 C 
ATOM     10  C   UNL     1       5.509 -12.896  -2.107  0.00  0.00    +0.000 C 
ATOM     11  C   UNL     1       5.242 -13.484  -3.489  0.00  0.00    +0.000 C 
ATOM     12  C   UNL     1       4.498 -12.494  -4.382  0.00  0.00    +0.000 C 
ATOM     13  N   UNL     1       5.208 -11.219  -4.476  0.00  0.00    +0.000 NA
ATOM     14  H   UNL     1       4.678 -10.582  -5.072  0.00  0.00    +0.000 HD
ENDBRANCH   6   8
BRANCH   1  15
ATOM     15  S   UNL     1       4.743  -5.390  -2.921  0.00  0.00    +0.000 S 
BRANCH  15  16
ATOM     16  C   UNL     1       5.767  -4.296  -1.866  0.00  0.00    +0.000 C 
BRANCH  16  20
ATOM     17  C   UNL     1       3.758  -0.613  -1.020  0.00  0.00    +0.000 A 
ATOM     18  C   UNL     1       4.088  -0.911  -2.340  0.00  0.00    +0.000 A 
ATOM     19  C   UNL     1       4.753  -2.104  -2.624  0.00  0.00    +0.000 A 
ATOM     20  C   UNL     1       5.063  -2.983  -1.582  0.00  0.00    +0.000 A 
ATOM     21  N   UNL     1       4.769  -2.693  -0.289  0.00  0.00    +0.000 NA
ATOM     22  C   UNL     1       4.133  -1.519  -0.036  0.00  0.00    +0.000 A 
BRANCH  17  24
ATOM     23  N   UNL     1       2.237   1.203  -1.562  0.00  0.00    +0.000 N 
ATOM     24  C   UNL     1       3.054   0.626  -0.628  0.00  0.00    +0.000 C 
ATOM     25  O   UNL     1       3.170   1.102   0.492  0.00  0.00    +0.000 OA
ATOM     26  H   UNL     1       1.684   1.992  -1.248  0.00  0.00    +0.000 HD
ATOM     27  H   UNL     1       1.922   0.715  -2.388  0.00  0.00    +0.000 HD
ENDBRANCH  17  24
ENDBRANCH  16  20
ENDBRANCH  15  16
ENDBRANCH   1  15
TORSDOF 5
