REMARK  Name = 
REMARK  9 active torsions:
REMARK  status: ('A' for Active; 'I' for Inactive)
REMARK    1  A    between atoms: C_1  and  C_2
REMARK    2  A    between atoms: C_5  and  N_6
REMARK    3  A    between atoms: N_6  and  C_7
REMARK    4  A    between atoms: C_9  and  C_10
REMARK    5  A    between atoms: C_10  and  C_11
REMARK    6  A    between atoms: C_10  and  C_12
REMARK    7  A    between atoms: C_10  and  C_13
REMARK    8  A    between atoms: C_13  and  N_14
REMARK    9  A    between atoms: C_18  and  C_19
REMARK                            x       y       z     vdW  Elec       q    Type
REMARK                         _______ _______ _______ _____ _____    ______ ____
ROOT
ATOM      1  C   UNL     1       5.924  -0.439  -3.253  0.00  0.00    +0.000 C 
ATOM      2  C   UNL     1       6.770  -1.217  -2.216  0.00  0.00    +0.000 C 
ATOM      3  C   UNL     1       4.620  -1.239  -3.527  0.00  0.00    +0.000 C 
ENDROOT
BRANCH   1   6
ATOM      4  C   UNL     1       4.259   2.196  -0.971  0.00  0.00    +0.000 A 
ATOM      5  C   UNL     1       4.750   1.000  -1.504  0.00  0.00    +0.000 A 
ATOM      6  C   UNL     1       5.546   0.950  -2.672  0.00  0.00    +0.000 A 
ATOM      7  C   UNL     1       5.917   2.182  -3.255  0.00  0.00    +0.000 A 
ATOM      8  C   UNL     1       5.500   3.394  -2.692  0.00  0.00    +0.000 A 
ATOM      9  C   UNL     1       4.678   3.393  -1.568  0.00  0.00    +0.000 A 
ATOM     10  F   UNL     1       4.254   4.566  -1.075  0.00  0.00    +0.000 F 
BRANCH   4  11
ATOM     11  N   UNL     1       3.346   2.211   0.114  0.00  0.00    +0.000 N 
ATOM     12  H   UNL     1       3.069   3.153   0.378  0.00  0.00    +0.000 HD
BRANCH  11  17
ATOM     13  C   UNL     1       0.915   2.889   1.945  0.00  0.00    +0.000 C 
ATOM     14  C   UNL     1       1.308   1.492   1.482  0.00  0.00    +0.000 C 
ATOM     15  N   UNL     1       0.323   0.936   0.530  0.00  0.00    +0.000 NA
ATOM     16  C   UNL     1       1.337   0.823  -0.529  0.00  0.00    +0.000 C 
ATOM     17  C   UNL     1       2.454   1.140   0.486  0.00  0.00    +0.000 C 
ATOM     18  H   UNL     1      -0.455   1.551   0.291  0.00  0.00    +0.000 HD
ENDBRANCH  11  17
ENDBRANCH   4  11
ENDBRANCH   1   6
BRANCH   1  19
ATOM     19  C   UNL     1       6.731  -0.331  -4.577  0.00  0.00    +0.000 C 
BRANCH  19  20
ATOM     20  N   UNL     1       7.085  -1.651  -5.136  0.00  0.00    +0.000 N 
ATOM     21  C   UNL     1       7.805  -1.567  -6.330  0.00  0.00    +0.000 A 
ATOM     22  C   UNL     1       8.199  -2.732  -6.994  0.00  0.00    +0.000 A 
ATOM     23  N   UNL     1       8.865  -2.745  -8.181  0.00  0.00    +0.000 NA
ATOM     24  C   UNL     1       9.135  -1.504  -8.675  0.00  0.00    +0.000 A 
ATOM     25  C   UNL     1       8.762  -0.341  -8.019  0.00  0.00    +0.000 A 
ATOM     26  N   UNL     1       8.084  -0.344  -6.844  0.00  0.00    +0.000 NA
ATOM     27  H   UNL     1       6.261  -2.216  -5.331  0.00  0.00    +0.000 HD
BRANCH  24  28
ATOM     28  C   UNL     1       9.853  -1.418  -9.970  0.00  0.00    +0.000 C 
ATOM     29  N   UNL     1      10.194  -2.588 -10.574  0.00  0.00    +0.000 N 
ATOM     30  O   UNL     1      10.105  -0.337 -10.474  0.00  0.00    +0.000 OA
ATOM     31  H   UNL     1       9.983  -3.482 -10.150  0.00  0.00    +0.000 HD
ATOM     32  H   UNL     1      10.684  -2.548 -11.461  0.00  0.00    +0.000 HD
ENDBRANCH  24  28
ENDBRANCH  19  20
ENDBRANCH   1  19
TORSDOF 6
