REMARK  Name = 
REMARK  5 active torsions:
REMARK  status: ('A' for Active; 'I' for Inactive)
REMARK    1  A    between atoms: C_1  and  C_2
REMARK    2  A    between atoms: C_2  and  O_3
REMARK    3  A    between atoms: C_2  and  C_13
REMARK    4  A    between atoms: O_3  and  C_4
REMARK    5  A    between atoms: C_7  and  C_8
REMARK                            x       y       z     vdW  Elec       q    Type
REMARK                         _______ _______ _______ _____ _____    ______ ____
ROOT
ATOM      1  C   UNL     1       2.959  -0.412  -2.406  0.00  0.00    +0.000 A 
ATOM      2  C   UNL     1       2.299  -1.634  -2.461  0.00  0.00    +0.000 A 
ATOM      3  C   UNL     1       2.446  -2.460  -3.564  0.00  0.00    +0.000 A 
ATOM      4  C   UNL     1       3.265  -2.044  -4.601  0.00  0.00    +0.000 A 
ATOM      5  N   UNL     1       3.933  -0.856  -4.602  0.00  0.00    +0.000 NA
ATOM      6  C   UNL     1       3.750  -0.070  -3.503  0.00  0.00    +0.000 A 
ENDROOT
BRANCH   4   7
ATOM      7  C   UNL     1       3.420  -2.954  -5.781  0.00  0.00    +0.000 C 
ATOM      8  N   UNL     1       4.241  -2.518  -6.782  0.00  0.00    +0.000 N 
ATOM      9  O   UNL     1       2.846  -4.034  -5.853  0.00  0.00    +0.000 OA
ATOM     10  H   UNL     1       4.701  -1.615  -6.704  0.00  0.00    +0.000 HD
ATOM     11  H   UNL     1       4.370  -3.093  -7.602  0.00  0.00    +0.000 HD
ENDBRANCH   4   7
BRANCH   1  12
ATOM     12  O   UNL     1       2.849   0.489  -1.383  0.00  0.00    +0.000 OA
BRANCH  12  14
ATOM     13  C   UNL     1       1.034  -0.091   0.189  0.00  0.00    +0.000 C 
ATOM     14  C   UNL     1       2.546  -0.031  -0.072  0.00  0.00    +0.000 C 
BRANCH  14  15
ATOM     15  C   UNL     1       3.190   0.899   0.942  0.00  0.00    +0.000 A 
ATOM     16  C   UNL     1       4.137   0.406   1.858  0.00  0.00    +0.000 A 
ATOM     17  C   UNL     1       4.746   1.262   2.778  0.00  0.00    +0.000 A 
ATOM     18  C   UNL     1       4.404   2.609   2.793  0.00  0.00    +0.000 A 
ATOM     19  F   UNL     1       5.007   3.433   3.661  0.00  0.00    +0.000 F 
ATOM     20  C   UNL     1       3.450   3.114   1.921  0.00  0.00    +0.000 A 
ATOM     21  C   UNL     1       2.844   2.262   0.998  0.00  0.00    +0.000 A 
ENDBRANCH  14  15
ENDBRANCH  12  14
ENDBRANCH   1  12
TORSDOF 4
