REMARK  Name = 
REMARK  5 active torsions:
REMARK  status: ('A' for Active; 'I' for Inactive)
REMARK    1  A    between atoms: N_1  and  C_2
REMARK    2  A    between atoms: C_2  and  C_3
REMARK    3  A    between atoms: C_6  and  C_7
REMARK    4  A    between atoms: C_7  and  N_8
REMARK    5  A    between atoms: C_13  and  C_14
REMARK                            x       y       z     vdW  Elec       q    Type
REMARK                         _______ _______ _______ _____ _____    ______ ____
ROOT
ATOM      1  N   UNL     1       3.188   6.212   1.451  0.00  0.00    +0.000 N 
ATOM      2  N   UNL     1       4.036   6.834   0.600  0.00  0.00    +0.000 NA
ATOM      3  C   UNL     1       3.274   7.755   0.008  0.00  0.00    +0.000 A 
ATOM      4  C   UNL     1       1.953   7.767   0.501  0.00  0.00    +0.000 A 
ATOM      5  C   UNL     1       0.797   8.509   0.245  0.00  0.00    +0.000 A 
ATOM      6  C   UNL     1      -0.317   8.172   1.002  0.00  0.00    +0.000 A 
ATOM      7  N   UNL     1      -0.347   7.196   1.958  0.00  0.00    +0.000 NA
ATOM      8  C   UNL     1       0.777   6.477   2.194  0.00  0.00    +0.000 A 
ATOM      9  C   UNL     1       1.925   6.760   1.463  0.00  0.00    +0.000 A 
ENDROOT
BRANCH   6  10
ATOM     10  C   UNL     1      -1.599   8.912   0.766  0.00  0.00    +0.000 C 
ATOM     11  N   UNL     1      -2.660   8.518   1.535  0.00  0.00    +0.000 N 
ATOM     12  O   UNL     1      -1.703   9.811  -0.061  0.00  0.00    +0.000 OA
ATOM     13  H   UNL     1      -2.544   7.763   2.200  0.00  0.00    +0.000 HD
ATOM     14  H   UNL     1      -3.558   8.962   1.408  0.00  0.00    +0.000 HD
ENDBRANCH   6  10
BRANCH   1  15
ATOM     15  C   UNL     1       3.682   5.095   2.253  0.00  0.00    +0.000 C 
BRANCH  15  19
ATOM     16  C   UNL     1       2.762   1.298   0.365  0.00  0.00    +0.000 A 
ATOM     17  C   UNL     1       3.601   2.225  -0.267  0.00  0.00    +0.000 A 
ATOM     18  C   UNL     1       3.914   3.439   0.350  0.00  0.00    +0.000 A 
ATOM     19  C   UNL     1       3.384   3.762   1.608  0.00  0.00    +0.000 A 
ATOM     20  C   UNL     1       2.579   2.816   2.258  0.00  0.00    +0.000 A 
ATOM     21  C   UNL     1       2.270   1.599   1.641  0.00  0.00    +0.000 A 
BRANCH  16  22
ATOM     22  C   UNL     1       2.357   0.027  -0.338  0.00  0.00    +0.000 C 
BRANCH  22  23
ATOM     23  N   UNL     1       3.507  -0.788  -0.707  0.00  0.00    +0.000 NA
ATOM     24  H   UNL     1       3.180  -1.677  -1.080  0.00  0.00    +0.000 HD
ATOM     25  H   UNL     1       4.039  -1.005   0.134  0.00  0.00    +0.000 HD
ENDBRANCH  22  23
ENDBRANCH  16  22
ENDBRANCH  15  19
ENDBRANCH   1  15
TORSDOF 5
