REMARK  Name = 
REMARK  3 active torsions:
REMARK  status: ('A' for Active; 'I' for Inactive)
REMARK    1  A    between atoms: C_2  and  C_4
REMARK    2  A    between atoms: N_8  and  C_9
REMARK    3  A    between atoms: C_9  and  C_10
REMARK                            x       y       z     vdW  Elec       q    Type
REMARK                         _______ _______ _______ _____ _____    ______ ____
ROOT
ATOM      1  C   UNL     1       2.682   0.775  -3.377  0.00  0.00    +0.000 A 
ATOM      2  C   UNL     1       2.050   1.944  -2.958  0.00  0.00    +0.000 A 
ATOM      3  C   UNL     1       2.821   3.067  -2.643  0.00  0.00    +0.000 A 
ATOM      4  C   UNL     1       4.205   2.997  -2.737  0.00  0.00    +0.000 A 
ATOM      5  N   UNL     1       5.061   4.033  -2.364  0.00  0.00    +0.000 N 
ATOM      6  N   UNL     1       4.830   1.861  -3.116  0.00  0.00    +0.000 NA
ATOM      7  C   UNL     1       4.067   0.780  -3.424  0.00  0.00    +0.000 A 
ATOM      8  H   UNL     1       6.001   3.706  -2.580  0.00  0.00    +0.000 HD
ENDROOT
BRANCH   1  10
ATOM      9  N   UNL     1       0.661  -0.322  -4.171  0.00  0.00    +0.000 N 
ATOM     10  C   UNL     1       1.955  -0.456  -3.745  0.00  0.00    +0.000 C 
ATOM     11  O   UNL     1       2.497  -1.553  -3.709  0.00  0.00    +0.000 OA
ATOM     12  H   UNL     1       0.219  -1.166  -4.519  0.00  0.00    +0.000 HD
ATOM     13  H   UNL     1       0.271   0.566  -4.448  0.00  0.00    +0.000 HD
ENDBRANCH   1  10
BRANCH   5  14
ATOM     14  C   UNL     1       4.815   5.469  -2.544  0.00  0.00    +0.000 C 
ATOM     15  C   UNL     1       5.152   6.293  -1.303  0.00  0.00    +0.000 C 
ATOM     16  C   UNL     1       3.752   6.271  -1.810  0.00  0.00    +0.000 C 
BRANCH  14  17
ATOM     17  C   UNL     1       5.192   6.019  -3.922  0.00  0.00    +0.000 A 
ATOM     18  C   UNL     1       4.252   6.027  -4.972  0.00  0.00    +0.000 A 
ATOM     19  C   UNL     1       4.521   6.659  -6.188  0.00  0.00    +0.000 A 
ATOM     20  C   UNL     1       5.748   7.278  -6.377  0.00  0.00    +0.000 A 
ATOM     21  F   UNL     1       5.992   7.926  -7.524  0.00  0.00    +0.000 F 
ATOM     22  C   UNL     1       6.720   7.245  -5.388  0.00  0.00    +0.000 A 
ATOM     23  C   UNL     1       6.447   6.608  -4.173  0.00  0.00    +0.000 A 
ENDBRANCH  14  17
ENDBRANCH   5  14
TORSDOF 3
