REMARK  Name = 
REMARK  7 active torsions:
REMARK  status: ('A' for Active; 'I' for Inactive)
REMARK    1  A    between atoms: C_1  and  C_2
REMARK    2  A    between atoms: C_2  and  C_3
REMARK    3  A    between atoms: C_2  and  C_17
REMARK    4  A    between atoms: C_3  and  N_4
REMARK    5  A    between atoms: C_9  and  C_10
REMARK    6  A    between atoms: C_10  and  O_11
REMARK    7  A    between atoms: C_10  and  C_12
REMARK                            x       y       z     vdW  Elec       q    Type
REMARK                         _______ _______ _______ _____ _____    ______ ____
ROOT
ATOM      1  N   UNL     1       3.011   2.008  -1.312  0.00  0.00    +0.000 N 
ATOM      2  C   UNL     1       3.624   3.281  -1.387  0.00  0.00    +0.000 A 
ATOM      3  C   UNL     1       3.632   3.952  -2.601  0.00  0.00    +0.000 A 
ATOM      4  C   UNL     1       4.248   5.201  -2.693  0.00  0.00    +0.000 A 
ATOM      5  C   UNL     1       4.838   5.754  -1.560  0.00  0.00    +0.000 A 
ATOM      6  C   UNL     1       4.794   5.032  -0.372  0.00  0.00    +0.000 A 
ATOM      7  N   UNL     1       4.211   3.808  -0.287  0.00  0.00    +0.000 NA
ATOM      8  H   UNL     1       2.057   2.103  -1.650  0.00  0.00    +0.000 HD
ENDROOT
BRANCH   1   9
ATOM      9  C   UNL     1       3.070   1.459   0.033  0.00  0.00    +0.000 C 
BRANCH   9  11
ATOM     10  C   UNL     1       0.942   0.043  -0.281  0.00  0.00    +0.000 C 
ATOM     11  C   UNL     1       2.395   0.114   0.098  0.00  0.00    +0.000 C 
BRANCH  11  12
ATOM     12  C   UNL     1       2.903  -0.803   1.211  0.00  0.00    +0.000 C 
ATOM     13  C   UNL     1       2.708  -2.301   0.908  0.00  0.00    +0.000 C 
ATOM     14  C   UNL     1       3.080  -3.192   2.094  0.00  0.00    +0.000 C 
ATOM     15  C   UNL     1       2.346  -2.768   3.360  0.00  0.00    +0.000 C 
ATOM     16  C   UNL     1       2.663  -1.318   3.703  0.00  0.00    +0.000 C 
ATOM     17  C   UNL     1       2.279  -0.388   2.558  0.00  0.00    +0.000 C 
ENDBRANCH  11  12
ENDBRANCH   9  11
ENDBRANCH   1   9
BRANCH   6  18
ATOM     18  C   UNL     1       5.369   5.589   0.913  0.00  0.00    +0.000 C 
BRANCH  18  19
ATOM     19  C   UNL     1       6.870   5.276   1.070  0.00  0.00    +0.000 C 
ATOM     20  F   UNL     1       7.406   4.639   0.005  0.00  0.00    +0.000 F 
ATOM     21  F   UNL     1       7.575   6.427   1.231  0.00  0.00    +0.000 F 
ATOM     22  F   UNL     1       7.118   4.507   2.158  0.00  0.00    +0.000 F 
ENDBRANCH  18  19
BRANCH  18  23
ATOM     23  O   UNL     1       4.592   5.088   2.029  0.00  0.00    +0.000 OA
ATOM     24  H   UNL     1       4.402   4.156   1.796  0.00  0.00    +0.000 HD
ENDBRANCH  18  23
ENDBRANCH   6  18
TORSDOF 6
