REMARK  Name = 
REMARK  7 active torsions:
REMARK  status: ('A' for Active; 'I' for Inactive)
REMARK    1  A    between atoms: C_1  and  N_2
REMARK    2  A    between atoms: N_2  and  C_3
REMARK    3  A    between atoms: C_3  and  C_4
REMARK    4  A    between atoms: C_7  and  C_8
REMARK    5  A    between atoms: C_8  and  N_9
REMARK    6  A    between atoms: C_10  and  C_12
REMARK    7  A    between atoms: C_19  and  C_21
REMARK                            x       y       z     vdW  Elec       q    Type
REMARK                         _______ _______ _______ _____ _____    ______ ____
ROOT
ATOM      1  C   UNL     1       1.959   2.301  -0.568  0.00  0.00    +0.000 A 
ATOM      2  C   UNL     1       0.687   2.083  -1.085  0.00  0.00    +0.000 A 
ATOM      3  C   UNL     1      -0.179   3.168  -1.216  0.00  0.00    +0.000 A 
ATOM      4  C   UNL     1       0.244   4.447  -0.844  0.00  0.00    +0.000 A 
ATOM      5  C   UNL     1       1.529   4.571  -0.339  0.00  0.00    +0.000 A 
ATOM      6  N   UNL     1       2.387   3.535  -0.194  0.00  0.00    +0.000 NA
ENDROOT
BRANCH   1   7
ATOM      7  C   UNL     1       2.934   1.155  -0.400  0.00  0.00    +0.000 C 
BRANCH   7   9
ATOM      8  C   UNL     1       1.975   0.793   1.906  0.00  0.00    +0.000 C 
ATOM      9  N   UNL     1       2.837   0.339   0.821  0.00  0.00    +0.000 N 
ATOM     10  C   UNL     1       3.461  -0.909   0.986  0.00  0.00    +0.000 C 
ATOM     11  O   UNL     1       3.259  -1.599   1.983  0.00  0.00    +0.000 OA
BRANCH  10  12
ATOM     12  C   UNL     1       4.404  -1.389  -0.036  0.00  0.00    +0.000 A 
ATOM     13  C   UNL     1       5.414  -0.621  -0.592  0.00  0.00    +0.000 A 
ATOM     14  S   UNL     1       6.391  -1.476  -1.701  0.00  0.00    +0.000 S 
ATOM     15  C   UNL     1       5.596  -2.939  -1.353  0.00  0.00    +0.000 A 
ATOM     16  N   UNL     1       6.024  -4.112  -1.889  0.00  0.00    +0.000 NA
ATOM     17  C   UNL     1       5.380  -5.150  -1.468  0.00  0.00    +0.000 A 
ATOM     18  N   UNL     1       4.324  -5.115  -0.594  0.00  0.00    +0.000 N 
ATOM     19  C   UNL     1       3.764  -3.938  -0.142  0.00  0.00    +0.000 A 
ATOM     20  O   UNL     1       2.677  -3.934   0.424  0.00  0.00    +0.000 OA
ATOM     21  C   UNL     1       4.537  -2.756  -0.483  0.00  0.00    +0.000 A 
ATOM     22  H   UNL     1       3.820  -5.958  -0.363  0.00  0.00    +0.000 HD
ENDBRANCH  10  12
ENDBRANCH   7   9
ENDBRANCH   1   7
BRANCH   4  23
ATOM     23  C   UNL     1      -0.665   5.637  -0.958  0.00  0.00    +0.000 C 
BRANCH  23  24
ATOM     24  N   UNL     1      -1.479   5.810   0.215  0.00  0.00    +0.000 N 
ATOM     25  C   UNL     1      -2.361   6.862   0.331  0.00  0.00    +0.000 C 
ATOM     26  O   UNL     1      -2.505   7.718  -0.537  0.00  0.00    +0.000 OA
ATOM     27  H   UNL     1      -1.471   5.145   0.984  0.00  0.00    +0.000 HD
BRANCH  25  28
ATOM     28  C   UNL     1      -3.118   6.864   1.592  0.00  0.00    +0.000 A 
ATOM     29  C   UNL     1      -4.115   7.794   1.986  0.00  0.00    +0.000 A 
ATOM     30  C   UNL     1      -4.519   7.390   3.235  0.00  0.00    +0.000 A 
ATOM     31  N   UNL     1      -3.779   6.284   3.527  0.00  0.00    +0.000 N 
ATOM     32  N   UNL     1      -2.927   5.929   2.548  0.00  0.00    +0.000 NA
ATOM     33  H   UNL     1      -3.804   5.723   4.373  0.00  0.00    +0.000 HD
ENDBRANCH  25  28
ENDBRANCH  23  24
ENDBRANCH   4  23
TORSDOF 6
