REMARK  Name = 
REMARK  6 active torsions:
REMARK  status: ('A' for Active; 'I' for Inactive)
REMARK    1  A    between atoms: C_2  and  C_18
REMARK    2  A    between atoms: N_3  and  C_4
REMARK    3  A    between atoms: C_4  and  C_5
REMARK    4  A    between atoms: C_8  and  C_9
REMARK    5  A    between atoms: C_9  and  N_10
REMARK    6  A    between atoms: C_13  and  O_14
REMARK                            x       y       z     vdW  Elec       q    Type
REMARK                         _______ _______ _______ _____ _____    ______ ____
ROOT
ATOM      1  O   UNL     1       0.898  -0.148  -0.088  0.00  0.00    +0.000 OA
ATOM      2  C   UNL     1       1.918  -0.696  -0.488  0.00  0.00    +0.000 C 
ATOM      3  N   UNL     1       2.714  -1.468   0.321  0.00  0.00    +0.000 N 
ATOM      4  H   UNL     1       3.563  -1.885  -0.030  0.00  0.00    +0.000 HD
ENDROOT
BRANCH   2   5
ATOM      5  C   UNL     1       2.400  -0.530  -1.857  0.00  0.00    +0.000 A 
ATOM      6  C   UNL     1       2.177   0.649  -2.557  0.00  0.00    +0.000 A 
ATOM      7  S   UNL     1       2.901   0.649  -4.105  0.00  0.00    +0.000 S 
ATOM      8  C   UNL     1       3.486  -0.938  -3.898  0.00  0.00    +0.000 A 
ATOM      9  N   UNL     1       4.223  -1.554  -4.861  0.00  0.00    +0.000 NA
ATOM     10  C   UNL     1       4.582  -2.760  -4.567  0.00  0.00    +0.000 A 
ATOM     11  N   UNL     1       4.253  -3.413  -3.405  0.00  0.00    +0.000 N 
ATOM     12  C   UNL     1       3.475  -2.849  -2.426  0.00  0.00    +0.000 A 
ATOM     13  O   UNL     1       3.137  -3.486  -1.433  0.00  0.00    +0.000 OA
ATOM     14  C   UNL     1       3.109  -1.468  -2.679  0.00  0.00    +0.000 A 
ATOM     15  H   UNL     1       4.541  -4.367  -3.247  0.00  0.00    +0.000 HD
ENDBRANCH   2   5
BRANCH   3  16
ATOM     16  C   UNL     1       2.287  -1.800   1.658  0.00  0.00    +0.000 C 
BRANCH  16  17
ATOM     17  C   UNL     1       3.165  -2.819   2.336  0.00  0.00    +0.000 A 
ATOM     18  C   UNL     1       2.890  -4.178   2.258  0.00  0.00    +0.000 A 
ATOM     19  C   UNL     1       3.685  -5.070   2.975  0.00  0.00    +0.000 A 
ATOM     20  C   UNL     1       4.737  -4.573   3.728  0.00  0.00    +0.000 A 
ATOM     21  N   UNL     1       5.005  -3.246   3.751  0.00  0.00    +0.000 NA
ATOM     22  N   UNL     1       4.218  -2.366   3.050  0.00  0.00    +0.000 NA
BRANCH  20  23
ATOM     23  C   UNL     1       5.622  -5.478   4.562  0.00  0.00    +0.000 C 
BRANCH  23  24
ATOM     24  N   UNL     1       6.766  -6.081   3.844  0.00  0.00    +0.000 NA
ATOM     25  C   UNL     1       7.582  -6.910   4.749  0.00  0.00    +0.000 C 
ATOM     26  C   UNL     1       9.048  -6.601   4.459  0.00  0.00    +0.000 C 
ATOM     27  C   UNL     1       9.027  -5.740   3.211  0.00  0.00    +0.000 C 
ATOM     28  C   UNL     1       7.663  -5.059   3.267  0.00  0.00    +0.000 C 
BRANCH  27  29
ATOM     29  O   UNL     1       9.144  -6.569   2.057  0.00  0.00    +0.000 OA
ATOM     30  H   UNL     1       8.308  -7.063   1.998  0.00  0.00    +0.000 HD
ENDBRANCH  27  29
ENDBRANCH  23  24
ENDBRANCH  20  23
ENDBRANCH  16  17
ENDBRANCH   3  16
TORSDOF 6
