REMARK  Name = 
REMARK  9 active torsions:
REMARK  status: ('A' for Active; 'I' for Inactive)
REMARK    1  A    between atoms: C_1  and  O_2
REMARK    2  A    between atoms: O_2  and  C_3
REMARK    3  A    between atoms: C_10  and  C_11
REMARK    4  A    between atoms: N_13  and  C_14
REMARK    5  A    between atoms: C_14  and  C_15
REMARK    6  A    between atoms: C_18  and  N_19
REMARK    7  A    between atoms: N_19  and  C_20
REMARK    8  A    between atoms: C_20  and  C_21
REMARK    9  A    between atoms: C_21  and  N_22
REMARK                            x       y       z     vdW  Elec       q    Type
REMARK                         _______ _______ _______ _____ _____    ______ ____
ROOT
ATOM      1  C   UNL     1       3.155  -3.340  -0.443  0.00  0.00    +0.000 C 
ENDROOT
BRANCH   1   2
ATOM      2  C   UNL     1       2.112  -3.451   0.646  0.00  0.00    +0.000 A 
ATOM      3  C   UNL     1       1.511  -4.682   0.942  0.00  0.00    +0.000 A 
ATOM      4  C   UNL     1       0.552  -4.790   1.963  0.00  0.00    +0.000 A 
ATOM      5  C   UNL     1       0.172  -3.675   2.717  0.00  0.00    +0.000 A 
ATOM      6  C   UNL     1       0.719  -2.436   2.366  0.00  0.00    +0.000 A 
ATOM      7  C   UNL     1       1.696  -2.326   1.366  0.00  0.00    +0.000 A 
BRANCH   5   8
ATOM      8  N   UNL     1      -0.784  -3.703   3.745  0.00  0.00    +0.000 N 
ATOM      9  H   UNL     1      -1.697  -3.429   3.387  0.00  0.00    +0.000 HD
BRANCH   8  10
ATOM     10  C   UNL     1      -0.864  -4.922   4.564  0.00  0.00    +0.000 C 
BRANCH  10  11
ATOM     11  C   UNL     1      -1.295  -4.562   6.011  0.00  0.00    +0.000 C 
BRANCH  11  12
ATOM     12  N   UNL     1      -1.392  -5.711   6.935  0.00  0.00    +0.000 NA
ATOM     13  C   UNL     1      -1.832  -5.295   8.278  0.00  0.00    +0.000 C 
ATOM     14  C   UNL     1      -0.568  -5.123   9.098  0.00  0.00    +0.000 C 
ATOM     15  C   UNL     1       0.350  -6.195   8.556  0.00  0.00    +0.000 C 
ATOM     16  C   UNL     1      -0.116  -6.424   7.125  0.00  0.00    +0.000 C 
ENDBRANCH  11  12
ENDBRANCH  10  11
ENDBRANCH   8  10
ENDBRANCH   5   8
ENDBRANCH   1   2
BRANCH   1  19
ATOM     17  C   UNL     1       3.291  -2.899  -2.875  0.00  0.00    +0.000 C 
ATOM     18  O   UNL     1       4.514  -3.010  -2.868  0.00  0.00    +0.000 OA
ATOM     19  N   UNL     1       2.553  -3.058  -1.727  0.00  0.00    +0.000 N 
ATOM     20  H   UNL     1       1.548  -3.032  -1.769  0.00  0.00    +0.000 HD
BRANCH  17  28
ATOM     21  C   UNL     1      -0.049  -2.481  -3.608  0.00  0.00    +0.000 A 
ATOM     22  N   UNL     1      -1.251  -2.167  -4.131  0.00  0.00    +0.000 NA
ATOM     23  C   UNL     1      -1.297  -1.767  -5.406  0.00  0.00    +0.000 A 
ATOM     24  N   UNL     1      -0.275  -1.656  -6.246  0.00  0.00    +0.000 NA
ATOM     25  C   UNL     1       0.905  -1.969  -5.683  0.00  0.00    +0.000 A 
ATOM     26  S   UNL     1       2.323  -1.903  -6.614  0.00  0.00    +0.000 S 
ATOM     27  C   UNL     1       3.279  -2.363  -5.285  0.00  0.00    +0.000 A 
ATOM     28  C   UNL     1       2.555  -2.565  -4.112  0.00  0.00    +0.000 A 
ATOM     29  C   UNL     1       1.128  -2.369  -4.369  0.00  0.00    +0.000 A 
BRANCH  21  31
ATOM     30  C   UNL     1      -1.263  -2.986  -1.657  0.00  0.00    +0.000 C 
ATOM     31  O   UNL     1       0.003  -2.943  -2.309  0.00  0.00    +0.000 OA
ENDBRANCH  21  31
ENDBRANCH  17  28
ENDBRANCH   1  19
TORSDOF 8
