REMARK  Name = 
REMARK  10 active torsions:
REMARK  status: ('A' for Active; 'I' for Inactive)
REMARK    1  A    between atoms: C_1  and  C_2
REMARK    2  A    between atoms: C_2  and  C_3
REMARK    3  A    between atoms: C_2  and  C_27
REMARK    4  A    between atoms: C_3  and  N_4
REMARK    5  A    between atoms: N_4  and  C_5
REMARK    6  A    between atoms: C_5  and  C_6
REMARK    7  A    between atoms: C_9  and  C_10
REMARK    8  A    between atoms: C_10  and  N_11
REMARK    9  A    between atoms: C_12  and  C_14
REMARK   10  A    between atoms: N_20  and  C_21
REMARK                            x       y       z     vdW  Elec       q    Type
REMARK                         _______ _______ _______ _____ _____    ______ ____
ROOT
ATOM      1  C   UNL     1       2.703  -4.395   2.044  0.00  0.00    +0.000 A 
ATOM      2  C   UNL     1       2.776  -5.794   1.949  0.00  0.00    +0.000 A 
ATOM      3  C   UNL     1       2.523  -6.611   3.048  0.00  0.00    +0.000 A 
ATOM      4  C   UNL     1       2.173  -6.047   4.282  0.00  0.00    +0.000 A 
ATOM      5  C   UNL     1       2.121  -4.651   4.392  0.00  0.00    +0.000 A 
ATOM      6  C   UNL     1       2.367  -3.833   3.284  0.00  0.00    +0.000 A 
ENDROOT
BRANCH   1   7
ATOM      7  C   UNL     1       3.071  -3.496   0.882  0.00  0.00    +0.000 C 
BRANCH   7   8
ATOM      8  N   UNL     1       2.808  -4.123  -0.408  0.00  0.00    +0.000 NA
ATOM      9  H   UNL     1       3.382  -4.972  -0.475  0.00  0.00    +0.000 HD
BRANCH   8  10
ATOM     10  C   UNL     1       3.259  -3.299  -1.533  0.00  0.00    +0.000 C 
BRANCH  10  12
ATOM     11  C   UNL     1       1.548  -4.345  -3.087  0.00  0.00    +0.000 C 
ATOM     12  C   UNL     1       3.037  -4.035  -2.882  0.00  0.00    +0.000 C 
BRANCH  12  13
ATOM     13  C   UNL     1       3.900  -5.287  -3.027  0.00  0.00    +0.000 A 
ATOM     14  C   UNL     1       3.898  -6.020  -4.214  0.00  0.00    +0.000 A 
ATOM     15  C   UNL     1       4.732  -7.131  -4.329  0.00  0.00    +0.000 A 
ATOM     16  C   UNL     1       5.544  -7.487  -3.258  0.00  0.00    +0.000 A 
ATOM     17  C   UNL     1       5.479  -6.722  -2.107  0.00  0.00    +0.000 A 
ATOM     18  N   UNL     1       4.682  -5.644  -1.974  0.00  0.00    +0.000 NA
ENDBRANCH  12  13
ENDBRANCH  10  12
ENDBRANCH   8  10
ENDBRANCH   7   8
ENDBRANCH   1   7
BRANCH   4  19
ATOM     19  C   UNL     1       1.880  -6.923   5.469  0.00  0.00    +0.000 C 
BRANCH  19  20
ATOM     20  N   UNL     1       3.061  -7.155   6.254  0.00  0.00    +0.000 N 
ATOM     21  C   UNL     1       3.037  -7.936   7.383  0.00  0.00    +0.000 C 
ATOM     22  O   UNL     1       1.997  -8.380   7.857  0.00  0.00    +0.000 OA
ATOM     23  H   UNL     1       3.944  -7.005   5.778  0.00  0.00    +0.000 HD
BRANCH  21  24
ATOM     24  C   UNL     1       4.344  -8.169   8.017  0.00  0.00    +0.000 A 
ATOM     25  C   UNL     1       4.431  -8.396   9.385  0.00  0.00    +0.000 A 
ATOM     26  S   UNL     1       6.033  -8.659   9.916  0.00  0.00    +0.000 S 
ATOM     27  C   UNL     1       6.645  -8.507   8.334  0.00  0.00    +0.000 A 
ATOM     28  N   UNL     1       7.970  -8.659   8.076  0.00  0.00    +0.000 NA
ATOM     29  C   UNL     1       8.288  -8.531   6.827  0.00  0.00    +0.000 A 
ATOM     30  N   UNL     1       7.415  -8.252   5.801  0.00  0.00    +0.000 N 
ATOM     31  C   UNL     1       7.882  -8.074   4.442  0.00  0.00    +0.000 C 
ATOM     32  C   UNL     1       6.060  -8.060   6.032  0.00  0.00    +0.000 A 
ATOM     33  O   UNL     1       5.278  -7.743   5.142  0.00  0.00    +0.000 OA
ATOM     34  C   UNL     1       5.649  -8.225   7.419  0.00  0.00    +0.000 A 
ENDBRANCH  21  24
ENDBRANCH  19  20
ENDBRANCH   4  19
TORSDOF 8
