REMARK  Name = 
REMARK  9 active torsions:
REMARK  status: ('A' for Active; 'I' for Inactive)
REMARK    1  A    between atoms: C_1  and  C_2
REMARK    2  A    between atoms: C_2  and  C_3
REMARK    3  A    between atoms: C_2  and  C_4
REMARK    4  A    between atoms: C_2  and  C_5
REMARK    5  A    between atoms: C_7  and  C_8
REMARK    6  A    between atoms: C_8  and  O_9
REMARK    7  A    between atoms: O_9  and  C_10
REMARK    8  A    between atoms: C_13  and  C_14
REMARK    9  A    between atoms: C_19  and  C_20
REMARK                            x       y       z     vdW  Elec       q    Type
REMARK                         _______ _______ _______ _____ _____    ______ ____
ROOT
ATOM      1  C   UNL     1       2.905  -1.053  -1.045  0.00  0.00    +0.000 A 
ATOM      2  C   UNL     1       3.782  -0.738  -2.099  0.00  0.00    +0.000 A 
ATOM      3  C   UNL     1       4.237  -1.706  -3.010  0.00  0.00    +0.000 A 
ATOM      4  C   UNL     1       3.821  -3.029  -2.859  0.00  0.00    +0.000 A 
ATOM      5  C   UNL     1       2.966  -3.380  -1.811  0.00  0.00    +0.000 A 
ATOM      6  C   UNL     1       2.493  -2.395  -0.930  0.00  0.00    +0.000 A 
ENDROOT
BRANCH   5   7
ATOM      7  C   UNL     1       2.606  -4.815  -1.659  0.00  0.00    +0.000 C 
ATOM      8  N   UNL     1       2.276  -5.251  -0.406  0.00  0.00    +0.000 N 
ATOM      9  O   UNL     1       2.655  -5.596  -2.601  0.00  0.00    +0.000 OA
ATOM     10  H   UNL     1       2.423  -4.699   0.426  0.00  0.00    +0.000 HD
ATOM     11  H   UNL     1       2.172  -6.252  -0.296  0.00  0.00    +0.000 HD
ENDBRANCH   5   7
BRANCH   1  13
ATOM     12  C   UNL     1       3.028   1.404  -0.301  0.00  0.00    +0.000 C 
ATOM     13  C   UNL     1       2.402   0.012  -0.053  0.00  0.00    +0.000 C 
ATOM     14  C   UNL     1       2.751  -0.384   1.399  0.00  0.00    +0.000 C 
ATOM     15  C   UNL     1       0.870   0.145  -0.167  0.00  0.00    +0.000 C 
ENDBRANCH   1  13
BRANCH   3  16
ATOM     16  C   UNL     1       5.216  -1.323  -4.095  0.00  0.00    +0.000 C 
BRANCH  16  17
ATOM     17  O   UNL     1       4.657  -1.597  -5.382  0.00  0.00    +0.000 OA
BRANCH  17  18
ATOM     18  C   UNL     1       5.513  -1.219  -6.398  0.00  0.00    +0.000 A 
ATOM     19  C   UNL     1       5.105  -1.463  -7.700  0.00  0.00    +0.000 A 
ATOM     20  C   UNL     1       5.957  -1.087  -8.740  0.00  0.00    +0.000 A 
ATOM     21  C   UNL     1       7.176  -0.478  -8.440  0.00  0.00    +0.000 A 
ATOM     22  C   UNL     1       7.490  -0.269  -7.107  0.00  0.00    +0.000 A 
ATOM     23  N   UNL     1       6.686  -0.629  -6.083  0.00  0.00    +0.000 NA
BRANCH  21  24
ATOM     24  C   UNL     1       8.085  -0.074  -9.461  0.00  0.00    +0.000 C 
ATOM     25  N   UNL     1       8.834   0.260 -10.284  0.00  0.00    +0.000 NA
ENDBRANCH  21  24
ENDBRANCH  17  18
ENDBRANCH  16  17
ENDBRANCH   3  16
TORSDOF 6
