REMARK  Name = 
REMARK  5 active torsions:
REMARK  status: ('A' for Active; 'I' for Inactive)
REMARK    1  A    between atoms: C_2  and  C_4
REMARK    2  A    between atoms: C_7  and  O_8
REMARK    3  A    between atoms: O_8  and  C_9
REMARK    4  A    between atoms: C_9  and  C_10
REMARK    5  A    between atoms: C_14  and  C_15
REMARK                            x       y       z     vdW  Elec       q    Type
REMARK                         _______ _______ _______ _____ _____    ______ ____
ROOT
ATOM      1  C   UNL     1       5.250  -5.839   0.181  0.00  0.00    +0.000 C 
ENDROOT
BRANCH   1   2
ATOM      2  C   UNL     1       6.207  -6.907   0.662  0.00  0.00    +0.000 A 
ATOM      3  C   UNL     1       7.411  -6.584   1.295  0.00  0.00    +0.000 A 
ATOM      4  C   UNL     1       8.232  -7.590   1.796  0.00  0.00    +0.000 A 
ATOM      5  C   UNL     1       7.841  -8.927   1.700  0.00  0.00    +0.000 A 
ATOM      6  C   UNL     1       6.623  -9.293   1.101  0.00  0.00    +0.000 A 
ATOM      7  C   UNL     1       5.826  -8.259   0.575  0.00  0.00    +0.000 A 
BRANCH   6   8
ATOM      8  C   UNL     1       6.177 -10.702   1.088  0.00  0.00    +0.000 A 
ATOM      9  C   UNL     1       5.396 -11.243   0.066  0.00  0.00    +0.000 A 
ATOM     10  C   UNL     1       4.956 -12.562   0.167  0.00  0.00    +0.000 A 
ATOM     11  C   UNL     1       5.306 -13.313   1.280  0.00  0.00    +0.000 A 
ATOM     12  C   UNL     1       6.095 -12.714   2.245  0.00  0.00    +0.000 A 
ATOM     13  N   UNL     1       6.539 -11.440   2.170  0.00  0.00    +0.000 NA
ENDBRANCH   6   8
ENDBRANCH   1   2
BRANCH   1  14
ATOM     14  O   UNL     1       5.954  -4.662  -0.225  0.00  0.00    +0.000 OA
BRANCH  14  18
ATOM     15  C   UNL     1       3.447  -1.655  -1.490  0.00  0.00    +0.000 A 
ATOM     16  C   UNL     1       4.824  -1.438  -1.464  0.00  0.00    +0.000 A 
ATOM     17  C   UNL     1       5.666  -2.464  -1.026  0.00  0.00    +0.000 A 
ATOM     18  C   UNL     1       5.094  -3.666  -0.638  0.00  0.00    +0.000 A 
ATOM     19  N   UNL     1       3.765  -3.899  -0.647  0.00  0.00    +0.000 NA
ATOM     20  C   UNL     1       2.968  -2.884  -1.061  0.00  0.00    +0.000 A 
BRANCH  15  22
ATOM     21  N   UNL     1       2.889   0.279  -2.849  0.00  0.00    +0.000 N 
ATOM     22  C   UNL     1       2.468  -0.643  -1.931  0.00  0.00    +0.000 C 
ATOM     23  O   UNL     1       1.313  -0.652  -1.526  0.00  0.00    +0.000 OA
ATOM     24  H   UNL     1       2.173   0.888  -3.225  0.00  0.00    +0.000 HD
ATOM     25  H   UNL     1       3.732   0.160  -3.391  0.00  0.00    +0.000 HD
ENDBRANCH  15  22
ENDBRANCH  14  18
ENDBRANCH   1  14
TORSDOF 5
