REMARK  Name = 
REMARK  6 active torsions:
REMARK  status: ('A' for Active; 'I' for Inactive)
REMARK    1  A    between atoms: C_1  and  C_2
REMARK    2  A    between atoms: C_2  and  C_3
REMARK    3  A    between atoms: C_2  and  C_16
REMARK    4  A    between atoms: C_3  and  N_4
REMARK    5  A    between atoms: C_9  and  O_10
REMARK    6  A    between atoms: O_10  and  C_11
REMARK                            x       y       z     vdW  Elec       q    Type
REMARK                         _______ _______ _______ _____ _____    ______ ____
ROOT
ATOM      1  N   UNL     1       2.701  -1.215   2.047  0.00  0.00    +0.000 N 
ATOM      2  C   UNL     1       2.913  -2.460   2.668  0.00  0.00    +0.000 A 
ATOM      3  C   UNL     1       2.641  -2.569   4.030  0.00  0.00    +0.000 A 
ATOM      4  C   UNL     1       2.837  -3.787   4.676  0.00  0.00    +0.000 A 
ATOM      5  C   UNL     1       3.317  -4.867   3.945  0.00  0.00    +0.000 A 
ATOM      6  C   UNL     1       3.568  -4.671   2.600  0.00  0.00    +0.000 A 
ATOM      7  N   UNL     1       3.383  -3.503   1.954  0.00  0.00    +0.000 NA
ATOM      8  H   UNL     1       1.741  -0.936   2.231  0.00  0.00    +0.000 HD
ENDROOT
BRANCH   1   9
ATOM      9  C   UNL     1       2.995  -1.212   0.612  0.00  0.00    +0.000 C 
BRANCH   9  11
ATOM     10  C   UNL     1       3.502   1.283   0.525  0.00  0.00    +0.000 C 
ATOM     11  C   UNL     1       2.653   0.142  -0.049  0.00  0.00    +0.000 C 
BRANCH  11  12
ATOM     12  C   UNL     1       1.152   0.413  -0.047  0.00  0.00    +0.000 A 
ATOM     13  C   UNL     1       0.524   1.172   0.953  0.00  0.00    +0.000 A 
ATOM     14  C   UNL     1      -0.855   1.391   0.926  0.00  0.00    +0.000 A 
ATOM     15  C   UNL     1      -1.630   0.851  -0.098  0.00  0.00    +0.000 A 
ATOM     16  C   UNL     1      -1.023   0.087  -1.089  0.00  0.00    +0.000 A 
ATOM     17 CL   UNL     1      -1.977  -0.588  -2.352  0.00  0.00    +0.000 Cl
ATOM     18  C   UNL     1       0.356  -0.137  -1.066  0.00  0.00    +0.000 A 
ENDBRANCH  11  12
ENDBRANCH   9  11
ENDBRANCH   1   9
BRANCH   6  19
ATOM     19  O   UNL     1       4.053  -5.750   1.890  0.00  0.00    +0.000 OA
BRANCH  19  20
ATOM     20  C   UNL     1       3.839  -5.710   0.459  0.00  0.00    +0.000 C 
ATOM     21  C   UNL     1       4.536  -6.836  -0.329  0.00  0.00    +0.000 C 
ATOM     22  N   UNL     1       4.989  -5.863  -1.337  0.00  0.00    +0.000 NA
ATOM     23  C   UNL     1       4.699  -4.759  -0.401  0.00  0.00    +0.000 C 
ATOM     24  H   UNL     1       4.413  -5.848  -2.178  0.00  0.00    +0.000 HD
ENDBRANCH  19  20
ENDBRANCH   6  19
TORSDOF 5
