REMARK  Name = 
REMARK  6 active torsions:
REMARK  status: ('A' for Active; 'I' for Inactive)
REMARK    1  A    between atoms: N_1  and  C_2
REMARK    2  A    between atoms: C_2  and  C_3
REMARK    3  A    between atoms: C_3  and  O_4
REMARK    4  A    between atoms: O_4  and  C_5
REMARK    5  A    between atoms: C_9  and  C_10
REMARK    6  A    between atoms: C_10  and  N_11
REMARK                            x       y       z     vdW  Elec       q    Type
REMARK                         _______ _______ _______ _____ _____    ______ ____
ROOT
ATOM      1  C   UNL     1       5.060  -2.587  -0.042  0.00  0.00    +0.000 A 
ATOM      2  C   UNL     1       4.615  -3.641  -0.842  0.00  0.00    +0.000 A 
ATOM      3  C   UNL     1       5.338  -4.832  -0.904  0.00  0.00    +0.000 A 
ATOM      4  C   UNL     1       6.531  -4.966  -0.198  0.00  0.00    +0.000 A 
ATOM      5  C   UNL     1       7.026  -3.902   0.570  0.00  0.00    +0.000 A 
ATOM      6  C   UNL     1       6.254  -2.731   0.676  0.00  0.00    +0.000 A 
ENDROOT
BRANCH   1   7
ATOM      7  O   UNL     1       4.431  -1.374   0.094  0.00  0.00    +0.000 OA
BRANCH   7   8
ATOM      8  C   UNL     1       3.310  -1.156  -0.770  0.00  0.00    +0.000 C 
BRANCH   8   9
ATOM      9  C   UNL     1       2.746   0.250  -0.547  0.00  0.00    +0.000 C 
BRANCH   9  10
ATOM     10  N   UNL     1       1.595   0.506  -1.415  0.00  0.00    +0.000 NA
ATOM     11  H   UNL     1       1.225   1.436  -1.218  0.00  0.00    +0.000 HD
ATOM     12  H   UNL     1       0.845  -0.149  -1.194  0.00  0.00    +0.000 HD
ENDBRANCH   9  10
ENDBRANCH   8   9
ENDBRANCH   7   8
ENDBRANCH   1   7
BRANCH   5  13
ATOM     13  C   UNL     1       8.409  -3.976   1.165  0.00  0.00    +0.000 C 
BRANCH  13  14
ATOM     14  N   UNL     1       8.467  -4.598   2.482  0.00  0.00    +0.000 N 
ATOM     15  C   UNL     1       8.654  -5.945   2.689  0.00  0.00    +0.000 A 
ATOM     16  C   UNL     1       8.858  -6.148   4.036  0.00  0.00    +0.000 A 
ATOM     17  C   UNL     1       8.810  -4.881   4.677  0.00  0.00    +0.000 A 
ATOM     18  C   UNL     1       8.975  -4.457   6.004  0.00  0.00    +0.000 A 
ATOM     19  N   UNL     1       8.907  -3.144   6.321  0.00  0.00    +0.000 NA
ATOM     20  C   UNL     1       8.677  -2.251   5.340  0.00  0.00    +0.000 A 
ATOM     21  C   UNL     1       8.496  -2.564   4.000  0.00  0.00    +0.000 A 
ATOM     22  C   UNL     1       8.569  -3.923   3.685  0.00  0.00    +0.000 A 
ENDBRANCH  13  14
ENDBRANCH   5  13
TORSDOF 6
