REMARK  Name = 
REMARK  6 active torsions:
REMARK  status: ('A' for Active; 'I' for Inactive)
REMARK    1  A    between atoms: C_1  and  C_2
REMARK    2  A    between atoms: C_2  and  C_3
REMARK    3  A    between atoms: C_6  and  C_7
REMARK    4  A    between atoms: C_7  and  O_8
REMARK    5  A    between atoms: O_8  and  C_9
REMARK    6  A    between atoms: C_12  and  C_13
REMARK                            x       y       z     vdW  Elec       q    Type
REMARK                         _______ _______ _______ _____ _____    ______ ____
ROOT
ATOM      1  C   UNL     1       6.100  -6.384  -3.021  0.00  0.00    +0.000 A 
ATOM      2  C   UNL     1       7.445  -6.576  -3.331  0.00  0.00    +0.000 A 
ATOM      3  N   UNL     1       7.941  -7.756  -3.799  0.00  0.00    +0.000 NA
ATOM      4  C   UNL     1       7.009  -8.742  -3.940  0.00  0.00    +0.000 A 
ATOM      5  C   UNL     1       5.669  -8.550  -3.640  0.00  0.00    +0.000 A 
ATOM      6  N   UNL     1       5.186  -7.369  -3.179  0.00  0.00    +0.000 NA
ENDROOT
BRANCH   4   7
ATOM      7  C   UNL     1       7.453 -10.080  -4.422  0.00  0.00    +0.000 C 
ATOM      8  N   UNL     1       8.783 -10.223  -4.703  0.00  0.00    +0.000 N 
ATOM      9  O   UNL     1       6.669 -11.010  -4.558  0.00  0.00    +0.000 OA
ATOM     10  H   UNL     1       9.425  -9.448  -4.577  0.00  0.00    +0.000 HD
ATOM     11  H   UNL     1       9.123 -11.120  -5.016  0.00  0.00    +0.000 HD
ENDBRANCH   4   7
BRANCH   1  12
ATOM     12  O   UNL     1       5.703  -5.158  -2.527  0.00  0.00    +0.000 OA
BRANCH  12  13
ATOM     13  C   UNL     1       4.292  -5.119  -2.264  0.00  0.00    +0.000 C 
BRANCH  13  17
ATOM     14  C   UNL     1       2.906  -1.352  -0.606  0.00  0.00    +0.000 A 
ATOM     15  C   UNL     1       4.045  -1.389  -1.421  0.00  0.00    +0.000 A 
ATOM     16  C   UNL     1       4.516  -2.599  -1.941  0.00  0.00    +0.000 A 
ATOM     17  C   UNL     1       3.860  -3.801  -1.654  0.00  0.00    +0.000 A 
ATOM     18  C   UNL     1       2.711  -3.760  -0.846  0.00  0.00    +0.000 A 
ATOM     19  C   UNL     1       2.240  -2.550  -0.327  0.00  0.00    +0.000 A 
BRANCH  14  21
ATOM     20  C   UNL     1       1.434   0.668  -0.979  0.00  0.00    +0.000 C 
ATOM     21  C   UNL     1       2.408  -0.041  -0.050  0.00  0.00    +0.000 C 
ENDBRANCH  14  21
ENDBRANCH  13  17
ENDBRANCH  12  13
ENDBRANCH   1  12
TORSDOF 5
