REMARK  Name = 
REMARK  5 active torsions:
REMARK  status: ('A' for Active; 'I' for Inactive)
REMARK    1  A    between atoms: C_2  and  C_4
REMARK    2  A    between atoms: C_7  and  N_8
REMARK    3  A    between atoms: N_8  and  C_9
REMARK    4  A    between atoms: C_9  and  C_10
REMARK    5  A    between atoms: C_15  and  N_16
REMARK                            x       y       z     vdW  Elec       q    Type
REMARK                         _______ _______ _______ _____ _____    ______ ____
ROOT
ATOM      1  C   UNL     1       5.522  -5.573   1.517  0.00  0.00    +0.000 C 
ATOM      2  C   UNL     1       5.310  -6.529   0.352  0.00  0.00    +0.000 C 
ATOM      3  C   UNL     1       4.239  -6.400   1.379  0.00  0.00    +0.000 C 
ENDROOT
BRANCH   1   4
ATOM      4  C   UNL     1       6.336  -6.006   2.732  0.00  0.00    +0.000 A 
ATOM      5  C   UNL     1       5.852  -5.796   4.038  0.00  0.00    +0.000 A 
ATOM      6  C   UNL     1       6.350  -6.536   5.107  0.00  0.00    +0.000 A 
ATOM      7  C   UNL     1       7.332  -7.496   4.876  0.00  0.00    +0.000 A 
ATOM      8  F   UNL     1       7.697  -8.283   5.902  0.00  0.00    +0.000 F 
ATOM      9  C   UNL     1       7.917  -7.661   3.611  0.00  0.00    +0.000 A 
ATOM     10  C   UNL     1       7.455  -6.837   2.580  0.00  0.00    +0.000 A 
BRANCH   9  11
ATOM     11  N   UNL     1       8.810  -8.662   3.284  0.00  0.00    +0.000 N 
ATOM     12  C   UNL     1       8.665 -10.022   3.810  0.00  0.00    +0.000 C 
ATOM     13  C   UNL     1       9.816 -10.370   4.760  0.00  0.00    +0.000 C 
ATOM     14  O   UNL     1      11.097 -10.117   4.154  0.00  0.00    +0.000 OA
ATOM     15  C   UNL     1      11.216  -8.728   3.806  0.00  0.00    +0.000 C 
ATOM     16  C   UNL     1      10.140  -8.314   2.782  0.00  0.00    +0.000 C 
ENDBRANCH   9  11
ENDBRANCH   1   4
BRANCH   1  17
ATOM     17  N   UNL     1       5.460  -4.130   1.275  0.00  0.00    +0.000 N 
ATOM     18  H   UNL     1       4.574  -3.656   1.410  0.00  0.00    +0.000 HD
BRANCH  17  22
ATOM     19  C   UNL     1       8.316  -1.821  -0.837  0.00  0.00    +0.000 A 
ATOM     20  C   UNL     1       8.367  -3.216  -0.916  0.00  0.00    +0.000 A 
ATOM     21  C   UNL     1       7.423  -3.995  -0.230  0.00  0.00    +0.000 A 
ATOM     22  C   UNL     1       6.391  -3.401   0.507  0.00  0.00    +0.000 A 
ATOM     23  C   UNL     1       6.360  -2.003   0.586  0.00  0.00    +0.000 A 
ATOM     24  C   UNL     1       7.314  -1.219  -0.071  0.00  0.00    +0.000 A 
BRANCH  19  26
ATOM     25  N   UNL     1       9.941  -1.417  -2.614  0.00  0.00    +0.000 N 
ATOM     26  C   UNL     1       9.318  -0.941  -1.494  0.00  0.00    +0.000 C 
ATOM     27  O   UNL     1       9.560   0.182  -1.074  0.00  0.00    +0.000 OA
ATOM     28  H   UNL     1      10.538  -0.756  -3.102  0.00  0.00    +0.000 HD
ATOM     29  H   UNL     1       9.597  -2.209  -3.132  0.00  0.00    +0.000 HD
ENDBRANCH  19  26
ENDBRANCH  17  22
ENDBRANCH   1  17
TORSDOF 5
