REMARK  Name = 
REMARK  5 active torsions:
REMARK  status: ('A' for Active; 'I' for Inactive)
REMARK    1  A    between atoms: C_2  and  C_4
REMARK    2  A    between atoms: C_7  and  N_8
REMARK    3  A    between atoms: N_8  and  C_9
REMARK    4  A    between atoms: C_9  and  C_10
REMARK    5  A    between atoms: C_14  and  N_15
REMARK                            x       y       z     vdW  Elec       q    Type
REMARK                         _______ _______ _______ _____ _____    ______ ____
ROOT
ATOM      1  N   UNL     1       4.382   3.417  -3.717  0.00  0.00    +0.000 N 
ATOM      2  H   UNL     1       5.237   2.910  -3.974  0.00  0.00    +0.000 HD
ENDROOT
BRANCH   1   6
ATOM      3  C   UNL     1       2.222   1.128  -0.923  0.00  0.00    +0.000 A 
ATOM      4  C   UNL     1       2.006   2.506  -0.973  0.00  0.00    +0.000 A 
ATOM      5  C   UNL     1       2.744   3.300  -1.855  0.00  0.00    +0.000 A 
ATOM      6  C   UNL     1       3.735   2.748  -2.663  0.00  0.00    +0.000 A 
ATOM      7  C   UNL     1       3.982   1.365  -2.544  0.00  0.00    +0.000 A 
ATOM      8  C   UNL     1       3.243   0.558  -1.678  0.00  0.00    +0.000 A 
BRANCH   3  10
ATOM      9  N   UNL     1       0.013   0.631  -0.080  0.00  0.00    +0.000 N 
ATOM     10  C   UNL     1       1.321   0.236  -0.157  0.00  0.00    +0.000 C 
ATOM     11  O   UNL     1       1.697  -0.832   0.306  0.00  0.00    +0.000 OA
ATOM     12  H   UNL     1      -0.640  -0.058   0.267  0.00  0.00    +0.000 HD
ATOM     13  H   UNL     1      -0.355   1.342  -0.698  0.00  0.00    +0.000 HD
ENDBRANCH   3  10
ENDBRANCH   1   6
BRANCH   1  14
ATOM     14  C   UNL     1       4.603   4.872  -3.964  0.00  0.00    +0.000 C 
ATOM     15  C   UNL     1       4.208   6.018  -3.044  0.00  0.00    +0.000 C 
ATOM     16  C   UNL     1       3.403   5.738  -4.276  0.00  0.00    +0.000 C 
BRANCH  14  17
ATOM     17  C   UNL     1       6.005   5.099  -4.593  0.00  0.00    +0.000 A 
ATOM     18  N   UNL     1       6.375   6.325  -5.019  0.00  0.00    +0.000 NA
ATOM     19  C   UNL     1       7.697   6.567  -5.067  0.00  0.00    +0.000 A 
ATOM     20  C   UNL     1       8.648   5.625  -4.730  0.00  0.00    +0.000 A 
ATOM     21  C   UNL     1       8.187   4.373  -4.435  0.00  0.00    +0.000 A 
ATOM     22  N   UNL     1       6.885   4.081  -4.395  0.00  0.00    +0.000 NA
BRANCH  21  23
ATOM     23  N   UNL     1       9.042   3.356  -4.029  0.00  0.00    +0.000 N 
ATOM     24  H   UNL     1       9.838   3.236  -4.642  0.00  0.00    +0.000 HD
ATOM     25  H   UNL     1       8.501   2.503  -3.918  0.00  0.00    +0.000 HD
ENDBRANCH  21  23
ENDBRANCH  14  17
ENDBRANCH   1  14
TORSDOF 5
