REMARK  Name = 
REMARK  6 active torsions:
REMARK  status: ('A' for Active; 'I' for Inactive)
REMARK    1  A    between atoms: C_2  and  C_19
REMARK    2  A    between atoms: N_3  and  C_4
REMARK    3  A    between atoms: C_4  and  C_5
REMARK    4  A    between atoms: C_8  and  O_9
REMARK    5  A    between atoms: O_9  and  C_10
REMARK    6  A    between atoms: C_10  and  C_11
REMARK                            x       y       z     vdW  Elec       q    Type
REMARK                         _______ _______ _______ _____ _____    ______ ____
ROOT
ATOM      1  O   UNL     1      -0.338   3.280   1.555  0.00  0.00    +0.000 OA
ATOM      2  C   UNL     1      -0.109   2.339   2.294  0.00  0.00    +0.000 C 
ATOM      3  N   UNL     1       1.023   1.555   2.240  0.00  0.00    +0.000 N 
ATOM      4  H   UNL     1       1.234   0.972   3.031  0.00  0.00    +0.000 HD
ENDROOT
BRANCH   2   5
ATOM      5  C   UNL     1      -0.887   2.052   3.497  0.00  0.00    +0.000 A 
ATOM      6  C   UNL     1      -1.432   3.052   4.287  0.00  0.00    +0.000 A 
ATOM      7  S   UNL     1      -1.763   2.484   5.874  0.00  0.00    +0.000 S 
ATOM      8  C   UNL     1      -1.318   0.890   5.458  0.00  0.00    +0.000 A 
ATOM      9  N   UNL     1      -1.203  -0.105   6.377  0.00  0.00    +0.000 NA
ATOM     10  C   UNL     1      -0.900  -1.257   5.874  0.00  0.00    +0.000 A 
ATOM     11  N   UNL     1      -0.759  -1.521   4.532  0.00  0.00    +0.000 N 
ATOM     12  C   UNL     1      -0.895  -0.554   3.565  0.00  0.00    +0.000 A 
ATOM     13  O   UNL     1      -0.863  -0.818   2.369  0.00  0.00    +0.000 OA
ATOM     14  C   UNL     1      -1.086   0.775   4.104  0.00  0.00    +0.000 A 
ATOM     15  H   UNL     1      -0.618  -2.464   4.199  0.00  0.00    +0.000 HD
ENDBRANCH   2   5
BRANCH   3  16
ATOM     16  C   UNL     1       2.200   1.956   1.504  0.00  0.00    +0.000 C 
BRANCH  16  17
ATOM     17  C   UNL     1       3.137   2.732   2.406  0.00  0.00    +0.000 A 
ATOM     18  C   UNL     1       2.990   4.109   2.538  0.00  0.00    +0.000 A 
ATOM     19  C   UNL     1       3.845   4.807   3.392  0.00  0.00    +0.000 A 
ATOM     20  C   UNL     1       4.826   4.120   4.100  0.00  0.00    +0.000 A 
ATOM     21  C   UNL     1       4.863   2.740   3.955  0.00  0.00    +0.000 A 
ATOM     22  N   UNL     1       4.043   2.029   3.135  0.00  0.00    +0.000 NA
BRANCH  20  23
ATOM     23  O   UNL     1       5.730   4.688   4.952  0.00  0.00    +0.000 OA
BRANCH  23  24
ATOM     24  C   UNL     1       6.109   6.031   4.617  0.00  0.00    +0.000 C 
BRANCH  24  25
ATOM     25  C   UNL     1       7.166   6.557   5.565  0.00  0.00    +0.000 A 
ATOM     26  N   UNL     1       8.463   6.355   5.252  0.00  0.00    +0.000 NA
ATOM     27  C   UNL     1       9.372   6.893   6.088  0.00  0.00    +0.000 A 
ATOM     28  C   UNL     1       9.042   7.619   7.207  0.00  0.00    +0.000 A 
ATOM     29  C   UNL     1       7.697   7.768   7.441  0.00  0.00    +0.000 A 
ATOM     30  N   UNL     1       6.743   7.255   6.643  0.00  0.00    +0.000 NA
ENDBRANCH  24  25
ENDBRANCH  23  24
ENDBRANCH  20  23
ENDBRANCH  16  17
ENDBRANCH   3  16
TORSDOF 6
