REMARK  Name = 
REMARK  6 active torsions:
REMARK  status: ('A' for Active; 'I' for Inactive)
REMARK    1  A    between atoms: C_1  and  C_2
REMARK    2  A    between atoms: C_2  and  N_3
REMARK    3  A    between atoms: C_2  and  C_16
REMARK    4  A    between atoms: C_4  and  C_6
REMARK    5  A    between atoms: C_19  and  O_20
REMARK    6  A    between atoms: O_20  and  C_21
REMARK                            x       y       z     vdW  Elec       q    Type
REMARK                         _______ _______ _______ _____ _____    ______ ____
ROOT
ATOM      1  C   UNL     1       3.095  -0.783   1.385  0.00  0.00    +0.000 C 
ATOM      2  C   UNL     1       2.477  -0.061   0.182  0.00  0.00    +0.000 C 
ENDROOT
BRANCH   2   3
ATOM      3  C   UNL     1       2.936  -0.613  -1.156  0.00  0.00    +0.000 A 
ATOM      4  C   UNL     1       3.047   0.263  -2.247  0.00  0.00    +0.000 A 
ATOM      5  C   UNL     1       3.468  -0.200  -3.495  0.00  0.00    +0.000 A 
ATOM      6  C   UNL     1       3.812  -1.542  -3.665  0.00  0.00    +0.000 A 
ATOM      7  C   UNL     1       3.651  -2.433  -2.606  0.00  0.00    +0.000 A 
ATOM      8  C   UNL     1       3.210  -1.974  -1.362  0.00  0.00    +0.000 A 
BRANCH   6   9
ATOM      9  O   UNL     1       4.227  -2.078  -4.861  0.00  0.00    +0.000 OA
BRANCH   9  10
ATOM     10  C   UNL     1       5.108  -1.336  -5.642  0.00  0.00    +0.000 A 
ATOM     11  C   UNL     1       5.119  -1.629  -6.997  0.00  0.00    +0.000 A 
ATOM     12  C   UNL     1       5.973  -0.904  -7.821  0.00  0.00    +0.000 A 
ATOM     13  C   UNL     1       6.788   0.077  -7.264  0.00  0.00    +0.000 A 
ATOM     14  C   UNL     1       6.726   0.281  -5.895  0.00  0.00    +0.000 A 
ATOM     15  N   UNL     1       5.914  -0.413  -5.071  0.00  0.00    +0.000 NA
ENDBRANCH   9  10
ENDBRANCH   6   9
ENDBRANCH   2   3
BRANCH   2  16
ATOM     16  N   UNL     1       1.027  -0.097   0.240  0.00  0.00    +0.000 N 
ATOM     17  C   UNL     1       0.291   0.777   0.993  0.00  0.00    +0.000 C 
ATOM     18  O   UNL     1       0.828   1.668   1.649  0.00  0.00    +0.000 OA
ATOM     19  H   UNL     1       0.570  -0.835  -0.287  0.00  0.00    +0.000 HD
BRANCH  17  20
ATOM     20  C   UNL     1      -1.173   0.611   0.991  0.00  0.00    +0.000 A 
ATOM     21  C   UNL     1      -1.952   1.512   1.708  0.00  0.00    +0.000 A 
ATOM     22  S   UNL     1      -3.622   1.185   1.648  0.00  0.00    +0.000 S 
ATOM     23  C   UNL     1      -3.373  -0.176   0.660  0.00  0.00    +0.000 A 
ATOM     24  N   UNL     1      -4.424  -0.939   0.256  0.00  0.00    +0.000 NA
ATOM     25  C   UNL     1      -4.101  -1.941  -0.490  0.00  0.00    +0.000 A 
ATOM     26  N   UNL     1      -2.822  -2.244  -0.876  0.00  0.00    +0.000 N 
ATOM     27  C   UNL     1      -1.730  -1.501  -0.494  0.00  0.00    +0.000 A 
ATOM     28  O   UNL     1      -0.601  -1.806  -0.866  0.00  0.00    +0.000 OA
ATOM     29  C   UNL     1      -2.033  -0.369   0.362  0.00  0.00    +0.000 A 
ATOM     30  H   UNL     1      -2.635  -3.038  -1.470  0.00  0.00    +0.000 HD
ENDBRANCH  17  20
ENDBRANCH   2  16
TORSDOF 5
