REMARK  Name = 
REMARK  9 active torsions:
REMARK  status: ('A' for Active; 'I' for Inactive)
REMARK    1  A    between atoms: C_1  and  O_2
REMARK    2  A    between atoms: O_2  and  C_3
REMARK    3  A    between atoms: C_10  and  C_11
REMARK    4  A    between atoms: N_13  and  C_14
REMARK    5  A    between atoms: C_14  and  C_15
REMARK    6  A    between atoms: C_18  and  C_19
REMARK    7  A    between atoms: C_19  and  N_20
REMARK    8  A    between atoms: N_20  and  C_21
REMARK    9  A    between atoms: C_21  and  C_22
REMARK                            x       y       z     vdW  Elec       q    Type
REMARK                         _______ _______ _______ _____ _____    ______ ____
ROOT
ATOM      1  C   UNL     1       2.800   3.277   0.246  0.00  0.00    +0.000 C 
ENDROOT
BRANCH   1   2
ATOM      2  C   UNL     1       1.607   3.179  -0.673  0.00  0.00    +0.000 A 
ATOM      3  C   UNL     1       1.324   1.985  -1.349  0.00  0.00    +0.000 A 
ATOM      4  C   UNL     1       0.157   1.854  -2.110  0.00  0.00    +0.000 A 
ATOM      5  C   UNL     1      -0.754   2.914  -2.223  0.00  0.00    +0.000 A 
ATOM      6  C   UNL     1      -0.430   4.134  -1.614  0.00  0.00    +0.000 A 
ATOM      7  C   UNL     1       0.739   4.267  -0.851  0.00  0.00    +0.000 A 
BRANCH   5   8
ATOM      8  C   UNL     1      -2.058   2.730  -2.975  0.00  0.00    +0.000 C 
BRANCH   8   9
ATOM      9  N   UNL     1      -2.845   1.636  -2.399  0.00  0.00    +0.000 NA
ATOM     10  H   UNL     1      -3.075   1.875  -1.433  0.00  0.00    +0.000 HD
BRANCH   9  11
ATOM     11  C   UNL     1      -4.106   1.433  -3.127  0.00  0.00    +0.000 C 
BRANCH  11  12
ATOM     12  C   UNL     1      -4.953   0.322  -2.523  0.00  0.00    +0.000 A 
ATOM     13  C   UNL     1      -4.462  -0.983  -2.461  0.00  0.00    +0.000 A 
ATOM     14  C   UNL     1      -5.265  -1.979  -1.916  0.00  0.00    +0.000 A 
ATOM     15  C   UNL     1      -6.532  -1.656  -1.446  0.00  0.00    +0.000 A 
ATOM     16  C   UNL     1      -6.945  -0.338  -1.542  0.00  0.00    +0.000 A 
ATOM     17  N   UNL     1      -6.189   0.655  -2.065  0.00  0.00    +0.000 NA
ENDBRANCH  11  12
ENDBRANCH   9  11
ENDBRANCH   8   9
ENDBRANCH   5   8
ENDBRANCH   1   2
BRANCH   1  20
ATOM     18  C   UNL     1       5.176   3.907   0.221  0.00  0.00    +0.000 C 
ATOM     19  O   UNL     1       5.294   3.635   1.414  0.00  0.00    +0.000 OA
ATOM     20  N   UNL     1       3.979   3.755  -0.428  0.00  0.00    +0.000 N 
ATOM     21  H   UNL     1       3.902   3.961  -1.413  0.00  0.00    +0.000 HD
BRANCH  18  29
ATOM     22  C   UNL     1       5.585   4.737  -3.085  0.00  0.00    +0.000 A 
ATOM     23  N   UNL     1       5.973   5.217  -4.282  0.00  0.00    +0.000 NA
ATOM     24  C   UNL     1       7.204   5.726  -4.383  0.00  0.00    +0.000 A 
ATOM     25  N   UNL     1       8.124   5.797  -3.423  0.00  0.00    +0.000 NA
ATOM     26  C   UNL     1       7.689   5.320  -2.244  0.00  0.00    +0.000 A 
ATOM     27  S   UNL     1       8.731   5.313  -0.903  0.00  0.00    +0.000 S 
ATOM     28  C   UNL     1       7.525   4.647   0.093  0.00  0.00    +0.000 A 
ATOM     29  C   UNL     1       6.314   4.431  -0.557  0.00  0.00    +0.000 A 
ATOM     30  C   UNL     1       6.431   4.796  -1.965  0.00  0.00    +0.000 A 
BRANCH  22  32
ATOM     31  C   UNL     1       3.836   3.652  -4.195  0.00  0.00    +0.000 C 
ATOM     32  O   UNL     1       4.317   4.211  -2.976  0.00  0.00    +0.000 OA
ENDBRANCH  22  32
ENDBRANCH  18  29
ENDBRANCH   1  20
TORSDOF 8
