REMARK  Name = 
REMARK  11 active torsions:
REMARK  status: ('A' for Active; 'I' for Inactive)
REMARK    1  A    between atoms: C_1  and  C_2
REMARK    2  A    between atoms: C_2  and  C_3
REMARK    3  A    between atoms: C_3  and  O_4
REMARK    4  A    between atoms: O_4  and  C_5
REMARK    5  A    between atoms: C_7  and  C_8
REMARK    6  A    between atoms: C_8  and  N_9
REMARK    7  A    between atoms: C_10  and  C_12
REMARK    8  A    between atoms: C_24  and  C_25
REMARK    9  A    between atoms: C_25  and  N_26
REMARK   10  A    between atoms: N_26  and  C_27
REMARK   11  A    between atoms: C_27  and  C_28
REMARK                            x       y       z     vdW  Elec       q    Type
REMARK                         _______ _______ _______ _____ _____    ______ ____
ROOT
ATOM      1  C   UNL     1       5.117   0.889   2.469  0.00  0.00    +0.000 A 
ATOM      2  C   UNL     1       4.752   0.446   3.748  0.00  0.00    +0.000 A 
ATOM      3  C   UNL     1       5.522   0.745   4.878  0.00  0.00    +0.000 A 
ATOM      4  C   UNL     1       6.665   1.531   4.725  0.00  0.00    +0.000 A 
ATOM      5  C   UNL     1       7.017   2.021   3.465  0.00  0.00    +0.000 A 
ATOM      6  C   UNL     1       6.243   1.724   2.325  0.00  0.00    +0.000 A 
ENDROOT
BRANCH   1   7
ATOM      7  O   UNL     1       4.432   0.544   1.327  0.00  0.00    +0.000 OA
BRANCH   7   8
ATOM      8  C   UNL     1       3.364  -0.391   1.502  0.00  0.00    +0.000 C 
BRANCH   8  10
ATOM      9  C   UNL     1       1.631  -1.751   0.308  0.00  0.00    +0.000 C 
ATOM     10  C   UNL     1       2.780  -0.767   0.146  0.00  0.00    +0.000 C 
ENDBRANCH   8  10
ENDBRANCH   7   8
ENDBRANCH   1   7
BRANCH   3  11
ATOM     11  C   UNL     1       5.080   0.241   6.225  0.00  0.00    +0.000 C 
BRANCH  11  12
ATOM     12  N   UNL     1       4.239   1.198   6.896  0.00  0.00    +0.000 N 
ATOM     13  C   UNL     1       2.872   1.119   6.903  0.00  0.00    +0.000 C 
ATOM     14  O   UNL     1       2.263   0.218   6.333  0.00  0.00    +0.000 OA
ATOM     15  H   UNL     1       4.687   2.061   7.190  0.00  0.00    +0.000 HD
BRANCH  13  16
ATOM     16  C   UNL     1       2.165   2.131   7.703  0.00  0.00    +0.000 A 
ATOM     17  C   UNL     1       0.872   1.874   8.143  0.00  0.00    +0.000 A 
ATOM     18  S   UNL     1       0.212   3.120   9.101  0.00  0.00    +0.000 S 
ATOM     19  C   UNL     1       1.611   4.072   8.923  0.00  0.00    +0.000 A 
ATOM     20  N   UNL     1       1.692   5.305   9.492  0.00  0.00    +0.000 NA
ATOM     21  C   UNL     1       2.792   5.934   9.247  0.00  0.00    +0.000 A 
ATOM     22  N   UNL     1       3.824   5.437   8.494  0.00  0.00    +0.000 N 
ATOM     23  C   UNL     1       3.814   4.172   7.958  0.00  0.00    +0.000 A 
ATOM     24  O   UNL     1       4.802   3.717   7.389  0.00  0.00    +0.000 OA
ATOM     25  C   UNL     1       2.580   3.437   8.165  0.00  0.00    +0.000 A 
ATOM     26  H   UNL     1       4.670   5.971   8.362  0.00  0.00    +0.000 HD
ENDBRANCH  13  16
ENDBRANCH  11  12
ENDBRANCH   3  11
BRANCH   6  27
ATOM     27  C   UNL     1       6.634   2.336   0.994  0.00  0.00    +0.000 C 
BRANCH  27  28
ATOM     28  N   UNL     1       5.620   3.279   0.535  0.00  0.00    +0.000 NA
ATOM     29  H   UNL     1       5.468   3.993   1.244  0.00  0.00    +0.000 HD
BRANCH  28  30
ATOM     30  C   UNL     1       5.979   3.929  -0.726  0.00  0.00    +0.000 C 
BRANCH  30  31
ATOM     31  C   UNL     1       4.853   4.830  -1.209  0.00  0.00    +0.000 A 
ATOM     32  C   UNL     1       3.602   4.279  -1.488  0.00  0.00    +0.000 A 
ATOM     33  C   UNL     1       2.562   5.123  -1.865  0.00  0.00    +0.000 A 
ATOM     34  C   UNL     1       2.799   6.488  -1.960  0.00  0.00    +0.000 A 
ATOM     35  C   UNL     1       4.072   6.955  -1.679  0.00  0.00    +0.000 A 
ATOM     36  N   UNL     1       5.102   6.164  -1.304  0.00  0.00    +0.000 NA
ENDBRANCH  30  31
ENDBRANCH  28  30
ENDBRANCH  27  28
ENDBRANCH   6  27
TORSDOF 10
