REMARK  Name = 
REMARK  7 active torsions:
REMARK  status: ('A' for Active; 'I' for Inactive)
REMARK    1  A    between atoms: N_1  and  C_2
REMARK    2  A    between atoms: C_2  and  C_3
REMARK    3  A    between atoms: C_6  and  O_7
REMARK    4  A    between atoms: O_7  and  C_8
REMARK    5  A    between atoms: C_8  and  C_9
REMARK    6  A    between atoms: C_9  and  O_10
REMARK    7  A    between atoms: C_13  and  O_14
REMARK                            x       y       z     vdW  Elec       q    Type
REMARK                         _______ _______ _______ _____ _____    ______ ____
ROOT
ATOM      1  O   UNL     1       3.509  -4.327   3.389  0.00  0.00    +0.000 OA
ENDROOT
BRANCH   1   5
ATOM      2  C   UNL     1       1.895  -1.107   1.263  0.00  0.00    +0.000 A 
ATOM      3  C   UNL     1       2.434  -0.878   2.538  0.00  0.00    +0.000 A 
ATOM      4  C   UNL     1       2.995  -1.922   3.283  0.00  0.00    +0.000 A 
ATOM      5  C   UNL     1       3.020  -3.215   2.764  0.00  0.00    +0.000 A 
ATOM      6  C   UNL     1       2.502  -3.446   1.488  0.00  0.00    +0.000 A 
ATOM      7  C   UNL     1       1.943  -2.405   0.742  0.00  0.00    +0.000 A 
BRANCH   2   8
ATOM      8  C   UNL     1       1.239   0.008   0.488  0.00  0.00    +0.000 C 
BRANCH   8   9
ATOM      9  N   UNL     1       2.144   1.131   0.274  0.00  0.00    +0.000 NA
ATOM     10  H   UNL     1       1.707   1.791  -0.367  0.00  0.00    +0.000 HD
ATOM     11  H   UNL     1       2.982   0.790  -0.194  0.00  0.00    +0.000 HD
ENDBRANCH   8   9
ENDBRANCH   2   8
ENDBRANCH   1   5
BRANCH   1  12
ATOM     12  C   UNL     1       3.988  -4.184   4.735  0.00  0.00    +0.000 C 
BRANCH  12  13
ATOM     13  C   UNL     1       4.396  -5.592   5.240  0.00  0.00    +0.000 C 
ATOM     14  C   UNL     1       3.226  -6.592   5.214  0.00  0.00    +0.000 C 
ATOM     15  C   UNL     1       2.184  -6.310   6.297  0.00  0.00    +0.000 C 
ATOM     16  C   UNL     1       2.801  -6.236   7.693  0.00  0.00    +0.000 C 
ATOM     17  C   UNL     1       4.006  -5.297   7.761  0.00  0.00    +0.000 C 
ATOM     18  C   UNL     1       5.020  -5.544   6.644  0.00  0.00    +0.000 C 
BRANCH  13  19
ATOM     19  O   UNL     1       5.408  -6.100   4.355  0.00  0.00    +0.000 OA
ATOM     20  H   UNL     1       5.073  -5.958   3.448  0.00  0.00    +0.000 HD
ENDBRANCH  13  19
BRANCH  16  21
ATOM     21  O   UNL     1       3.178  -7.543   8.127  0.00  0.00    +0.000 OA
ATOM     22  H   UNL     1       3.875  -7.881   7.541  0.00  0.00    +0.000 HD
ENDBRANCH  16  21
ENDBRANCH  12  13
ENDBRANCH   1  12
TORSDOF 7
