REMARK  Name = 
REMARK  6 active torsions:
REMARK  status: ('A' for Active; 'I' for Inactive)
REMARK    1  A    between atoms: C_1  and  C_2
REMARK    2  A    between atoms: C_7  and  C_8
REMARK    3  A    between atoms: C_10  and  C_11
REMARK    4  A    between atoms: C_11  and  C_12
REMARK    5  A    between atoms: C_12  and  N_13
REMARK    6  A    between atoms: C_17  and  C_18
REMARK                            x       y       z     vdW  Elec       q    Type
REMARK                         _______ _______ _______ _____ _____    ______ ____
ROOT
ATOM      1  C   UNL     1       0.824  -2.619   0.027  0.00  0.00    +0.000 A 
ATOM      2  C   UNL     1       1.526  -3.060   1.167  0.00  0.00    +0.000 A 
ATOM      3  C   UNL     1       2.250  -4.253   1.170  0.00  0.00    +0.000 A 
ATOM      4  N   UNL     1       2.205  -5.117   0.139  0.00  0.00    +0.000 NA
ATOM      5  C   UNL     1       1.467  -4.750  -0.930  0.00  0.00    +0.000 A 
ATOM      6  C   UNL     1       0.807  -3.527  -1.055  0.00  0.00    +0.000 A 
ATOM      7 CL   UNL     1       0.063  -3.232  -2.589  0.00  0.00    +0.000 Cl
ENDROOT
BRANCH   1  14
ATOM      8  C   UNL     1       2.047  -0.051   1.341  0.00  0.00    +0.000 C 
ATOM      9  C   UNL     1       0.733  -0.097   0.612  0.00  0.00    +0.000 A 
ATOM     10  N   UNL     1       0.120   1.122   0.594  0.00  0.00    +0.000 NA
ATOM     11  C   UNL     1      -1.062   1.239  -0.034  0.00  0.00    +0.000 A 
ATOM     12  C   UNL     1      -1.697   0.178  -0.633  0.00  0.00    +0.000 A 
ATOM     13  C   UNL     1      -1.087  -1.074  -0.570  0.00  0.00    +0.000 A 
ATOM     14  C   UNL     1       0.176  -1.264   0.030  0.00  0.00    +0.000 A 
ENDBRANCH   1  14
BRANCH   3  15
ATOM     15  C   UNL     1       3.165  -4.590   2.320  0.00  0.00    +0.000 C 
BRANCH  15  16
ATOM     16  C   UNL     1       2.689  -5.845   3.036  0.00  0.00    +0.000 C 
BRANCH  16  17
ATOM     17  N   UNL     1       3.573  -6.174   4.146  0.00  0.00    +0.000 N 
ATOM     18  C   UNL     1       3.218  -7.356   4.782  0.00  0.00    +0.000 A 
ATOM     19  N   UNL     1       2.591  -8.322   4.097  0.00  0.00    +0.000 NA
ATOM     20  C   UNL     1       2.231  -9.432   4.758  0.00  0.00    +0.000 A 
ATOM     21  C   UNL     1       2.472  -9.623   6.096  0.00  0.00    +0.000 A 
ATOM     22  C   UNL     1       3.125  -8.585   6.717  0.00  0.00    +0.000 A 
ATOM     23  N   UNL     1       3.495  -7.445   6.090  0.00  0.00    +0.000 NA
ATOM     24  H   UNL     1       3.668  -5.481   4.877  0.00  0.00    +0.000 HD
BRANCH  21  25
ATOM     25  C   UNL     1       2.050 -10.849   6.808  0.00  0.00    +0.000 C 
ATOM     26  F   UNL     1       1.377 -11.730   6.018  0.00  0.00    +0.000 F 
ATOM     27  F   UNL     1       3.101 -11.539   7.326  0.00  0.00    +0.000 F 
ATOM     28  F   UNL     1       1.222 -10.584   7.855  0.00  0.00    +0.000 F 
ENDBRANCH  21  25
ENDBRANCH  16  17
ENDBRANCH  15  16
ENDBRANCH   3  15
TORSDOF 5
