REMARK  Name = 
REMARK  5 active torsions:
REMARK  status: ('A' for Active; 'I' for Inactive)
REMARK    1  A    between atoms: C_2  and  C_4
REMARK    2  A    between atoms: C_7  and  O_8
REMARK    3  A    between atoms: O_8  and  C_9
REMARK    4  A    between atoms: C_9  and  C_10
REMARK    5  A    between atoms: C_15  and  C_16
REMARK                            x       y       z     vdW  Elec       q    Type
REMARK                         _______ _______ _______ _____ _____    ______ ____
ROOT
ATOM      1  C   UNL     1       5.081   2.731   5.076  0.00  0.00    +0.000 C 
ENDROOT
BRANCH   1   2
ATOM      2  C   UNL     1       6.059   3.508   5.930  0.00  0.00    +0.000 A 
ATOM      3  C   UNL     1       5.943   4.901   6.019  0.00  0.00    +0.000 A 
ATOM      4  C   UNL     1       6.800   5.622   6.844  0.00  0.00    +0.000 A 
ATOM      5  C   UNL     1       7.777   4.956   7.584  0.00  0.00    +0.000 A 
ATOM      6  F   UNL     1       8.587   5.708   8.344  0.00  0.00    +0.000 F 
ATOM      7  C   UNL     1       7.924   3.559   7.543  0.00  0.00    +0.000 A 
ATOM      8  C   UNL     1       7.031   2.855   6.709  0.00  0.00    +0.000 A 
BRANCH   7   9
ATOM      9  C   UNL     1       8.955   2.846   8.329  0.00  0.00    +0.000 A 
ATOM     10  C   UNL     1       9.559   1.663   7.868  0.00  0.00    +0.000 A 
ATOM     11  C   UNL     1      10.531   1.012   8.627  0.00  0.00    +0.000 A 
ATOM     12  C   UNL     1      10.889   1.561   9.843  0.00  0.00    +0.000 A 
ATOM     13  N   UNL     1      10.342   2.686  10.340  0.00  0.00    +0.000 NA
ATOM     14  C   UNL     1       9.396   3.292   9.578  0.00  0.00    +0.000 A 
ENDBRANCH   7   9
ENDBRANCH   1   2
BRANCH   1  15
ATOM     15  O   UNL     1       5.680   1.537   4.560  0.00  0.00    +0.000 OA
BRANCH  15  19
ATOM     16  C   UNL     1       3.081  -0.635   2.216  0.00  0.00    +0.000 A 
ATOM     17  C   UNL     1       4.378  -1.110   2.428  0.00  0.00    +0.000 A 
ATOM     18  C   UNL     1       5.251  -0.367   3.225  0.00  0.00    +0.000 A 
ATOM     19  C   UNL     1       4.794   0.817   3.783  0.00  0.00    +0.000 A 
ATOM     20  N   UNL     1       3.544   1.293   3.597  0.00  0.00    +0.000 NA
ATOM     21  C   UNL     1       2.719   0.564   2.811  0.00  0.00    +0.000 A 
BRANCH  16  23
ATOM     22  N   UNL     1       2.191  -2.679   1.251  0.00  0.00    +0.000 N 
ATOM     23  C   UNL     1       2.086  -1.323   1.371  0.00  0.00    +0.000 C 
ATOM     24  O   UNL     1       1.177  -0.707   0.830  0.00  0.00    +0.000 OA
ATOM     25  H   UNL     1       1.438  -3.141   0.756  0.00  0.00    +0.000 HD
ATOM     26  H   UNL     1       2.750  -3.240   1.877  0.00  0.00    +0.000 HD
ENDBRANCH  16  23
ENDBRANCH  15  19
ENDBRANCH   1  15
TORSDOF 5
