REMARK  Name = 
REMARK  7 active torsions:
REMARK  status: ('A' for Active; 'I' for Inactive)
REMARK    1  A    between atoms: N_1  and  C_2
REMARK    2  A    between atoms: C_2  and  C_3
REMARK    3  A    between atoms: C_3  and  O_4
REMARK    4  A    between atoms: O_4  and  C_5
REMARK    5  A    between atoms: C_8  and  C_9
REMARK    6  A    between atoms: C_9  and  C_10
REMARK    7  A    between atoms: C_16  and  C_17
REMARK                            x       y       z     vdW  Elec       q    Type
REMARK                         _______ _______ _______ _____ _____    ______ ____
ROOT
ATOM      1  C   UNL     1       8.379  -5.927  -1.968  0.00  0.00    +0.000 A 
ATOM      2  C   UNL     1       9.640  -5.378  -1.817  0.00  0.00    +0.000 A 
ATOM      3  O   UNL     1      10.299  -5.323  -3.001  0.00  0.00    +0.000 OA
ATOM      4  C   UNL     1       9.474  -5.845  -3.949  0.00  0.00    +0.000 A 
ATOM      5  N   UNL     1       9.817  -5.967  -5.244  0.00  0.00    +0.000 NA
ATOM      6  C   UNL     1       8.841  -6.537  -5.998  0.00  0.00    +0.000 A 
ATOM      7  C   UNL     1       7.595  -6.968  -5.543  0.00  0.00    +0.000 A 
ATOM      8  C   UNL     1       7.294  -6.813  -4.186  0.00  0.00    +0.000 A 
ATOM      9  C   UNL     1       8.272  -6.232  -3.359  0.00  0.00    +0.000 A 
ENDROOT
BRANCH   7  10
ATOM     10  C   UNL     1       6.661  -7.579  -6.518  0.00  0.00    +0.000 C 
ATOM     11  N   UNL     1       5.433  -7.994  -6.081  0.00  0.00    +0.000 N 
ATOM     12  O   UNL     1       6.973  -7.718  -7.694  0.00  0.00    +0.000 OA
ATOM     13  H   UNL     1       5.081  -7.916  -5.141  0.00  0.00    +0.000 HD
ATOM     14  H   UNL     1       4.822  -8.409  -6.775  0.00  0.00    +0.000 HD
ENDBRANCH   7  10
BRANCH   1  15
ATOM     15  C   UNL     1       7.380  -6.211  -0.900  0.00  0.00    +0.000 C 
BRANCH  15  19
ATOM     16  C   UNL     1       5.016  -2.634  -0.271  0.00  0.00    +0.000 A 
ATOM     17  C   UNL     1       4.626  -3.577  -1.222  0.00  0.00    +0.000 A 
ATOM     18  C   UNL     1       5.395  -4.727  -1.436  0.00  0.00    +0.000 A 
ATOM     19  C   UNL     1       6.568  -4.955  -0.702  0.00  0.00    +0.000 A 
ATOM     20  C   UNL     1       6.955  -4.001   0.249  0.00  0.00    +0.000 A 
ATOM     21  C   UNL     1       6.183  -2.854   0.461  0.00  0.00    +0.000 A 
BRANCH  16  22
ATOM     22  O   UNL     1       4.350  -1.478   0.035  0.00  0.00    +0.000 OA
BRANCH  22  23
ATOM     23  C   UNL     1       3.183  -1.190  -0.740  0.00  0.00    +0.000 C 
BRANCH  23  24
ATOM     24  C   UNL     1       2.611   0.160  -0.295  0.00  0.00    +0.000 C 
BRANCH  24  25
ATOM     25  N   UNL     1       1.397   0.507  -1.035  0.00  0.00    +0.000 NA
ATOM     26  H   UNL     1       1.050   1.408  -0.705  0.00  0.00    +0.000 HD
ATOM     27  H   UNL     1       0.663  -0.170  -0.828  0.00  0.00    +0.000 HD
ENDBRANCH  24  25
ENDBRANCH  23  24
ENDBRANCH  22  23
ENDBRANCH  16  22
ENDBRANCH  15  19
ENDBRANCH   1  15
TORSDOF 7
