REMARK  Name = 
REMARK  8 active torsions:
REMARK  status: ('A' for Active; 'I' for Inactive)
REMARK    1  A    between atoms: C_1  and  N_2
REMARK    2  A    between atoms: N_2  and  C_3
REMARK    3  A    between atoms: C_3  and  C_4
REMARK    4  A    between atoms: C_8  and  C_9
REMARK    5  A    between atoms: C_9  and  C_10
REMARK    6  A    between atoms: C_13  and  C_14
REMARK    7  A    between atoms: C_14  and  N_15
REMARK    8  A    between atoms: C_16  and  C_18
REMARK                            x       y       z     vdW  Elec       q    Type
REMARK                         _______ _______ _______ _____ _____    ______ ____
ROOT
ATOM      1  C   UNL     1       8.797   1.241  -3.454  0.00  0.00    +0.000 A 
ATOM      2  C   UNL     1       9.074  -0.121  -3.394  0.00  0.00    +0.000 A 
ATOM      3  C   UNL     1      10.396  -0.536  -3.259  0.00  0.00    +0.000 A 
ATOM      4  C   UNL     1      11.423   0.410  -3.219  0.00  0.00    +0.000 A 
ATOM      5  C   UNL     1      11.057   1.742  -3.334  0.00  0.00    +0.000 A 
ATOM      6  N   UNL     1       9.778   2.180  -3.458  0.00  0.00    +0.000 NA
ENDROOT
BRANCH   1   7
ATOM      7  C   UNL     1       7.363   1.722  -3.413  0.00  0.00    +0.000 C 
BRANCH   7  12
ATOM      8  C   UNL     1       6.927   3.375   0.022  0.00  0.00    +0.000 A 
ATOM      9  C   UNL     1       5.782   2.712   0.486  0.00  0.00    +0.000 A 
ATOM     10  C   UNL     1       5.208   1.681  -0.259  0.00  0.00    +0.000 A 
ATOM     11  C   UNL     1       5.745   1.323  -1.496  0.00  0.00    +0.000 A 
ATOM     12  C   UNL     1       6.852   2.009  -2.013  0.00  0.00    +0.000 A 
ATOM     13  C   UNL     1       7.447   3.015  -1.231  0.00  0.00    +0.000 A 
BRANCH   8  14
ATOM     14  C   UNL     1       7.566   4.491   0.822  0.00  0.00    +0.000 C 
BRANCH  14  16
ATOM     15  C   UNL     1       8.642   5.106   2.890  0.00  0.00    +0.000 C 
ATOM     16  N   UNL     1       8.025   4.027   2.134  0.00  0.00    +0.000 NA
ATOM     17  H   UNL     1       7.226   3.671   2.653  0.00  0.00    +0.000 HD
ENDBRANCH  14  16
ENDBRANCH   8  14
ENDBRANCH   7  12
ENDBRANCH   1   7
BRANCH   4  18
ATOM     18  C   UNL     1      12.863   0.014  -3.036  0.00  0.00    +0.000 C 
BRANCH  18  19
ATOM     19  N   UNL     1      13.241  -0.050  -1.644  0.00  0.00    +0.000 N 
ATOM     20  C   UNL     1      14.539  -0.301  -1.268  0.00  0.00    +0.000 C 
ATOM     21  O   UNL     1      15.438  -0.451  -2.088  0.00  0.00    +0.000 OA
ATOM     22  H   UNL     1      12.498  -0.194  -0.967  0.00  0.00    +0.000 HD
BRANCH  20  23
ATOM     23  C   UNL     1      14.806  -0.310   0.179  0.00  0.00    +0.000 A 
ATOM     24  C   UNL     1      16.076  -0.001   0.652  0.00  0.00    +0.000 A 
ATOM     25  S   UNL     1      16.196  -0.021   2.354  0.00  0.00    +0.000 S 
ATOM     26  C   UNL     1      14.570  -0.490   2.519  0.00  0.00    +0.000 A 
ATOM     27  N   UNL     1      14.026  -0.722   3.747  0.00  0.00    +0.000 NA
ATOM     28  C   UNL     1      12.794  -1.102   3.723  0.00  0.00    +0.000 A 
ATOM     29  N   UNL     1      12.046  -1.260   2.577  0.00  0.00    +0.000 N 
ATOM     30  C   UNL     1      12.541  -0.996   1.324  0.00  0.00    +0.000 A 
ATOM     31  O   UNL     1      11.834  -1.092   0.329  0.00  0.00    +0.000 OA
ATOM     32  C   UNL     1      13.935  -0.599   1.295  0.00  0.00    +0.000 A 
ATOM     33  H   UNL     1      11.078  -1.537   2.629  0.00  0.00    +0.000 HD
ENDBRANCH  20  23
ENDBRANCH  18  19
ENDBRANCH   4  18
TORSDOF 7
