REMARK  Name = 
REMARK  7 active torsions:
REMARK  status: ('A' for Active; 'I' for Inactive)
REMARK    1  A    between atoms: N_1  and  C_2
REMARK    2  A    between atoms: C_2  and  C_3
REMARK    3  A    between atoms: C_3  and  C_4
REMARK    4  A    between atoms: C_4  and  C_5
REMARK    5  A    between atoms: C_5  and  N_6
REMARK    6  A    between atoms: C_5  and  C_16
REMARK    7  A    between atoms: C_10  and  C_11
REMARK                            x       y       z     vdW  Elec       q    Type
REMARK                         _______ _______ _______ _____ _____    ______ ____
ROOT
ATOM      1  C   UNL     1       5.228  -2.838   0.842  0.00  0.00    +0.000 C 
ENDROOT
BRANCH   1   2
ATOM      2  N   UNL     1       4.687  -1.485   0.649  0.00  0.00    +0.000 N 
ATOM      3  C   UNL     1       4.327  -0.761   1.793  0.00  0.00    +0.000 A 
ATOM      4  C   UNL     1       4.237   0.642   1.731  0.00  0.00    +0.000 A 
ATOM      5  N   UNL     1       3.703   1.435   2.701  0.00  0.00    +0.000 NA
ATOM      6  C   UNL     1       3.228   0.751   3.776  0.00  0.00    +0.000 A 
ATOM      7  C   UNL     1       3.336  -0.625   3.880  0.00  0.00    +0.000 A 
ATOM      8  N   UNL     1       3.885  -1.399   2.899  0.00  0.00    +0.000 NA
ATOM      9  H   UNL     1       5.251  -0.935   0.012  0.00  0.00    +0.000 HD
BRANCH   6  10
ATOM     10  C   UNL     1       2.499   1.522   4.818  0.00  0.00    +0.000 C 
ATOM     11  N   UNL     1       2.317   2.858   4.572  0.00  0.00    +0.000 N 
ATOM     12  O   UNL     1       2.049   0.991   5.831  0.00  0.00    +0.000 OA
ATOM     13  H   UNL     1       2.644   3.257   3.696  0.00  0.00    +0.000 HD
ATOM     14  H   UNL     1       1.747   3.408   5.201  0.00  0.00    +0.000 HD
ENDBRANCH   6  10
ENDBRANCH   1   2
BRANCH   1  15
ATOM     15  C   UNL     1       6.752  -2.820   0.696  0.00  0.00    +0.000 A 
ATOM     16  C   UNL     1       7.545  -3.411   1.692  0.00  0.00    +0.000 A 
ATOM     17  C   UNL     1       8.920  -3.575   1.505  0.00  0.00    +0.000 A 
ATOM     18  C   UNL     1       9.525  -3.121   0.336  0.00  0.00    +0.000 A 
ATOM     19  C   UNL     1       8.761  -2.492  -0.644  0.00  0.00    +0.000 A 
ATOM     20  C   UNL     1       7.383  -2.349  -0.470  0.00  0.00    +0.000 A 
ENDBRANCH   1  15
BRANCH   1  21
ATOM     21  C   UNL     1       4.609  -3.806  -0.200  0.00  0.00    +0.000 C 
BRANCH  21  22
ATOM     22  C   UNL     1       5.070  -5.260   0.029  0.00  0.00    +0.000 C 
BRANCH  22  23
ATOM     23  C   UNL     1       4.494  -6.278  -0.953  0.00  0.00    +0.000 C 
BRANCH  23  24
ATOM     24  N   UNL     1       4.927  -6.017  -2.322  0.00  0.00    +0.000 NA
ATOM     25  H   UNL     1       4.620  -6.782  -2.921  0.00  0.00    +0.000 HD
ATOM     26  H   UNL     1       5.947  -6.019  -2.362  0.00  0.00    +0.000 HD
ENDBRANCH  23  24
ENDBRANCH  22  23
ENDBRANCH  21  22
ENDBRANCH   1  21
TORSDOF 7
