REMARK  Name = 
REMARK  9 active torsions:
REMARK  status: ('A' for Active; 'I' for Inactive)
REMARK    1  A    between atoms: C_1  and  N_2
REMARK    2  A    between atoms: N_2  and  C_3
REMARK    3  A    between atoms: C_3  and  C_4
REMARK    4  A    between atoms: C_7  and  C_8
REMARK    5  A    between atoms: C_8  and  O_9
REMARK    6  A    between atoms: C_8  and  C_10
REMARK    7  A    between atoms: C_10  and  N_11
REMARK    8  A    between atoms: N_11  and  C_12
REMARK    9  A    between atoms: C_20  and  C_22
REMARK                            x       y       z     vdW  Elec       q    Type
REMARK                         _______ _______ _______ _____ _____    ______ ____
ROOT
ATOM      1  C   UNL     1       2.289   0.943   2.294  0.00  0.00    +0.000 A 
ATOM      2  C   UNL     1       1.612  -0.026   3.042  0.00  0.00    +0.000 A 
ATOM      3  C   UNL     1       0.808   0.353   4.123  0.00  0.00    +0.000 A 
ATOM      4  C   UNL     1       0.652   1.707   4.466  0.00  0.00    +0.000 A 
ATOM      5  C   UNL     1       1.355   2.664   3.718  0.00  0.00    +0.000 A 
ATOM      6  C   UNL     1       2.166   2.288   2.653  0.00  0.00    +0.000 A 
ENDROOT
BRANCH   1   7
ATOM      7  C   UNL     1       3.105   0.585   1.088  0.00  0.00    +0.000 C 
BRANCH   7   9
ATOM      8  C   UNL     1       1.253   1.280  -0.481  0.00  0.00    +0.000 C 
ATOM      9  N   UNL     1       2.357   0.383  -0.152  0.00  0.00    +0.000 N 
ATOM     10  C   UNL     1       2.829  -0.373  -1.237  0.00  0.00    +0.000 C 
ATOM     11  O   UNL     1       2.112  -0.573  -2.218  0.00  0.00    +0.000 OA
BRANCH  10  12
ATOM     12  C   UNL     1       4.230  -0.818  -1.287  0.00  0.00    +0.000 A 
ATOM     13  C   UNL     1       5.327  -0.069  -0.890  0.00  0.00    +0.000 A 
ATOM     14  S   UNL     1       6.822  -0.722  -1.400  0.00  0.00    +0.000 S 
ATOM     15  C   UNL     1       6.044  -1.993  -2.216  0.00  0.00    +0.000 A 
ATOM     16  N   UNL     1       6.736  -2.853  -3.007  0.00  0.00    +0.000 NA
ATOM     17  C   UNL     1       6.003  -3.759  -3.566  0.00  0.00    +0.000 A 
ATOM     18  N   UNL     1       4.653  -3.914  -3.364  0.00  0.00    +0.000 N 
ATOM     19  C   UNL     1       3.930  -3.126  -2.495  0.00  0.00    +0.000 A 
ATOM     20  O   UNL     1       2.795  -3.430  -2.144  0.00  0.00    +0.000 OA
ATOM     21  C   UNL     1       4.685  -2.005  -1.970  0.00  0.00    +0.000 A 
ATOM     22  H   UNL     1       4.165  -4.713  -3.741  0.00  0.00    +0.000 HD
ENDBRANCH  10  12
ENDBRANCH   7   9
ENDBRANCH   1   7
BRANCH   4  23
ATOM     23  C   UNL     1      -0.278   2.087   5.611  0.00  0.00    +0.000 C 
BRANCH  23  24
ATOM     24  O   UNL     1       0.243   1.581   6.848  0.00  0.00    +0.000 OA
ATOM     25  H   UNL     1       1.209   1.514   6.750  0.00  0.00    +0.000 HD
ENDBRANCH  23  24
BRANCH  23  26
ATOM     26  C   UNL     1      -0.470   3.615   5.750  0.00  0.00    +0.000 C 
BRANCH  26  27
ATOM     27  N   UNL     1      -1.381   3.982   6.841  0.00  0.00    +0.000 N 
ATOM     28  H   UNL     1      -1.151   3.454   7.687  0.00  0.00    +0.000 HD
BRANCH  27  29
ATOM     29  C   UNL     1      -1.487   5.363   7.077  0.00  0.00    +0.000 A 
ATOM     30  C   UNL     1      -1.438   6.344   6.093  0.00  0.00    +0.000 A 
ATOM     31  N   UNL     1      -1.580   7.670   6.304  0.00  0.00    +0.000 NA
ATOM     32  C   UNL     1      -1.833   8.021   7.570  0.00  0.00    +0.000 A 
ATOM     33  N   UNL     1      -1.959   7.185   8.611  0.00  0.00    +0.000 NA
ATOM     34  C   UNL     1      -1.802   5.871   8.325  0.00  0.00    +0.000 A 
ENDBRANCH  27  29
ENDBRANCH  26  27
ENDBRANCH  23  26
ENDBRANCH   4  23
TORSDOF 8
