REMARK  Name = 
REMARK  10 active torsions:
REMARK  status: ('A' for Active; 'I' for Inactive)
REMARK    1  A    between atoms: C_1  and  C_2
REMARK    2  A    between atoms: C_2  and  N_3
REMARK    3  A    between atoms: C_2  and  C_20
REMARK    4  A    between atoms: N_3  and  C_4
REMARK    5  A    between atoms: C_4  and  C_5
REMARK    6  A    between atoms: C_8  and  C_9
REMARK    7  A    between atoms: C_9  and  O_10
REMARK    8  A    between atoms: C_9  and  C_11
REMARK    9  A    between atoms: C_11  and  C_12
REMARK   10  A    between atoms: C_20  and  C_22
REMARK                            x       y       z     vdW  Elec       q    Type
REMARK                         _______ _______ _______ _____ _____    ______ ____
ROOT
ATOM      1  N   UNL     1       1.099   0.092  -0.036  0.00  0.00    +0.000 NA
ATOM      2  H   UNL     1       0.789   1.026   0.241  0.00  0.00    +0.000 HD
ENDROOT
BRANCH   1   4
ATOM      3  C   UNL     1       3.040   0.959  -1.200  0.00  0.00    +0.000 C 
ATOM      4  C   UNL     1       2.570   0.048  -0.070  0.00  0.00    +0.000 C 
BRANCH   4   5
ATOM      5  C   UNL     1       3.161   0.498   1.291  0.00  0.00    +0.000 C 
ATOM      6  O   UNL     1       2.655   1.419   1.929  0.00  0.00    +0.000 OA
BRANCH   5   7
ATOM      7  C   UNL     1       4.346  -0.209   1.795  0.00  0.00    +0.000 A 
ATOM      8  C   UNL     1       5.337  -0.707   0.967  0.00  0.00    +0.000 A 
ATOM      9  S   UNL     1       6.661  -1.362   1.823  0.00  0.00    +0.000 S 
ATOM     10  C   UNL     1       5.939  -1.009   3.323  0.00  0.00    +0.000 A 
ATOM     11  N   UNL     1       6.582  -1.274   4.491  0.00  0.00    +0.000 NA
ATOM     12  C   UNL     1       5.925  -0.925   5.547  0.00  0.00    +0.000 A 
ATOM     13  N   UNL     1       4.668  -0.371   5.541  0.00  0.00    +0.000 N 
ATOM     14  C   UNL     1       3.919  -0.241   4.391  0.00  0.00    +0.000 A 
ATOM     15  O   UNL     1       2.707  -0.059   4.435  0.00  0.00    +0.000 OA
ATOM     16  C   UNL     1       4.679  -0.463   3.172  0.00  0.00    +0.000 A 
ATOM     17  H   UNL     1       4.177  -0.217   6.410  0.00  0.00    +0.000 HD
ENDBRANCH   5   7
ENDBRANCH   4   5
ENDBRANCH   1   4
BRANCH   1  18
ATOM     18  C   UNL     1       0.555  -0.883   0.916  0.00  0.00    +0.000 C 
BRANCH  18  19
ATOM     19  C   UNL     1      -0.955  -0.853   0.957  0.00  0.00    +0.000 A 
ATOM     20  C   UNL     1      -1.601  -0.534   2.145  0.00  0.00    +0.000 A 
ATOM     21  C   UNL     1      -2.989  -0.553   2.174  0.00  0.00    +0.000 A 
ATOM     22  C   UNL     1      -3.711  -0.869   1.018  0.00  0.00    +0.000 A 
ATOM     23  C   UNL     1      -2.974  -1.171  -0.123  0.00  0.00    +0.000 A 
ATOM     24  N   UNL     1      -1.625  -1.170  -0.177  0.00  0.00    +0.000 NA
BRANCH  22  25
ATOM     25  C   UNL     1      -5.214  -0.966   0.979  0.00  0.00    +0.000 C 
BRANCH  25  26
ATOM     26  O   UNL     1      -5.545  -2.323   1.269  0.00  0.00    +0.000 OA
ATOM     27  H   UNL     1      -5.317  -2.490   2.200  0.00  0.00    +0.000 HD
ENDBRANCH  25  26
BRANCH  25  28
ATOM     28  C   UNL     1      -5.919   0.004   1.943  0.00  0.00    +0.000 C 
BRANCH  28  29
ATOM     29  C   UNL     1      -7.420  -0.058   1.893  0.00  0.00    +0.000 A 
ATOM     30  C   UNL     1      -8.121   0.222   0.722  0.00  0.00    +0.000 A 
ATOM     31  C   UNL     1      -9.510   0.176   0.752  0.00  0.00    +0.000 A 
ATOM     32  C   UNL     1     -10.162  -0.135   1.936  0.00  0.00    +0.000 A 
ATOM     33  C   UNL     1      -9.391  -0.392   3.058  0.00  0.00    +0.000 A 
ATOM     34  N   UNL     1      -8.042  -0.356   3.060  0.00  0.00    +0.000 NA
ENDBRANCH  28  29
ENDBRANCH  25  28
ENDBRANCH  22  25
ENDBRANCH  18  19
ENDBRANCH   1  18
TORSDOF 9
