REMARK  Name = 
REMARK  4 active torsions:
REMARK  status: ('A' for Active; 'I' for Inactive)
REMARK    1  A    between atoms: C_2  and  C_4
REMARK    2  A    between atoms: N_8  and  C_9
REMARK    3  A    between atoms: C_9  and  C_10
REMARK    4  A    between atoms: C_13  and  C_14
REMARK                            x       y       z     vdW  Elec       q    Type
REMARK                         _______ _______ _______ _____ _____    ______ ____
ROOT
ATOM      1  C   UNL     1       3.133   0.805   1.115  0.00  0.00    +0.000 A 
ATOM      2  C   UNL     1       2.528   1.013   2.349  0.00  0.00    +0.000 A 
ATOM      3  C   UNL     1       3.270   1.593   3.378  0.00  0.00    +0.000 A 
ATOM      4  C   UNL     1       4.606   1.929   3.171  0.00  0.00    +0.000 A 
ATOM      5  N   UNL     1       5.372   2.571   4.134  0.00  0.00    +0.000 N 
ATOM      6  N   UNL     1       5.209   1.704   1.989  0.00  0.00    +0.000 NA
ATOM      7  C   UNL     1       4.470   1.146   0.989  0.00  0.00    +0.000 A 
ATOM      8  H   UNL     1       6.337   2.583   3.807  0.00  0.00    +0.000 HD
ENDROOT
BRANCH   1  10
ATOM      9  N   UNL     1       1.051   0.402  -0.070  0.00  0.00    +0.000 N 
ATOM     10  C   UNL     1       2.410   0.237  -0.042  0.00  0.00    +0.000 C 
ATOM     11  O   UNL     1       2.998  -0.328  -0.952  0.00  0.00    +0.000 OA
ATOM     12  H   UNL     1       0.578   0.100  -0.914  0.00  0.00    +0.000 HD
ATOM     13  H   UNL     1       0.569   1.070   0.515  0.00  0.00    +0.000 HD
ENDBRANCH   1  10
BRANCH   5  14
ATOM     14  C   UNL     1       5.196   2.167   5.516  0.00  0.00    +0.000 C 
BRANCH  14  15
ATOM     15  C   UNL     1       6.157   2.899   6.420  0.00  0.00    +0.000 A 
ATOM     16  C   UNL     1       5.868   4.196   6.861  0.00  0.00    +0.000 A 
ATOM     17  C   UNL     1       6.718   4.850   7.759  0.00  0.00    +0.000 A 
ATOM     18  C   UNL     1       7.889   4.238   8.237  0.00  0.00    +0.000 A 
ATOM     19  C   UNL     1       8.185   2.950   7.753  0.00  0.00    +0.000 A 
ATOM     20  C   UNL     1       7.336   2.289   6.857  0.00  0.00    +0.000 A 
BRANCH  18  21
ATOM     21  C   UNL     1       8.791   4.913   9.190  0.00  0.00    +0.000 A 
ATOM     22  C   UNL     1       8.355   5.827  10.151  0.00  0.00    +0.000 A 
ATOM     23  N   UNL     1       9.187   6.479  11.004  0.00  0.00    +0.000 NA
ATOM     24  C   UNL     1      10.495   6.178  10.867  0.00  0.00    +0.000 A 
ATOM     25  C   UNL     1      10.947   5.261   9.936  0.00  0.00    +0.000 A 
ATOM     26  N   UNL     1      10.114   4.610   9.091  0.00  0.00    +0.000 NA
ENDBRANCH  18  21
ENDBRANCH  14  15
ENDBRANCH   5  14
TORSDOF 4
