REMARK  Name = 
REMARK  5 active torsions:
REMARK  status: ('A' for Active; 'I' for Inactive)
REMARK    1  A    between atoms: N_1  and  C_2
REMARK    2  A    between atoms: C_2  and  C_3
REMARK    3  A    between atoms: C_3  and  C_4
REMARK    4  A    between atoms: C_7  and  C_8
REMARK    5  A    between atoms: C_8  and  N_9
REMARK                            x       y       z     vdW  Elec       q    Type
REMARK                         _______ _______ _______ _____ _____    ______ ____
ROOT
ATOM      1  C   UNL     1       4.580  -1.255  -0.619  0.00  0.00    +0.000 A 
ATOM      2  C   UNL     1       5.370  -0.262  -0.020  0.00  0.00    +0.000 A 
ATOM      3  C   UNL     1       6.760  -0.393   0.038  0.00  0.00    +0.000 A 
ATOM      4  C   UNL     1       7.401  -1.528  -0.485  0.00  0.00    +0.000 A 
ATOM      5  C   UNL     1       6.609  -2.522  -1.072  0.00  0.00    +0.000 A 
ATOM      6  C   UNL     1       5.219  -2.385  -1.137  0.00  0.00    +0.000 A 
ENDROOT
BRANCH   1   7
ATOM      7  C   UNL     1       3.065  -1.200  -0.638  0.00  0.00    +0.000 C 
BRANCH   7   8
ATOM      8  C   UNL     1       2.434   0.198  -0.688  0.00  0.00    +0.000 C 
BRANCH   8   9
ATOM      9  N   UNL     1       0.973   0.114  -0.759  0.00  0.00    +0.000 NA
ATOM     10  H   UNL     1       0.582   1.055  -0.759  0.00  0.00    +0.000 HD
ATOM     11  H   UNL     1       0.615  -0.342   0.079  0.00  0.00    +0.000 HD
ENDBRANCH   8   9
ENDBRANCH   7   8
ENDBRANCH   1   7
BRANCH   4  12
ATOM     12  C   UNL     1       8.892  -1.734  -0.319  0.00  0.00    +0.000 C 
BRANCH  12  13
ATOM     13  N   UNL     1       9.155  -2.547   0.864  0.00  0.00    +0.000 N 
ATOM     14  N   UNL     1       9.212  -3.895   0.747  0.00  0.00    +0.000 NA
ATOM     15  C   UNL     1       8.951  -4.320   1.985  0.00  0.00    +0.000 A 
ATOM     16  C   UNL     1       8.817  -3.260   2.909  0.00  0.00    +0.000 A 
ATOM     17  C   UNL     1       8.485  -3.140   4.268  0.00  0.00    +0.000 A 
ATOM     18  C   UNL     1       8.515  -1.868   4.841  0.00  0.00    +0.000 A 
ATOM     19  F   UNL     1       8.165  -1.726   6.127  0.00  0.00    +0.000 F 
ATOM     20  C   UNL     1       8.897  -0.743   4.117  0.00  0.00    +0.000 A 
ATOM     21  C   UNL     1       9.197  -0.841   2.756  0.00  0.00    +0.000 A 
ATOM     22  C   UNL     1       9.107  -2.114   2.173  0.00  0.00    +0.000 A 
ENDBRANCH  12  13
ENDBRANCH   4  12
TORSDOF 5
