REMARK  Name = 
REMARK  4 active torsions:
REMARK  status: ('A' for Active; 'I' for Inactive)
REMARK    1  A    between atoms: C_5  and  N_6
REMARK    2  A    between atoms: N_6  and  C_7
REMARK    3  A    between atoms: C_7  and  C_8
REMARK    4  A    between atoms: C_12  and  C_13
REMARK                            x       y       z     vdW  Elec       q    Type
REMARK                         _______ _______ _______ _____ _____    ______ ____
ROOT
ATOM      1  C   UNL     1       3.232  -4.522   0.206  0.00  0.00    +0.000 C 
ATOM      2  C   UNL     1       3.768  -5.565   1.191  0.00  0.00    +0.000 C 
ATOM      3  C   UNL     1       3.558  -5.127   2.633  0.00  0.00    +0.000 C 
ATOM      4  C   UNL     1       4.088  -3.709   2.829  0.00  0.00    +0.000 C 
ATOM      5  C   UNL     1       3.438  -2.737   1.830  0.00  0.00    +0.000 C 
ATOM      6  O   UNL     1       3.733  -3.205   0.495  0.00  0.00    +0.000 OA
ENDROOT
BRANCH   5   7
ATOM      7  C   UNL     1       1.946  -2.484   2.034  0.00  0.00    +0.000 A 
ATOM      8  C   UNL     1       1.342  -2.563   3.298  0.00  0.00    +0.000 A 
ATOM      9  C   UNL     1      -0.038  -2.477   3.389  0.00  0.00    +0.000 A 
ATOM     10  N   UNL     1      -0.851  -2.291   2.330  0.00  0.00    +0.000 NA
ATOM     11  C   UNL     1      -0.253  -2.137   1.132  0.00  0.00    +0.000 A 
ATOM     12  C   UNL     1       1.118  -2.189   0.942  0.00  0.00    +0.000 A 
ENDBRANCH   5   7
BRANCH   1  13
ATOM     13  C   UNL     1       3.581  -4.888  -1.256  0.00  0.00    +0.000 C 
BRANCH  13  14
ATOM     14  N   UNL     1       2.880  -6.107  -1.641  0.00  0.00    +0.000 N 
ATOM     15  H   UNL     1       1.922  -6.160  -1.302  0.00  0.00    +0.000 HD
BRANCH  14  20
ATOM     16  C   UNL     1       4.075  -7.061  -5.038  0.00  0.00    +0.000 A 
ATOM     17  C   UNL     1       3.282  -8.182  -5.220  0.00  0.00    +0.000 A 
ATOM     18  N   UNL     1       2.380  -8.606  -4.311  0.00  0.00    +0.000 NA
ATOM     19  C   UNL     1       2.285  -7.868  -3.177  0.00  0.00    +0.000 A 
ATOM     20  C   UNL     1       3.019  -6.710  -2.886  0.00  0.00    +0.000 A 
ATOM     21  C   UNL     1       3.945  -6.328  -3.854  0.00  0.00    +0.000 A 
ENDBRANCH  14  20
ENDBRANCH  13  14
ENDBRANCH   1  13
TORSDOF 4
