REMARK  Name = 
REMARK  5 active torsions:
REMARK  status: ('A' for Active; 'I' for Inactive)
REMARK    1  A    between atoms: C_2  and  C_5
REMARK    2  A    between atoms: C_7  and  C_8
REMARK    3  A    between atoms: C_8  and  N_9
REMARK    4  A    between atoms: N_9  and  C_10
REMARK    5  A    between atoms: C_14  and  C_15
REMARK                            x       y       z     vdW  Elec       q    Type
REMARK                         _______ _______ _______ _____ _____    ______ ____
ROOT
ATOM      1  N   UNL     1       4.989   0.406  -4.338  0.00  0.00    +0.000 N 
ATOM      2  H   UNL     1       4.550  -0.482  -4.569  0.00  0.00    +0.000 HD
ENDROOT
BRANCH   1   3
ATOM      3  C   UNL     1       5.472   1.048  -5.498  0.00  0.00    +0.000 A 
ATOM      4  C   UNL     1       4.918   0.757  -6.751  0.00  0.00    +0.000 A 
ATOM      5  C   UNL     1       5.351   1.418  -7.906  0.00  0.00    +0.000 A 
ATOM      6  C   UNL     1       6.301   2.430  -7.811  0.00  0.00    +0.000 A 
ATOM      7  C   UNL     1       6.804   2.824  -6.564  0.00  0.00    +0.000 A 
ATOM      8  C   UNL     1       6.390   2.102  -5.432  0.00  0.00    +0.000 A 
BRANCH   7   9
ATOM      9  C   UNL     1       7.683   3.993  -6.416  0.00  0.00    +0.000 A 
ATOM     10  C   UNL     1       7.575   5.107  -7.246  0.00  0.00    +0.000 A 
ATOM     11  N   UNL     1       8.353   6.211  -7.123  0.00  0.00    +0.000 NA
ATOM     12  C   UNL     1       9.244   6.164  -6.112  0.00  0.00    +0.000 A 
ATOM     13  C   UNL     1       9.354   5.079  -5.266  0.00  0.00    +0.000 A 
ATOM     14  N   UNL     1       8.581   3.974  -5.394  0.00  0.00    +0.000 NA
ENDBRANCH   7   9
ENDBRANCH   1   3
BRANCH   1  15
ATOM     15  C   UNL     1       5.973   0.235  -3.251  0.00  0.00    +0.000 C 
BRANCH  15  18
ATOM     16  C   UNL     1       3.819  -0.515  -0.246  0.00  0.00    +0.000 A 
ATOM     17  C   UNL     1       4.351   0.184  -1.319  0.00  0.00    +0.000 A 
ATOM     18  C   UNL     1       5.357  -0.437  -2.042  0.00  0.00    +0.000 A 
ATOM     19  N   UNL     1       5.836  -1.654  -1.703  0.00  0.00    +0.000 NA
ATOM     20  C   UNL     1       5.281  -2.244  -0.638  0.00  0.00    +0.000 A 
ATOM     21  N   UNL     1       4.290  -1.741   0.109  0.00  0.00    +0.000 NA
BRANCH  16  23
ATOM     22  F   UNL     1       2.254   1.294   0.066  0.00  0.00    +0.000 F 
ATOM     23  C   UNL     1       2.661   0.080   0.542  0.00  0.00    +0.000 C 
ATOM     24  F   UNL     1       2.956   0.288   1.857  0.00  0.00    +0.000 F 
ATOM     25  F   UNL     1       1.546  -0.706   0.524  0.00  0.00    +0.000 F 
ENDBRANCH  16  23
ENDBRANCH  15  18
ENDBRANCH   1  15
TORSDOF 5
