REMARK  Name = 
REMARK  5 active torsions:
REMARK  status: ('A' for Active; 'I' for Inactive)
REMARK    1  A    between atoms: N_1  and  C_2
REMARK    2  A    between atoms: C_2  and  C_3
REMARK    3  A    between atoms: N_9  and  C_10
REMARK    4  A    between atoms: C_10  and  C_11
REMARK    5  A    between atoms: C_14  and  C_15
REMARK                            x       y       z     vdW  Elec       q    Type
REMARK                         _______ _______ _______ _____ _____    ______ ____
ROOT
ATOM      1  C   UNL     1       2.817   0.280  -1.393  0.00  0.00    +0.000 A 
ATOM      2  C   UNL     1       3.389  -0.556  -2.352  0.00  0.00    +0.000 A 
ATOM      3  N   UNL     1       3.832  -0.181  -3.573  0.00  0.00    +0.000 NA
ATOM      4  C   UNL     1       3.703   1.140  -3.835  0.00  0.00    +0.000 A 
ATOM      5  C   UNL     1       4.051   1.898  -4.968  0.00  0.00    +0.000 A 
ATOM      6  N   UNL     1       3.788   3.202  -4.818  0.00  0.00    +0.000 NA
ATOM      7  N   UNL     1       3.245   3.271  -3.576  0.00  0.00    +0.000 N 
ATOM      8  C   UNL     1       3.158   2.055  -2.941  0.00  0.00    +0.000 A 
ATOM      9  C   UNL     1       2.682   1.643  -1.693  0.00  0.00    +0.000 A 
ENDROOT
BRANCH   1  10
ATOM     10  C   UNL     1       2.384  -0.263  -0.059  0.00  0.00    +0.000 C 
BRANCH  10  11
ATOM     11  N   UNL     1       0.953  -0.091   0.154  0.00  0.00    +0.000 NA
ATOM     12  H   UNL     1       0.697  -0.492   1.055  0.00  0.00    +0.000 HD
ATOM     13  H   UNL     1       0.444  -0.629  -0.549  0.00  0.00    +0.000 HD
ENDBRANCH  10  11
ENDBRANCH   1  10
BRANCH   7  14
ATOM     14  C   UNL     1       2.908   4.579  -3.023  0.00  0.00    +0.000 C 
BRANCH  14  15
ATOM     15  C   UNL     1       1.479   4.953  -3.307  0.00  0.00    +0.000 A 
ATOM     16  C   UNL     1       1.020   5.141  -4.617  0.00  0.00    +0.000 A 
ATOM     17  C   UNL     1      -0.325   5.407  -4.849  0.00  0.00    +0.000 A 
ATOM     18  C   UNL     1      -1.173   5.490  -3.754  0.00  0.00    +0.000 A 
ATOM     19  N   UNL     1      -0.756   5.371  -2.460  0.00  0.00    +0.000 NA
ATOM     20  C   UNL     1       0.557   5.108  -2.275  0.00  0.00    +0.000 A 
BRANCH  18  21
ATOM     21  C   UNL     1      -2.643   5.661  -3.969  0.00  0.00    +0.000 C 
ATOM     22  N   UNL     1      -3.403   5.710  -2.831  0.00  0.00    +0.000 N 
ATOM     23  O   UNL     1      -3.149   5.726  -5.083  0.00  0.00    +0.000 OA
ATOM     24  H   UNL     1      -2.953   5.582  -1.930  0.00  0.00    +0.000 HD
ATOM     25  H   UNL     1      -4.408   5.728  -2.907  0.00  0.00    +0.000 HD
ENDBRANCH  18  21
ENDBRANCH  14  15
ENDBRANCH   7  14
TORSDOF 5
