REMARK  Name = 
REMARK  6 active torsions:
REMARK  status: ('A' for Active; 'I' for Inactive)
REMARK    1  A    between atoms: C_2  and  C_25
REMARK    2  A    between atoms: N_3  and  C_4
REMARK    3  A    between atoms: C_4  and  C_5
REMARK    4  A    between atoms: C_8  and  C_9
REMARK    5  A    between atoms: C_9  and  N_10
REMARK    6  A    between atoms: C_11  and  C_13
REMARK                            x       y       z     vdW  Elec       q    Type
REMARK                         _______ _______ _______ _____ _____    ______ ____
ROOT
ATOM      1  C   UNL     1       3.325  -2.650  -2.530  0.00  0.00    +0.000 A 
ATOM      2  C   UNL     1       4.412  -2.087  -3.212  0.00  0.00    +0.000 A 
ATOM      3  C   UNL     1       5.280  -2.891  -3.961  0.00  0.00    +0.000 A 
ATOM      4  C   UNL     1       5.067  -4.272  -4.059  0.00  0.00    +0.000 A 
ATOM      5  C   UNL     1       3.985  -4.836  -3.370  0.00  0.00    +0.000 A 
ATOM      6  C   UNL     1       3.116  -4.032  -2.623  0.00  0.00    +0.000 A 
ENDROOT
BRANCH   1   7
ATOM      7  C   UNL     1       2.377  -1.781  -1.744  0.00  0.00    +0.000 C 
BRANCH   7  10
ATOM      8  O   UNL     1       0.210  -0.238  -0.876  0.00  0.00    +0.000 OA
ATOM      9  C   UNL     1       0.277  -0.543  -2.063  0.00  0.00    +0.000 C 
ATOM     10  N   UNL     1       1.300  -1.302  -2.576  0.00  0.00    +0.000 N 
ATOM     11  H   UNL     1       1.395  -1.405  -3.577  0.00  0.00    +0.000 HD
BRANCH   9  12
ATOM     12  C   UNL     1      -0.708  -0.116  -3.022  0.00  0.00    +0.000 A 
ATOM     13  C   UNL     1      -0.924  -0.431  -4.349  0.00  0.00    +0.000 A 
ATOM     14  N   UNL     1      -2.010   0.235  -4.854  0.00  0.00    +0.000 NA
ATOM     15  C   UNL     1      -2.472   0.945  -3.853  0.00  0.00    +0.000 A 
ATOM     16  N   UNL     1      -1.726   0.763  -2.724  0.00  0.00    +0.000 N 
ATOM     17  H   UNL     1      -1.879   1.192  -1.823  0.00  0.00    +0.000 HD
ENDBRANCH   9  12
ENDBRANCH   7  10
ENDBRANCH   1   7
BRANCH   4  18
ATOM     18  C   UNL     1       6.006  -5.148  -4.851  0.00  0.00    +0.000 C 
BRANCH  18  19
ATOM     19  N   UNL     1       7.082  -5.633  -4.025  0.00  0.00    +0.000 N 
ATOM     20  C   UNL     1       8.109  -6.379  -4.543  0.00  0.00    +0.000 C 
ATOM     21  O   UNL     1       8.193  -6.627  -5.743  0.00  0.00    +0.000 OA
ATOM     22  H   UNL     1       6.913  -5.648  -3.024  0.00  0.00    +0.000 HD
BRANCH  20  23
ATOM     23  C   UNL     1       9.146  -6.810  -3.595  0.00  0.00    +0.000 A 
ATOM     24  C   UNL     1      10.415  -7.131  -4.057  0.00  0.00    +0.000 A 
ATOM     25  S   UNL     1      11.513  -7.534  -2.816  0.00  0.00    +0.000 S 
ATOM     26  C   UNL     1      10.317  -7.348  -1.620  0.00  0.00    +0.000 A 
ATOM     27  N   UNL     1      10.599  -7.563  -0.307  0.00  0.00    +0.000 NA
ATOM     28  C   UNL     1       9.591  -7.419   0.486  0.00  0.00    +0.000 A 
ATOM     29  N   UNL     1       8.325  -7.078   0.085  0.00  0.00    +0.000 N 
ATOM     30  C   UNL     1       7.999  -6.827  -1.226  0.00  0.00    +0.000 A 
ATOM     31  O   UNL     1       6.863  -6.495  -1.546  0.00  0.00    +0.000 OA
ATOM     32  C   UNL     1       9.098  -6.976  -2.160  0.00  0.00    +0.000 A 
ATOM     33  H   UNL     1       7.578  -6.979   0.757  0.00  0.00    +0.000 HD
ENDBRANCH  20  23
ENDBRANCH  18  19
ENDBRANCH   4  18
TORSDOF 6
