REMARK  Name = 
REMARK  8 active torsions:
REMARK  status: ('A' for Active; 'I' for Inactive)
REMARK    1  A    between atoms: C_1  and  C_2
REMARK    2  A    between atoms: C_4  and  N_5
REMARK    3  A    between atoms: N_5  and  C_6
REMARK    4  A    between atoms: C_6  and  C_7
REMARK    5  A    between atoms: C_10  and  C_11
REMARK    6  A    between atoms: C_11  and  N_12
REMARK    7  A    between atoms: C_13  and  C_15
REMARK    8  A    between atoms: C_28  and  C_29
REMARK                            x       y       z     vdW  Elec       q    Type
REMARK                         _______ _______ _______ _____ _____    ______ ____
ROOT
ATOM      1  C   UNL     1       5.761  -4.894   0.102  0.00  0.00    +0.000 A 
ATOM      2  C   UNL     1       5.325  -6.219  -0.047  0.00  0.00    +0.000 A 
ATOM      3  C   UNL     1       6.237  -7.283  -0.024  0.00  0.00    +0.000 A 
ATOM      4  C   UNL     1       7.606  -7.055   0.172  0.00  0.00    +0.000 A 
ATOM      5  C   UNL     1       8.041  -5.731   0.330  0.00  0.00    +0.000 A 
ATOM      6  C   UNL     1       7.129  -4.665   0.307  0.00  0.00    +0.000 A 
ENDROOT
BRANCH   1   7
ATOM      7  C   UNL     1       4.786  -3.743  -0.024  0.00  0.00    +0.000 C 
BRANCH   7   8
ATOM      8  N   UNL     1       4.229  -3.328   1.241  0.00  0.00    +0.000 N 
ATOM      9  H   UNL     1       4.457  -3.831   2.089  0.00  0.00    +0.000 HD
BRANCH   8  13
ATOM     10  C   UNL     1       1.277   0.219  -0.502  0.00  0.00    +0.000 C 
ATOM     11  C   UNL     1       1.846  -0.631   0.592  0.00  0.00    +0.000 A 
ATOM     12  C   UNL     1       2.799  -1.593   0.325  0.00  0.00    +0.000 A 
ATOM     13  C   UNL     1       3.275  -2.344   1.383  0.00  0.00    +0.000 A 
ATOM     14  N   UNL     1       2.826  -2.136   2.634  0.00  0.00    +0.000 NA
ATOM     15  C   UNL     1       1.902  -1.169   2.814  0.00  0.00    +0.000 A 
ATOM     16  C   UNL     1       1.394  -0.913   4.200  0.00  0.00    +0.000 C 
ATOM     17  N   UNL     1       1.389  -0.403   1.837  0.00  0.00    +0.000 NA
ENDBRANCH   8  13
ENDBRANCH   7   8
ENDBRANCH   1   7
BRANCH   4  18
ATOM     18  C   UNL     1       8.557  -8.211   0.349  0.00  0.00    +0.000 C 
BRANCH  18  19
ATOM     19  N   UNL     1       9.253  -8.679  -0.832  0.00  0.00    +0.000 N 
ATOM     20  C   UNL     1      10.170  -9.699  -0.656  0.00  0.00    +0.000 C 
ATOM     21  O   UNL     1      10.369 -10.168   0.466  0.00  0.00    +0.000 OA
ATOM     22  H   UNL     1       8.939  -8.408  -1.762  0.00  0.00    +0.000 HD
BRANCH  20  23
ATOM     23  C   UNL     1      10.953 -10.189  -1.798  0.00  0.00    +0.000 A 
ATOM     24  C   UNL     1      11.831 -11.252  -1.605  0.00  0.00    +0.000 A 
ATOM     25  S   UNL     1      12.833 -11.573  -2.945  0.00  0.00    +0.000 S 
ATOM     26  C   UNL     1      12.171 -10.263  -3.802  0.00  0.00    +0.000 A 
ATOM     27  N   UNL     1      12.720  -9.843  -4.973  0.00  0.00    +0.000 NA
ATOM     28  C   UNL     1      12.128  -8.821  -5.495  0.00  0.00    +0.000 A 
ATOM     29  N   UNL     1      10.990  -8.236  -4.997  0.00  0.00    +0.000 N 
ATOM     30  C   UNL     1      10.350  -8.691  -3.865  0.00  0.00    +0.000 A 
ATOM     31  O   UNL     1       9.247  -8.277  -3.526  0.00  0.00    +0.000 OA
ATOM     32  C   UNL     1      11.081  -9.712  -3.148  0.00  0.00    +0.000 A 
ATOM     33  H   UNL     1      10.527  -7.502  -5.511  0.00  0.00    +0.000 HD
ENDBRANCH  20  23
ENDBRANCH  18  19
ENDBRANCH   4  18
TORSDOF 6
