REMARK  Name = 
REMARK  8 active torsions:
REMARK  status: ('A' for Active; 'I' for Inactive)
REMARK    1  A    between atoms: C_1  and  O_2
REMARK    2  A    between atoms: O_2  and  C_3
REMARK    3  A    between atoms: C_10  and  C_11
REMARK    4  A    between atoms: N_13  and  C_14
REMARK    5  A    between atoms: C_14  and  C_15
REMARK    6  A    between atoms: C_18  and  N_19
REMARK    7  A    between atoms: N_19  and  C_20
REMARK    8  A    between atoms: C_20  and  C_21
REMARK                            x       y       z     vdW  Elec       q    Type
REMARK                         _______ _______ _______ _____ _____    ______ ____
ROOT
ATOM      1  C   UNL     1       2.941   1.616   3.004  0.00  0.00    +0.000 C 
ENDROOT
BRANCH   1   2
ATOM      2  C   UNL     1       1.883   2.515   2.417  0.00  0.00    +0.000 A 
ATOM      3  C   UNL     1       0.660   1.977   2.006  0.00  0.00    +0.000 A 
ATOM      4  C   UNL     1      -0.278   2.768   1.331  0.00  0.00    +0.000 A 
ATOM      5  C   UNL     1      -0.035   4.120   1.058  0.00  0.00    +0.000 A 
ATOM      6  C   UNL     1       1.179   4.658   1.507  0.00  0.00    +0.000 A 
ATOM      7  C   UNL     1       2.124   3.873   2.184  0.00  0.00    +0.000 A 
BRANCH   5   8
ATOM      8  N   UNL     1      -0.860   4.899   0.222  0.00  0.00    +0.000 N 
ATOM      9  H   UNL     1      -0.702   5.890   0.385  0.00  0.00    +0.000 HD
BRANCH   8  10
ATOM     10  C   UNL     1      -2.284   4.552   0.189  0.00  0.00    +0.000 C 
BRANCH  10  11
ATOM     11  C   UNL     1      -3.110   5.479  -0.728  0.00  0.00    +0.000 C 
ATOM     12  C   UNL     1      -3.087   6.965  -0.336  0.00  0.00    +0.000 C 
ATOM     13  C   UNL     1      -3.733   7.176   1.032  0.00  0.00    +0.000 C 
ATOM     14  C   UNL     1      -5.122   6.534   1.111  0.00  0.00    +0.000 C 
ATOM     15  N   UNL     1      -5.151   5.149   0.638  0.00  0.00    +0.000 NA
ATOM     16  C   UNL     1      -4.578   5.011  -0.705  0.00  0.00    +0.000 C 
ATOM     17  H   UNL     1      -6.113   4.809   0.639  0.00  0.00    +0.000 HD
ENDBRANCH  10  11
ENDBRANCH   8  10
ENDBRANCH   5   8
ENDBRANCH   1   2
BRANCH   1  20
ATOM     18  C   UNL     1       4.391  -0.161   2.098  0.00  0.00    +0.000 C 
ATOM     19  O   UNL     1       4.253  -0.829   3.117  0.00  0.00    +0.000 OA
ATOM     20  N   UNL     1       3.766   1.051   1.958  0.00  0.00    +0.000 N 
ATOM     21  H   UNL     1       3.975   1.637   1.159  0.00  0.00    +0.000 HD
BRANCH  18  29
ATOM     22  C   UNL     1       5.225   1.115  -1.007  0.00  0.00    +0.000 A 
ATOM     23  N   UNL     1       5.724   1.369  -2.234  0.00  0.00    +0.000 NA
ATOM     24  C   UNL     1       6.535   0.466  -2.787  0.00  0.00    +0.000 A 
ATOM     25  N   UNL     1       6.922  -0.689  -2.256  0.00  0.00    +0.000 NA
ATOM     26  C   UNL     1       6.414  -0.901  -1.031  0.00  0.00    +0.000 A 
ATOM     27  S   UNL     1       6.804  -2.331  -0.206  0.00  0.00    +0.000 S 
ATOM     28  C   UNL     1       5.857  -1.876   1.131  0.00  0.00    +0.000 A 
ATOM     29  C   UNL     1       5.235  -0.639   0.987  0.00  0.00    +0.000 A 
ATOM     30  C   UNL     1       5.564  -0.060  -0.314  0.00  0.00    +0.000 A 
BRANCH  22  32
ATOM     31  C   UNL     1       3.694   2.824  -1.407  0.00  0.00    +0.000 C 
ATOM     32  O   UNL     1       4.417   2.075  -0.430  0.00  0.00    +0.000 OA
ENDBRANCH  22  32
ENDBRANCH  18  29
ENDBRANCH   1  20
TORSDOF 7
