REMARK  Name = 
REMARK  10 active torsions:
REMARK  status: ('A' for Active; 'I' for Inactive)
REMARK    1  A    between atoms: C_1  and  N_2
REMARK    2  A    between atoms: N_2  and  C_10
REMARK    3  A    between atoms: C_3  and  C_5
REMARK    4  A    between atoms: C_5  and  C_6
REMARK    5  A    between atoms: C_6  and  C_7
REMARK    6  A    between atoms: C_6  and  C_8
REMARK    7  A    between atoms: C_6  and  N_9
REMARK    8  A    between atoms: C_14  and  N_15
REMARK    9  A    between atoms: N_15  and  C_16
REMARK   10  A    between atoms: C_16  and  C_17
REMARK                            x       y       z     vdW  Elec       q    Type
REMARK                         _______ _______ _______ _____ _____    ______ ____
ROOT
ATOM      1  C   UNL     1       3.108   0.944   0.936  0.00  0.00    +0.000 A 
ATOM      2  C   UNL     1       2.540   1.162   2.189  0.00  0.00    +0.000 A 
ATOM      3  C   UNL     1       3.218   1.946   3.119  0.00  0.00    +0.000 A 
ATOM      4  C   UNL     1       4.455   2.513   2.794  0.00  0.00    +0.000 A 
ATOM      5  C   UNL     1       5.059   2.287   1.550  0.00  0.00    +0.000 A 
ATOM      6  C   UNL     1       4.352   1.510   0.618  0.00  0.00    +0.000 A 
ENDROOT
BRANCH   1   8
ATOM      7  C   UNL     1       2.949  -1.267  -0.052  0.00  0.00    +0.000 C 
ATOM      8  N   UNL     1       2.450   0.103  -0.003  0.00  0.00    +0.000 N 
ATOM      9  C   UNL     1       1.468   0.653  -0.828  0.00  0.00    +0.000 C 
ATOM     10  O   UNL     1       1.081   1.817  -0.702  0.00  0.00    +0.000 OA
BRANCH   9  11
ATOM     11  C   UNL     1       0.905  -0.264  -1.921  0.00  0.00    +0.000 C 
BRANCH  11  12
ATOM     12  C   UNL     1      -0.171   0.347  -2.854  0.00  0.00    +0.000 C 
ATOM     13  C   UNL     1      -1.435   0.754  -2.085  0.00  0.00    +0.000 C 
ATOM     14  C   UNL     1       0.373   1.519  -3.682  0.00  0.00    +0.000 C 
BRANCH  12  15
ATOM     15  N   UNL     1      -0.597  -0.684  -3.830  0.00  0.00    +0.000 NA
ATOM     16  H   UNL     1      -0.970  -1.501  -3.351  0.00  0.00    +0.000 HD
ATOM     17  H   UNL     1       0.194  -0.996  -4.391  0.00  0.00    +0.000 HD
ENDBRANCH  12  15
ENDBRANCH  11  12
ENDBRANCH   9  11
ENDBRANCH   1   8
BRANCH   5  18
ATOM     18  N   UNL     1       6.265   2.878   1.155  0.00  0.00    +0.000 N 
ATOM     19  H   UNL     1       6.822   2.242   0.585  0.00  0.00    +0.000 HD
BRANCH  18  20
ATOM     20  C   UNL     1       7.024   3.693   2.095  0.00  0.00    +0.000 C 
BRANCH  20  21
ATOM     21  C   UNL     1       8.325   4.254   1.496  0.00  0.00    +0.000 C 
ATOM     22  C   UNL     1       8.092   5.113   0.246  0.00  0.00    +0.000 C 
ATOM     23  C   UNL     1       9.419   5.591  -0.334  0.00  0.00    +0.000 C 
ATOM     24  O   UNL     1      10.280   4.485  -0.605  0.00  0.00    +0.000 OA
ATOM     25  C   UNL     1      10.615   3.763   0.579  0.00  0.00    +0.000 C 
ATOM     26  C   UNL     1       9.367   3.163   1.214  0.00  0.00    +0.000 C 
ENDBRANCH  20  21
ENDBRANCH  18  20
ENDBRANCH   5  18
TORSDOF 7
