REMARK  Name = 
REMARK  6 active torsions:
REMARK  status: ('A' for Active; 'I' for Inactive)
REMARK    1  A    between atoms: N_1  and  C_2
REMARK    2  A    between atoms: C_2  and  C_3
REMARK    3  A    between atoms: C_7  and  C_8
REMARK    4  A    between atoms: C_8  and  C_9
REMARK    5  A    between atoms: C_9  and  N_10
REMARK    6  A    between atoms: C_14  and  C_15
REMARK                            x       y       z     vdW  Elec       q    Type
REMARK                         _______ _______ _______ _____ _____    ______ ____
ROOT
ATOM      1  N   UNL     1       2.065  -6.888   2.507  0.00  0.00    +0.000 N 
ATOM      2  C   UNL     1       1.988  -7.659   3.663  0.00  0.00    +0.000 A 
ATOM      3  N   UNL     1       1.692  -7.070   4.828  0.00  0.00    +0.000 NA
ATOM      4  C   UNL     1       1.690  -7.838   5.937  0.00  0.00    +0.000 A 
ATOM      5  C   UNL     1       1.943  -9.184   5.926  0.00  0.00    +0.000 A 
ATOM      6  C   UNL     1       2.221  -9.710   4.684  0.00  0.00    +0.000 A 
ATOM      7  N   UNL     1       2.255  -8.969   3.545  0.00  0.00    +0.000 NA
ATOM      8  H   UNL     1       2.651  -7.401   1.856  0.00  0.00    +0.000 HD
ENDROOT
BRANCH   5   9
ATOM      9  C   UNL     1       1.957  -9.930   7.190  0.00  0.00    +0.000 C 
ATOM     10  N   UNL     1       1.689 -11.269   7.164  0.00  0.00    +0.000 N 
ATOM     11  O   UNL     1       2.173  -9.356   8.250  0.00  0.00    +0.000 OA
ATOM     12  H   UNL     1       1.328 -11.766   6.362  0.00  0.00    +0.000 HD
ATOM     13  H   UNL     1       1.617 -11.724   8.068  0.00  0.00    +0.000 HD
ENDBRANCH   5   9
BRANCH   1  14
ATOM     14  C   UNL     1       2.465  -5.507   2.776  0.00  0.00    +0.000 C 
BRANCH  14  15
ATOM     15  C   UNL     1       2.477  -4.664   1.495  0.00  0.00    +0.000 C 
BRANCH  15  20
ATOM     16  C   UNL     1       2.223  -1.015   2.611  0.00  0.00    +0.000 A 
ATOM     17  C   UNL     1       3.567  -0.622   2.554  0.00  0.00    +0.000 A 
ATOM     18  C   UNL     1       4.545  -1.509   2.109  0.00  0.00    +0.000 A 
ATOM     19  C   UNL     1       4.198  -2.811   1.739  0.00  0.00    +0.000 A 
ATOM     20  C   UNL     1       2.863  -3.231   1.793  0.00  0.00    +0.000 A 
ATOM     21  C   UNL     1       1.882  -2.317   2.214  0.00  0.00    +0.000 A 
BRANCH  16  22
ATOM     22  C   UNL     1       1.171  -0.086   3.160  0.00  0.00    +0.000 C 
BRANCH  22  23
ATOM     23  N   UNL     1       1.134   1.185   2.447  0.00  0.00    +0.000 NA
ATOM     24  H   UNL     1       0.317   1.710   2.752  0.00  0.00    +0.000 HD
ATOM     25  H   UNL     1       1.000   0.996   1.454  0.00  0.00    +0.000 HD
ENDBRANCH  22  23
ENDBRANCH  16  22
ENDBRANCH  15  20
ENDBRANCH  14  15
ENDBRANCH   1  14
TORSDOF 6
