REMARK  Name = 
REMARK  4 active torsions:
REMARK  status: ('A' for Active; 'I' for Inactive)
REMARK    1  A    between atoms: N_1  and  C_2
REMARK    2  A    between atoms: C_2  and  C_3
REMARK    3  A    between atoms: C_6  and  C_7
REMARK    4  A    between atoms: C_7  and  N_8
REMARK                            x       y       z     vdW  Elec       q    Type
REMARK                         _______ _______ _______ _____ _____    ______ ____
ROOT
ATOM      1  C   UNL     1       2.578   3.974   4.265  0.00  0.00    +0.000 C 
ENDROOT
BRANCH   1   2
ATOM      2  N   UNL     1       1.816   3.720   5.482  0.00  0.00    +0.000 N 
ATOM      3  C   UNL     1       0.459   3.905   5.584  0.00  0.00    +0.000 A 
ATOM      4  C   UNL     1       0.048   3.393   6.792  0.00  0.00    +0.000 A 
ATOM      5  C   UNL     1       1.200   2.916   7.473  0.00  0.00    +0.000 A 
ATOM      6  C   UNL     1       1.410   2.275   8.709  0.00  0.00    +0.000 A 
ATOM      7  F   UNL     1       0.370   1.966   9.497  0.00  0.00    +0.000 F 
ATOM      8  C   UNL     1       2.698   1.939   9.122  0.00  0.00    +0.000 A 
ATOM      9  C   UNL     1       3.791   2.267   8.328  0.00  0.00    +0.000 A 
ATOM     10  C   UNL     1       3.618   2.904   7.090  0.00  0.00    +0.000 A 
ATOM     11  C   UNL     1       2.309   3.193   6.662  0.00  0.00    +0.000 A 
ENDBRANCH   1   2
BRANCH   1  15
ATOM     12  C   UNL     1       2.894   1.007   1.003  0.00  0.00    +0.000 C 
ATOM     13  C   UNL     1       2.078   0.649   2.254  0.00  0.00    +0.000 C 
ATOM     14  C   UNL     1       2.385   1.567   3.434  0.00  0.00    +0.000 C 
ATOM     15  C   UNL     1       2.192   3.051   3.085  0.00  0.00    +0.000 C 
ATOM     16  C   UNL     1       3.009   3.411   1.833  0.00  0.00    +0.000 C 
ATOM     17  C   UNL     1       2.700   2.490   0.649  0.00  0.00    +0.000 C 
BRANCH  12  18
ATOM     18  C   UNL     1       2.498   0.063  -0.149  0.00  0.00    +0.000 C 
BRANCH  18  19
ATOM     19  N   UNL     1       3.253   0.320  -1.370  0.00  0.00    +0.000 NA
ATOM     20  H   UNL     1       3.035  -0.400  -2.058  0.00  0.00    +0.000 HD
ATOM     21  H   UNL     1       4.252   0.242  -1.182  0.00  0.00    +0.000 HD
ENDBRANCH  18  19
ENDBRANCH  12  18
ENDBRANCH   1  15
TORSDOF 4
