REMARK  Name = 
REMARK  9 active torsions:
REMARK  status: ('A' for Active; 'I' for Inactive)
REMARK    1  A    between atoms: C_1  and  C_2
REMARK    2  A    between atoms: N_4  and  C_5
REMARK    3  A    between atoms: C_7  and  C_8
REMARK    4  A    between atoms: C_8  and  C_9
REMARK    5  A    between atoms: C_9  and  N_10
REMARK    6  A    between atoms: N_10  and  C_11
REMARK    7  A    between atoms: C_14  and  C_15
REMARK    8  A    between atoms: C_21  and  C_22
REMARK    9  A    between atoms: C_28  and  C_29
REMARK                            x       y       z     vdW  Elec       q    Type
REMARK                         _______ _______ _______ _____ _____    ______ ____
ROOT
ATOM      1  C   UNL     1       1.775   1.327  -3.267  0.00  0.00    +0.000 A 
ATOM      2  C   UNL     1       2.174   2.606  -3.686  0.00  0.00    +0.000 A 
ATOM      3  C   UNL     1       1.434   3.371  -4.604  0.00  0.00    +0.000 A 
ATOM      4  C   UNL     1       0.236   2.852  -5.097  0.00  0.00    +0.000 A 
ATOM      5  C   UNL     1      -0.210   1.588  -4.692  0.00  0.00    +0.000 A 
ATOM      6  C   UNL     1       0.555   0.854  -3.764  0.00  0.00    +0.000 A 
ENDROOT
BRANCH   1  10
ATOM      7  C   UNL     1       1.852  -2.422  -3.113  0.00  0.00    +0.000 C 
ATOM      8  C   UNL     1       2.564  -1.846  -1.891  0.00  0.00    +0.000 C 
ATOM      9  C   UNL     1       2.058  -0.440  -1.502  0.00  0.00    +0.000 C 
ATOM     10  N   UNL     1       2.572   0.591  -2.414  0.00  0.00    +0.000 N 
ATOM     11  C   UNL     1       4.032   0.532  -2.621  0.00  0.00    +0.000 C 
ATOM     12  C   UNL     1       4.468  -0.900  -3.003  0.00  0.00    +0.000 C 
ATOM     13  C   UNL     1       5.990  -0.995  -3.049  0.00  0.00    +0.000 C 
ATOM     14  O   UNL     1       3.995  -1.874  -2.054  0.00  0.00    +0.000 OA
ENDBRANCH   1  10
BRANCH   5  15
ATOM     15  C   UNL     1      -1.460   0.981  -5.275  0.00  0.00    +0.000 C 
ATOM     16  F   UNL     1      -2.074   1.778  -6.194  0.00  0.00    +0.000 F 
ATOM     17  F   UNL     1      -1.211  -0.196  -5.915  0.00  0.00    +0.000 F 
ATOM     18  F   UNL     1      -2.402   0.701  -4.333  0.00  0.00    +0.000 F 
ENDBRANCH   5  15
BRANCH   3  19
ATOM     19  C   UNL     1       1.951   4.708  -5.091  0.00  0.00    +0.000 C 
BRANCH  19  20
ATOM     20  C   UNL     1       3.275   4.540  -5.844  0.00  0.00    +0.000 C 
BRANCH  20  21
ATOM     21  N   UNL     1       3.775   5.819  -6.365  0.00  0.00    +0.000 N 
ATOM     22  H   UNL     1       3.774   6.557  -5.663  0.00  0.00    +0.000 HD
BRANCH  21  23
ATOM     23  C   UNL     1       4.996   5.762  -7.066  0.00  0.00    +0.000 A 
ATOM     24  C   UNL     1       5.384   4.650  -7.822  0.00  0.00    +0.000 A 
ATOM     25  C   UNL     1       6.564   4.659  -8.556  0.00  0.00    +0.000 A 
ATOM     26  C   UNL     1       7.331   5.810  -8.548  0.00  0.00    +0.000 A 
ATOM     27  N   UNL     1       6.999   6.937  -7.865  0.00  0.00    +0.000 NA
ATOM     28  C   UNL     1       5.834   6.882  -7.162  0.00  0.00    +0.000 A 
BRANCH  26  29
ATOM     29  C   UNL     1       8.591   5.838  -9.354  0.00  0.00    +0.000 C 
ATOM     30  N   UNL     1       9.300   7.004  -9.309  0.00  0.00    +0.000 N 
ATOM     31  O   UNL     1       8.975   4.882 -10.022  0.00  0.00    +0.000 OA
ATOM     32  H   UNL     1       8.936   7.791  -8.779  0.00  0.00    +0.000 HD
ATOM     33  H   UNL     1      10.131   7.104  -9.872  0.00  0.00    +0.000 HD
ENDBRANCH  26  29
ENDBRANCH  21  23
ENDBRANCH  20  21
ENDBRANCH  19  20
ENDBRANCH   3  19
TORSDOF 7
