REMARK  Name = 
REMARK  3 active torsions:
REMARK  status: ('A' for Active; 'I' for Inactive)
REMARK    1  A    between atoms: C_2  and  C_4
REMARK    2  A    between atoms: N_8  and  C_9
REMARK    3  A    between atoms: C_9  and  C_10
REMARK                            x       y       z     vdW  Elec       q    Type
REMARK                         _______ _______ _______ _____ _____    ______ ____
ROOT
ATOM      1  C   UNL     1       3.286  -0.384   1.151  0.00  0.00    +0.000 A 
ATOM      2  C   UNL     1       2.904  -1.521   1.859  0.00  0.00    +0.000 A 
ATOM      3  C   UNL     1       3.639  -1.890   2.986  0.00  0.00    +0.000 A 
ATOM      4  C   UNL     1       4.719  -1.113   3.403  0.00  0.00    +0.000 A 
ATOM      5  N   UNL     1       5.351  -1.474   4.590  0.00  0.00    +0.000 N 
ATOM      6  N   UNL     1       5.103  -0.019   2.716  0.00  0.00    +0.000 NA
ATOM      7  C   UNL     1       4.403   0.308   1.597  0.00  0.00    +0.000 A 
ATOM      8  H   UNL     1       5.728  -2.420   4.549  0.00  0.00    +0.000 HD
ENDROOT
BRANCH   1  10
ATOM      9  N   UNL     1       1.223  -0.182  -0.117  0.00  0.00    +0.000 N 
ATOM     10  C   UNL     1       2.560   0.103  -0.039  0.00  0.00    +0.000 C 
ATOM     11  O   UNL     1       3.115   0.771  -0.900  0.00  0.00    +0.000 OA
ATOM     12  H   UNL     1       0.715   0.260  -0.873  0.00  0.00    +0.000 HD
ATOM     13  H   UNL     1       0.689  -0.489   0.682  0.00  0.00    +0.000 HD
ENDBRANCH   1  10
BRANCH   5  14
ATOM     14  C   UNL     1       6.354  -0.543   5.117  0.00  0.00    +0.000 C 
BRANCH  14  15
ATOM     15  C   UNL     1       7.201  -1.188   6.214  0.00  0.00    +0.000 A 
ATOM     16  N   UNL     1       7.164  -2.538   6.346  0.00  0.00    +0.000 NA
ATOM     17  C   UNL     1       7.933  -3.068   7.316  0.00  0.00    +0.000 A 
ATOM     18  C   UNL     1       8.750  -2.323   8.131  0.00  0.00    +0.000 A 
ATOM     19  C   UNL     1       8.737  -0.968   7.905  0.00  0.00    +0.000 A 
ATOM     20  N   UNL     1       7.978  -0.376   6.962  0.00  0.00    +0.000 NA
ENDBRANCH  14  15
ENDBRANCH   5  14
TORSDOF 3
