REMARK  Name = 
REMARK  5 active torsions:
REMARK  status: ('A' for Active; 'I' for Inactive)
REMARK    1  A    between atoms: C_2  and  C_4
REMARK    2  A    between atoms: C_7  and  C_8
REMARK    3  A    between atoms: C_8  and  N_9
REMARK    4  A    between atoms: N_9  and  C_10
REMARK    5  A    between atoms: C_14  and  C_15
REMARK                            x       y       z     vdW  Elec       q    Type
REMARK                         _______ _______ _______ _____ _____    ______ ____
ROOT
ATOM      1  N   UNL     1       5.066  -4.920  -3.282  0.00  0.00    +0.000 N 
ATOM      2  H   UNL     1       4.985  -4.128  -3.920  0.00  0.00    +0.000 HD
ENDROOT
BRANCH   1   3
ATOM      3  C   UNL     1       5.726  -5.994  -3.896  0.00  0.00    +0.000 A 
ATOM      4  C   UNL     1       6.399  -6.994  -3.189  0.00  0.00    +0.000 A 
ATOM      5  C   UNL     1       6.961  -8.088  -3.848  0.00  0.00    +0.000 A 
ATOM      6  C   UNL     1       6.814  -8.227  -5.227  0.00  0.00    +0.000 A 
ATOM      7  C   UNL     1       6.085  -7.287  -5.973  0.00  0.00    +0.000 A 
ATOM      8  C   UNL     1       5.564  -6.173  -5.281  0.00  0.00    +0.000 A 
BRANCH   7   9
ATOM      9  C   UNL     1       5.824  -7.470  -7.414  0.00  0.00    +0.000 A 
ATOM     10  C   UNL     1       5.645  -8.726  -7.999  0.00  0.00    +0.000 A 
ATOM     11  N   UNL     1       5.365  -8.914  -9.314  0.00  0.00    +0.000 NA
ATOM     12  C   UNL     1       5.260  -7.783 -10.040  0.00  0.00    +0.000 A 
ATOM     13  C   UNL     1       5.431  -6.529  -9.481  0.00  0.00    +0.000 A 
ATOM     14  N   UNL     1       5.711  -6.345  -8.169  0.00  0.00    +0.000 NA
ENDBRANCH   7   9
ENDBRANCH   1   3
BRANCH   1  15
ATOM     15  C   UNL     1       5.499  -4.481  -1.954  0.00  0.00    +0.000 C 
BRANCH  15  19
ATOM     16  C   UNL     1       3.129  -1.237  -0.492  0.00  0.00    +0.000 A 
ATOM     17  C   UNL     1       2.509  -2.458  -0.755  0.00  0.00    +0.000 A 
ATOM     18  C   UNL     1       3.274  -3.516  -1.246  0.00  0.00    +0.000 A 
ATOM     19  C   UNL     1       4.641  -3.329  -1.462  0.00  0.00    +0.000 A 
ATOM     20  N   UNL     1       5.253  -2.139  -1.232  0.00  0.00    +0.000 NA
ATOM     21  C   UNL     1       4.484  -1.121  -0.765  0.00  0.00    +0.000 A 
BRANCH  16  23
ATOM     22  N   UNL     1       1.294  -0.303   0.800  0.00  0.00    +0.000 N 
ATOM     23  C   UNL     1       2.409  -0.064   0.045  0.00  0.00    +0.000 C 
ATOM     24  O   UNL     1       2.815   1.075  -0.139  0.00  0.00    +0.000 OA
ATOM     25  H   UNL     1       0.879   0.502   1.253  0.00  0.00    +0.000 HD
ATOM     26  H   UNL     1       1.078  -1.213   1.181  0.00  0.00    +0.000 HD
ENDBRANCH  16  23
ENDBRANCH  15  19
ENDBRANCH   1  15
TORSDOF 5
