REMARK  Name = 
REMARK  5 active torsions:
REMARK  status: ('A' for Active; 'I' for Inactive)
REMARK    1  A    between atoms: N_1  and  C_2
REMARK    2  A    between atoms: C_2  and  C_3
REMARK    3  A    between atoms: C_5  and  C_6
REMARK    4  A    between atoms: C_6  and  N_7
REMARK    5  A    between atoms: C_12  and  C_13
REMARK                            x       y       z     vdW  Elec       q    Type
REMARK                         _______ _______ _______ _____ _____    ______ ____
ROOT
ATOM      1  N   UNL     1       4.032   4.665   1.946  0.00  0.00    +0.000 N 
ATOM      2  C   UNL     1       3.887   3.980   3.128  0.00  0.00    +0.000 A 
ATOM      3  C   UNL     1       3.877   4.894   4.154  0.00  0.00    +0.000 A 
ATOM      4  C   UNL     1       4.052   6.183   3.583  0.00  0.00    +0.000 A 
ATOM      5  C   UNL     1       4.185   7.475   4.136  0.00  0.00    +0.000 A 
ATOM      6  C   UNL     1       4.368   8.576   3.288  0.00  0.00    +0.000 A 
ATOM      7  C   UNL     1       4.376   8.387   1.900  0.00  0.00    +0.000 A 
ATOM      8  C   UNL     1       4.240   7.116   1.330  0.00  0.00    +0.000 A 
ATOM      9  C   UNL     1       4.104   6.021   2.195  0.00  0.00    +0.000 A 
ENDROOT
BRANCH   6  10
ATOM     10  C   UNL     1       4.588   9.964   3.798  0.00  0.00    +0.000 C 
ATOM     11  N   UNL     1       4.624  10.171   5.148  0.00  0.00    +0.000 N 
ATOM     12  O   UNL     1       4.751  10.910   3.034  0.00  0.00    +0.000 OA
ATOM     13  H   UNL     1       4.531   9.458   5.852  0.00  0.00    +0.000 HD
ATOM     14  H   UNL     1       4.808  11.118   5.456  0.00  0.00    +0.000 HD
ENDBRANCH   6  10
BRANCH   1  15
ATOM     15  C   UNL     1       4.257   4.021   0.661  0.00  0.00    +0.000 C 
BRANCH  15  18
ATOM     16  C   UNL     1       2.663   1.454   0.453  0.00  0.00    +0.000 C 
ATOM     17  C   UNL     1       1.983   2.808   0.566  0.00  0.00    +0.000 C 
ATOM     18  C   UNL     1       2.983   3.704  -0.147  0.00  0.00    +0.000 C 
ATOM     19  C   UNL     1       3.341   2.803  -1.328  0.00  0.00    +0.000 C 
ATOM     20  O   UNL     1       3.258   1.439  -0.863  0.00  0.00    +0.000 OA
BRANCH  16  21
ATOM     21  C   UNL     1       1.780   0.228   0.711  0.00  0.00    +0.000 C 
BRANCH  21  22
ATOM     22  N   UNL     1       0.650   0.106  -0.209  0.00  0.00    +0.000 NA
ATOM     23  H   UNL     1       0.189  -0.788  -0.047  0.00  0.00    +0.000 HD
ATOM     24  H   UNL     1       1.026   0.064  -1.159  0.00  0.00    +0.000 HD
ENDBRANCH  21  22
ENDBRANCH  16  21
ENDBRANCH  15  18
ENDBRANCH   1  15
TORSDOF 5
