REMARK  Name = 
REMARK  8 active torsions:
REMARK  status: ('A' for Active; 'I' for Inactive)
REMARK    1  A    between atoms: C_1  and  O_2
REMARK    2  A    between atoms: O_2  and  C_3
REMARK    3  A    between atoms: C_5  and  C_6
REMARK    4  A    between atoms: C_6  and  N_7
REMARK    5  A    between atoms: C_8  and  C_10
REMARK    6  A    between atoms: C_22  and  C_23
REMARK    7  A    between atoms: C_23  and  N_24
REMARK    8  A    between atoms: C_25  and  C_27
REMARK                            x       y       z     vdW  Elec       q    Type
REMARK                         _______ _______ _______ _____ _____    ______ ____
ROOT
ATOM      1  C   UNL     1       2.979  -0.569   1.060  0.00  0.00    +0.000 A 
ATOM      2  C   UNL     1       2.641  -1.870   1.447  0.00  0.00    +0.000 A 
ATOM      3  C   UNL     1       3.468  -2.610   2.307  0.00  0.00    +0.000 A 
ATOM      4  C   UNL     1       4.635  -2.020   2.800  0.00  0.00    +0.000 A 
ATOM      5  C   UNL     1       4.975  -0.720   2.429  0.00  0.00    +0.000 A 
ATOM      6  C   UNL     1       4.159   0.017   1.552  0.00  0.00    +0.000 A 
ENDROOT
BRANCH   1   8
ATOM      7  C   UNL     1       0.895  -0.210  -0.037  0.00  0.00    +0.000 C 
ATOM      8  O   UNL     1       2.244   0.188   0.185  0.00  0.00    +0.000 OA
ENDBRANCH   1   8
BRANCH   3   9
ATOM      9  C   UNL     1       3.076  -4.002   2.715  0.00  0.00    +0.000 C 
BRANCH   9  10
ATOM     10  N   UNL     1       2.306  -3.995   3.937  0.00  0.00    +0.000 N 
ATOM     11  C   UNL     1       0.940  -4.093   3.960  0.00  0.00    +0.000 C 
ATOM     12  O   UNL     1       0.273  -4.189   2.933  0.00  0.00    +0.000 OA
ATOM     13  H   UNL     1       2.801  -3.711   4.775  0.00  0.00    +0.000 HD
BRANCH  11  14
ATOM     14  C   UNL     1       0.311  -4.157   5.288  0.00  0.00    +0.000 A 
ATOM     15  C   UNL     1      -0.954  -4.711   5.418  0.00  0.00    +0.000 A 
ATOM     16  S   UNL     1      -1.520  -4.755   7.026  0.00  0.00    +0.000 S 
ATOM     17  C   UNL     1      -0.114  -3.991   7.599  0.00  0.00    +0.000 A 
ATOM     18  N   UNL     1       0.034  -3.704   8.922  0.00  0.00    +0.000 NA
ATOM     19  C   UNL     1       1.133  -3.096   9.217  0.00  0.00    +0.000 A 
ATOM     20  N   UNL     1       2.104  -2.756   8.310  0.00  0.00    +0.000 N 
ATOM     21  C   UNL     1       2.025  -3.078   6.976  0.00  0.00    +0.000 A 
ATOM     22  O   UNL     1       2.959  -2.851   6.212  0.00  0.00    +0.000 OA
ATOM     23  C   UNL     1       0.789  -3.730   6.584  0.00  0.00    +0.000 A 
ATOM     24  H   UNL     1       2.953  -2.301   8.609  0.00  0.00    +0.000 HD
ENDBRANCH  11  14
ENDBRANCH   9  10
ENDBRANCH   3   9
BRANCH   6  25
ATOM     25  C   UNL     1       4.547   1.439   1.224  0.00  0.00    +0.000 C 
BRANCH  25  26
ATOM     26  N   UNL     1       4.016   2.362   2.203  0.00  0.00    +0.000 N 
ATOM     27  C   UNL     1       4.633   3.549   2.523  0.00  0.00    +0.000 C 
ATOM     28  O   UNL     1       5.694   3.915   2.026  0.00  0.00    +0.000 OA
ATOM     29  H   UNL     1       3.100   2.183   2.602  0.00  0.00    +0.000 HD
BRANCH  27  30
ATOM     30  C   UNL     1       3.835   4.410   3.522  0.00  0.00    +0.000 C 
ATOM     31  C   UNL     1       4.743   5.259   4.404  0.00  0.00    +0.000 C 
ATOM     32  C   UNL     1       4.022   5.274   5.728  0.00  0.00    +0.000 C 
ATOM     33  C   UNL     1       3.378   3.909   5.750  0.00  0.00    +0.000 C 
ATOM     34  O   UNL     1       3.009   3.619   4.397  0.00  0.00    +0.000 OA
ENDBRANCH  27  30
ENDBRANCH  25  26
ENDBRANCH   6  25
TORSDOF 7
