REMARK  Name = 
REMARK  7 active torsions:
REMARK  status: ('A' for Active; 'I' for Inactive)
REMARK    1  A    between atoms: C_1  and  C_2
REMARK    2  A    between atoms: C_2  and  C_3
REMARK    3  A    between atoms: C_2  and  N_4
REMARK    4  A    between atoms: C_2  and  C_18
REMARK    5  A    between atoms: N_4  and  C_5
REMARK    6  A    between atoms: C_8  and  C_9
REMARK    7  A    between atoms: C_9  and  N_10
REMARK                            x       y       z     vdW  Elec       q    Type
REMARK                         _______ _______ _______ _____ _____    ______ ____
ROOT
ATOM      1  N   UNL     1       2.719  -0.960   1.020  0.00  0.00    +0.000 N 
ATOM      2  H   UNL     1       2.469  -0.668   1.960  0.00  0.00    +0.000 HD
ENDROOT
BRANCH   1   3
ATOM      3  C   UNL     1       2.876  -2.327   0.872  0.00  0.00    +0.000 A 
ATOM      4  C   UNL     1       3.763  -2.995   1.718  0.00  0.00    +0.000 A 
ATOM      5  C   UNL     1       4.114  -4.323   1.474  0.00  0.00    +0.000 A 
ATOM      6  C   UNL     1       3.511  -4.995   0.416  0.00  0.00    +0.000 A 
ATOM      7  N   UNL     1       2.598  -4.398  -0.391  0.00  0.00    +0.000 NA
ATOM      8  C   UNL     1       2.327  -3.094  -0.153  0.00  0.00    +0.000 A 
BRANCH   6   9
ATOM      9  C   UNL     1       3.905  -6.417   0.076  0.00  0.00    +0.000 C 
BRANCH   9  10
ATOM     10  N   UNL     1       5.007  -6.443  -0.859  0.00  0.00    +0.000 N 
ATOM     11  C   UNL     1       6.300  -6.548  -0.439  0.00  0.00    +0.000 C 
ATOM     12  N   UNL     1       7.330  -6.136  -1.182  0.00  0.00    +0.000 NA
ATOM     13  C   UNL     1       8.423  -6.460  -0.478  0.00  0.00    +0.000 C 
ATOM     14  N   UNL     1       8.101  -6.955   0.729  0.00  0.00    +0.000 NA
ATOM     15  N   UNL     1       6.735  -7.013   0.749  0.00  0.00    +0.000 NA
ATOM     16  H   UNL     1       4.864  -5.880  -1.684  0.00  0.00    +0.000 HD
ENDBRANCH   9  10
ENDBRANCH   6   9
ENDBRANCH   1   3
BRANCH   1  18
ATOM     17  C   UNL     1       0.854   0.077  -0.109  0.00  0.00    +0.000 C 
ATOM     18  C   UNL     1       2.407  -0.019  -0.068  0.00  0.00    +0.000 C 
ATOM     19  C   UNL     1       2.908   1.381   0.374  0.00  0.00    +0.000 C 
BRANCH  18  20
ATOM     20  C   UNL     1       3.036  -0.314  -1.456  0.00  0.00    +0.000 A 
ATOM     21  C   UNL     1       2.400  -0.061  -2.665  0.00  0.00    +0.000 A 
ATOM     22  S   UNL     1       3.275  -0.575  -4.035  0.00  0.00    +0.000 S 
ATOM     23  C   UNL     1       4.563  -1.134  -3.080  0.00  0.00    +0.000 A 
ATOM     24  N   UNL     1       5.620  -1.766  -3.651  0.00  0.00    +0.000 NA
ATOM     25  C   UNL     1       6.455  -2.269  -2.799  0.00  0.00    +0.000 A 
ATOM     26  N   UNL     1       6.362  -2.126  -1.440  0.00  0.00    +0.000 N 
ATOM     27  C   UNL     1       5.443  -1.285  -0.846  0.00  0.00    +0.000 A 
ATOM     28  O   UNL     1       5.620  -0.832   0.281  0.00  0.00    +0.000 OA
ATOM     29  C   UNL     1       4.351  -0.889  -1.730  0.00  0.00    +0.000 A 
ATOM     30  H   UNL     1       7.079  -2.520  -0.844  0.00  0.00    +0.000 HD
ENDBRANCH  18  20
ENDBRANCH   1  18
TORSDOF 5
