REMARK  Name = 
REMARK  8 active torsions:
REMARK  status: ('A' for Active; 'I' for Inactive)
REMARK    1  A    between atoms: C_2  and  C_21
REMARK    2  A    between atoms: N_3  and  C_4
REMARK    3  A    between atoms: C_4  and  C_5
REMARK    4  A    between atoms: C_8  and  C_9
REMARK    5  A    between atoms: C_9  and  C_10
REMARK    6  A    between atoms: C_10  and  C_11
REMARK    7  A    between atoms: C_11  and  O_12
REMARK    8  A    between atoms: C_11  and  C_13
REMARK                            x       y       z     vdW  Elec       q    Type
REMARK                         _______ _______ _______ _____ _____    ______ ____
ROOT
ATOM      1  C   UNL     1      12.754   8.157   3.869  0.00  0.00    +0.000 A 
ATOM      2  C   UNL     1      11.775   7.238   3.472  0.00  0.00    +0.000 A 
ATOM      3  C   UNL     1      10.440   7.408   3.851  0.00  0.00    +0.000 A 
ATOM      4  C   UNL     1      10.054   8.497   4.641  0.00  0.00    +0.000 A 
ATOM      5  C   UNL     1      11.030   9.444   4.991  0.00  0.00    +0.000 A 
ATOM      6  C   UNL     1      12.363   9.279   4.605  0.00  0.00    +0.000 A 
ENDROOT
BRANCH   1   7
ATOM      7  C   UNL     1      14.197   7.930   3.511  0.00  0.00    +0.000 C 
BRANCH   7  10
ATOM      8  O   UNL     1      16.729   7.889   2.431  0.00  0.00    +0.000 OA
ATOM      9  C   UNL     1      15.824   8.377   1.757  0.00  0.00    +0.000 C 
ATOM     10  N   UNL     1      14.543   8.501   2.237  0.00  0.00    +0.000 N 
ATOM     11  H   UNL     1      13.783   8.682   1.588  0.00  0.00    +0.000 HD
BRANCH   9  12
ATOM     12  C   UNL     1      16.072   8.890   0.409  0.00  0.00    +0.000 A 
ATOM     13  C   UNL     1      17.336   9.334   0.055  0.00  0.00    +0.000 A 
ATOM     14  S   UNL     1      17.438   9.880  -1.559  0.00  0.00    +0.000 S 
ATOM     15  C   UNL     1      15.805   9.499  -1.847  0.00  0.00    +0.000 A 
ATOM     16  N   UNL     1      15.247   9.682  -3.075  0.00  0.00    +0.000 NA
ATOM     17  C   UNL     1      14.014   9.309  -3.159  0.00  0.00    +0.000 A 
ATOM     18  N   UNL     1      13.281   8.785  -2.125  0.00  0.00    +0.000 N 
ATOM     19  C   UNL     1      13.785   8.628  -0.857  0.00  0.00    +0.000 A 
ATOM     20  O   UNL     1      13.081   8.230   0.061  0.00  0.00    +0.000 OA
ATOM     21  C   UNL     1      15.182   8.996  -0.720  0.00  0.00    +0.000 A 
ATOM     22  H   UNL     1      12.312   8.538  -2.252  0.00  0.00    +0.000 HD
ENDBRANCH   9  12
ENDBRANCH   7  10
ENDBRANCH   1   7
BRANCH   4  23
ATOM     23  C   UNL     1       8.622   8.735   5.059  0.00  0.00    +0.000 C 
BRANCH  23  24
ATOM     24  C   UNL     1       7.735   7.501   5.282  0.00  0.00    +0.000 C 
BRANCH  24  25
ATOM     25  C   UNL     1       8.224   6.532   6.373  0.00  0.00    +0.000 C 
BRANCH  25  26
ATOM     26  C   UNL     1       8.363   7.167   7.736  0.00  0.00    +0.000 A 
ATOM     27  C   UNL     1       9.622   7.235   8.344  0.00  0.00    +0.000 A 
ATOM     28  C   UNL     1       9.749   7.914   9.545  0.00  0.00    +0.000 A 
ATOM     29  N   UNL     1       8.721   8.509  10.185  0.00  0.00    +0.000 NA
ATOM     30  C   UNL     1       7.508   8.402   9.604  0.00  0.00    +0.000 A 
ATOM     31  C   UNL     1       7.280   7.750   8.401  0.00  0.00    +0.000 A 
ENDBRANCH  25  26
BRANCH  25  32
ATOM     32  O   UNL     1       7.322   5.427   6.464  0.00  0.00    +0.000 OA
ATOM     33  H   UNL     1       6.417   5.774   6.465  0.00  0.00    +0.000 HD
ENDBRANCH  25  32
ENDBRANCH  24  25
ENDBRANCH  23  24
ENDBRANCH   4  23
TORSDOF 8
