REMARK  Name = 
REMARK  4 active torsions:
REMARK  status: ('A' for Active; 'I' for Inactive)
REMARK    1  A    between atoms: C_2  and  C_4
REMARK    2  A    between atoms: N_8  and  C_9
REMARK    3  A    between atoms: C_9  and  C_10
REMARK    4  A    between atoms: C_14  and  C_15
REMARK                            x       y       z     vdW  Elec       q    Type
REMARK                         _______ _______ _______ _____ _____    ______ ____
ROOT
ATOM      1  C   UNL     1       4.594   5.105  -3.616  0.00  0.00    +0.000 C 
ENDROOT
BRANCH   1   6
ATOM      2  C   UNL     1       7.630   1.660  -1.268  0.00  0.00    +0.000 A 
ATOM      3  C   UNL     1       7.621   3.048  -1.192  0.00  0.00    +0.000 A 
ATOM      4  C   UNL     1       6.723   3.764  -1.982  0.00  0.00    +0.000 A 
ATOM      5  C   UNL     1       5.848   3.085  -2.824  0.00  0.00    +0.000 A 
ATOM      6  N   UNL     1       4.922   3.702  -3.611  0.00  0.00    +0.000 N 
ATOM      7  N   UNL     1       5.875   1.742  -2.928  0.00  0.00    +0.000 NA
ATOM      8  C   UNL     1       6.763   1.056  -2.163  0.00  0.00    +0.000 A 
ATOM      9  H   UNL     1       4.370   3.063  -4.172  0.00  0.00    +0.000 HD
BRANCH   2  11
ATOM     10  N   UNL     1       8.915   1.343   0.762  0.00  0.00    +0.000 N 
ATOM     11  C   UNL     1       8.522   0.824  -0.441  0.00  0.00    +0.000 C 
ATOM     12  O   UNL     1       8.866  -0.295  -0.797  0.00  0.00    +0.000 OA
ATOM     13  H   UNL     1       9.441   0.725   1.369  0.00  0.00    +0.000 HD
ATOM     14  H   UNL     1       8.461   2.137   1.188  0.00  0.00    +0.000 HD
ENDBRANCH   2  11
ENDBRANCH   1   6
BRANCH   1  15
ATOM     15  C   UNL     1       5.388   5.902  -4.617  0.00  0.00    +0.000 A 
ATOM     16  C   UNL     1       6.288   5.344  -5.515  0.00  0.00    +0.000 A 
ATOM     17  N   UNL     1       6.991   6.058  -6.421  0.00  0.00    +0.000 NA
ATOM     18  C   UNL     1       6.785   7.397  -6.440  0.00  0.00    +0.000 A 
ATOM     19  C   UNL     1       5.904   8.087  -5.606  0.00  0.00    +0.000 A 
ATOM     20  C   UNL     1       5.205   7.293  -4.683  0.00  0.00    +0.000 A 
BRANCH  19  21
ATOM     21  C   UNL     1       5.703   9.550  -5.693  0.00  0.00    +0.000 A 
ATOM     22  C   UNL     1       5.786  10.230  -6.924  0.00  0.00    +0.000 A 
ATOM     23  C   UNL     1       5.580  11.611  -7.013  0.00  0.00    +0.000 A 
ATOM     24  C   UNL     1       5.271  12.345  -5.873  0.00  0.00    +0.000 A 
ATOM     25  C   UNL     1       5.180  11.695  -4.647  0.00  0.00    +0.000 A 
ATOM     26 CL   UNL     1       4.784  12.592  -3.232  0.00  0.00    +0.000 Cl
ATOM     27  C   UNL     1       5.401  10.319  -4.553  0.00  0.00    +0.000 A 
ENDBRANCH  19  21
ENDBRANCH   1  15
TORSDOF 4
