REMARK  Name = 
REMARK  12 active torsions:
REMARK  status: ('A' for Active; 'I' for Inactive)
REMARK    1  A    between atoms: C_1  and  C_2
REMARK    2  A    between atoms: C_2  and  C_3
REMARK    3  A    between atoms: C_2  and  N_4
REMARK    4  A    between atoms: C_5  and  C_7
REMARK    5  A    between atoms: C_10  and  O_11
REMARK    6  A    between atoms: O_11  and  C_12
REMARK    7  A    between atoms: C_12  and  C_13
REMARK    8  A    between atoms: C_13  and  C_14
REMARK    9  A    between atoms: C_13  and  C_15
REMARK   10  A    between atoms: C_13  and  C_16
REMARK   11  A    between atoms: C_19  and  S_20
REMARK   12  A    between atoms: S_20  and  C_21
REMARK                            x       y       z     vdW  Elec       q    Type
REMARK                         _______ _______ _______ _____ _____    ______ ____
ROOT
ATOM      1  O   UNL     1       5.886   5.841  -4.007  0.00  0.00    +0.000 OA
ENDROOT
BRANCH   1   5
ATOM      2  C   UNL     1       4.935   2.696  -1.530  0.00  0.00    +0.000 A 
ATOM      3  C   UNL     1       4.245   3.884  -1.324  0.00  0.00    +0.000 A 
ATOM      4  C   UNL     1       4.538   4.977  -2.138  0.00  0.00    +0.000 A 
ATOM      5  C   UNL     1       5.507   4.859  -3.132  0.00  0.00    +0.000 A 
ATOM      6  C   UNL     1       6.147   3.627  -3.256  0.00  0.00    +0.000 A 
ATOM      7  N   UNL     1       5.893   2.537  -2.484  0.00  0.00    +0.000 NA
BRANCH   2   9
ATOM      8  N   UNL     1       5.324   0.365  -0.973  0.00  0.00    +0.000 N 
ATOM      9  C   UNL     1       4.603   1.504  -0.684  0.00  0.00    +0.000 C 
ATOM     10  O   UNL     1       3.740   1.565   0.186  0.00  0.00    +0.000 OA
ATOM     11  H   UNL     1       6.074   0.470  -1.652  0.00  0.00    +0.000 HD
BRANCH   8  13
ATOM     12  C   UNL     1       5.463  -2.067  -1.152  0.00  0.00    +0.000 C 
ATOM     13  C   UNL     1       5.144  -0.881  -0.248  0.00  0.00    +0.000 C 
ATOM     14  C   UNL     1       6.001  -0.912   1.014  0.00  0.00    +0.000 C 
ENDBRANCH   8  13
ENDBRANCH   2   9
ENDBRANCH   1   5
BRANCH   1  15
ATOM     15  C   UNL     1       5.236   7.109  -3.856  0.00  0.00    +0.000 C 
BRANCH  15  16
ATOM     16  C   UNL     1       5.731   8.141  -4.913  0.00  0.00    +0.000 C 
ATOM     17  C   UNL     1       5.391   7.593  -6.319  0.00  0.00    +0.000 C 
ATOM     18  C   UNL     1       4.908   9.439  -4.724  0.00  0.00    +0.000 C 
BRANCH  16  19
ATOM     19  C   UNL     1       7.228   8.471  -4.727  0.00  0.00    +0.000 A 
ATOM     20  C   UNL     1       8.171   8.281  -5.754  0.00  0.00    +0.000 A 
ATOM     21  C   UNL     1       9.524   8.585  -5.570  0.00  0.00    +0.000 A 
ATOM     22  C   UNL     1       9.957   9.098  -4.351  0.00  0.00    +0.000 A 
ATOM     23  C   UNL     1       9.053   9.290  -3.308  0.00  0.00    +0.000 A 
ATOM     24  C   UNL     1       7.702   8.983  -3.501  0.00  0.00    +0.000 A 
BRANCH  22  25
ATOM     25  S   UNL     1      11.687   9.410  -4.100  0.00  0.00    +0.000 S 
ATOM     26  C   UNL     1      11.915  11.071  -4.672  0.00  0.00    +0.000 C 
ATOM     27  O   UNL     1      11.931   9.395  -2.669  0.00  0.00    +0.000 OA
ATOM     28  O   UNL     1      12.422   8.526  -4.985  0.00  0.00    +0.000 OA
ENDBRANCH  22  25
ENDBRANCH  16  19
ENDBRANCH  15  16
ENDBRANCH   1  15
TORSDOF 7
