REMARK  Name = 
REMARK  9 active torsions:
REMARK  status: ('A' for Active; 'I' for Inactive)
REMARK    1  A    between atoms: C_1  and  C_2
REMARK    2  A    between atoms: C_2  and  C_3
REMARK    3  A    between atoms: C_2  and  C_4
REMARK    4  A    between atoms: C_2  and  C_15
REMARK    5  A    between atoms: C_4  and  N_5
REMARK    6  A    between atoms: N_5  and  C_6
REMARK    7  A    between atoms: C_10  and  C_11
REMARK    8  A    between atoms: C_20  and  O_21
REMARK    9  A    between atoms: O_21  and  C_22
REMARK                            x       y       z     vdW  Elec       q    Type
REMARK                         _______ _______ _______ _____ _____    ______ ____
ROOT
ATOM      1  C   UNL     1       0.912  -0.016  -0.018  0.00  0.00    +0.000 C 
ATOM      2  C   UNL     1       2.458   0.042  -0.038  0.00  0.00    +0.000 C 
ATOM      3  C   UNL     1       2.982   0.468   1.358  0.00  0.00    +0.000 C 
ENDROOT
BRANCH   2   4
ATOM      4  C   UNL     1       2.903   1.118  -1.058  0.00  0.00    +0.000 A 
ATOM      5  C   UNL     1       2.501   2.457  -0.888  0.00  0.00    +0.000 A 
ATOM      6  C   UNL     1       2.920   3.450  -1.768  0.00  0.00    +0.000 A 
ATOM      7  F   UNL     1       2.538   4.716  -1.554  0.00  0.00    +0.000 F 
ATOM      8  C   UNL     1       3.736   3.159  -2.851  0.00  0.00    +0.000 A 
ATOM      9  C   UNL     1       4.131   1.844  -3.055  0.00  0.00    +0.000 A 
ATOM     10  C   UNL     1       3.727   0.838  -2.163  0.00  0.00    +0.000 A 
BRANCH   9  11
ATOM     11  O   UNL     1       4.952   1.429  -4.074  0.00  0.00    +0.000 OA
BRANCH  11  12
ATOM     12  C   UNL     1       5.003   2.216  -5.288  0.00  0.00    +0.000 C 
ATOM     13  C   UNL     1       3.745   2.246  -6.178  0.00  0.00    +0.000 C 
ATOM     14  N   UNL     1       4.538   1.835  -7.344  0.00  0.00    +0.000 NA
ATOM     15  C   UNL     1       5.687   1.523  -6.483  0.00  0.00    +0.000 C 
ATOM     16  H   UNL     1       4.712   2.581  -8.017  0.00  0.00    +0.000 HD
ENDBRANCH  11  12
ENDBRANCH   9  11
ENDBRANCH   2   4
BRANCH   2  17
ATOM     17  C   UNL     1       3.006  -1.390  -0.370  0.00  0.00    +0.000 C 
BRANCH  17  18
ATOM     18  N   UNL     1       2.545  -2.396   0.590  0.00  0.00    +0.000 N 
ATOM     19  H   UNL     1       2.531  -2.069   1.551  0.00  0.00    +0.000 HD
BRANCH  18  20
ATOM     20  C   UNL     1       2.997  -3.714   0.540  0.00  0.00    +0.000 A 
ATOM     21  C   UNL     1       3.728  -4.262  -0.516  0.00  0.00    +0.000 A 
ATOM     22  C   UNL     1       4.100  -5.610  -0.504  0.00  0.00    +0.000 A 
ATOM     23  C   UNL     1       3.720  -6.433   0.556  0.00  0.00    +0.000 A 
ATOM     24  C   UNL     1       2.955  -5.918   1.607  0.00  0.00    +0.000 A 
ATOM     25  C   UNL     1       2.587  -4.569   1.577  0.00  0.00    +0.000 A 
BRANCH  24  26
ATOM     26  C   UNL     1       2.571  -6.834   2.718  0.00  0.00    +0.000 C 
ATOM     27  N   UNL     1       1.849  -6.336   3.767  0.00  0.00    +0.000 N 
ATOM     28  O   UNL     1       2.900  -8.017   2.713  0.00  0.00    +0.000 OA
ATOM     29  H   UNL     1       1.526  -5.387   3.861  0.00  0.00    +0.000 HD
ATOM     30  H   UNL     1       1.617  -6.988   4.505  0.00  0.00    +0.000 HD
ENDBRANCH  24  26
ENDBRANCH  18  20
ENDBRANCH  17  18
ENDBRANCH   2  17
TORSDOF 7
