REMARK  Name = 
REMARK  7 active torsions:
REMARK  status: ('A' for Active; 'I' for Inactive)
REMARK    1  A    between atoms: C_1  and  C_2
REMARK    2  A    between atoms: C_2  and  C_3
REMARK    3  A    between atoms: C_2  and  C_14
REMARK    4  A    between atoms: C_3  and  N_4
REMARK    5  A    between atoms: C_8  and  C_9
REMARK    6  A    between atoms: C_18  and  C_19
REMARK    7  A    between atoms: C_19  and  C_20
REMARK                            x       y       z     vdW  Elec       q    Type
REMARK                         _______ _______ _______ _____ _____    ______ ____
ROOT
ATOM      1  C   UNL     1       3.896  10.218  -0.933  0.00  0.00    +0.000 C 
ATOM      2  C   UNL     1       4.762   9.232  -0.133  0.00  0.00    +0.000 C 
ENDROOT
BRANCH   2   3
ATOM      3  C   UNL     1       3.831   8.342   0.681  0.00  0.00    +0.000 A 
ATOM      4  C   UNL     1       3.459   7.055   0.299  0.00  0.00    +0.000 A 
ATOM      5  C   UNL     1       2.510   6.392   1.056  0.00  0.00    +0.000 A 
ATOM      6  N   UNL     1       1.887   6.929   2.127  0.00  0.00    +0.000 NA
ATOM      7  C   UNL     1       2.222   8.192   2.495  0.00  0.00    +0.000 A 
ATOM      8  C   UNL     1       3.228   8.888   1.825  0.00  0.00    +0.000 A 
BRANCH   7   9
ATOM      9  C   UNL     1       1.401   8.813   3.627  0.00  0.00    +0.000 C 
ATOM     10  C   UNL     1      -0.077   8.424   3.460  0.00  0.00    +0.000 C 
ATOM     11  C   UNL     1       1.961   8.393   4.982  0.00  0.00    +0.000 C 
ATOM     12  C   UNL     1       2.924   9.508   5.359  0.00  0.00    +0.000 C 
ATOM     13  O   UNL     1       2.685  10.623   4.489  0.00  0.00    +0.000 OA
ATOM     14  C   UNL     1       1.503  10.339   3.730  0.00  0.00    +0.000 C 
ENDBRANCH   7   9
ENDBRANCH   2   3
BRANCH   2  15
ATOM     15  C   UNL     1       5.745   8.522  -1.093  0.00  0.00    +0.000 C 
BRANCH  15  16
ATOM     16  N   UNL     1       6.655   7.657  -0.358  0.00  0.00    +0.000 N 
ATOM     17  C   UNL     1       7.679   7.028  -1.047  0.00  0.00    +0.000 A 
ATOM     18  C   UNL     1       7.510   6.441  -2.294  0.00  0.00    +0.000 A 
ATOM     19  C   UNL     1       8.576   5.769  -2.891  0.00  0.00    +0.000 A 
ATOM     20  C   UNL     1       9.787   5.670  -2.209  0.00  0.00    +0.000 A 
ATOM     21  C   UNL     1       9.877   6.292  -0.978  0.00  0.00    +0.000 A 
ATOM     22  N   UNL     1       8.853   6.959  -0.385  0.00  0.00    +0.000 NA
ATOM     23  H   UNL     1       7.077   8.076   0.466  0.00  0.00    +0.000 HD
BRANCH  20  24
ATOM     24  C   UNL     1      10.914   4.938  -2.825  0.00  0.00    +0.000 C 
ATOM     25  N   UNL     1      11.846   4.390  -1.993  0.00  0.00    +0.000 N 
ATOM     26  O   UNL     1      10.983   4.783  -4.040  0.00  0.00    +0.000 OA
ATOM     27  H   UNL     1      11.694   4.260  -1.002  0.00  0.00    +0.000 HD
ATOM     28  H   UNL     1      12.536   3.793  -2.433  0.00  0.00    +0.000 HD
ENDBRANCH  20  24
ENDBRANCH  15  16
ENDBRANCH   2  15
TORSDOF 5
