REMARK  Name = 
REMARK  5 active torsions:
REMARK  status: ('A' for Active; 'I' for Inactive)
REMARK    1  A    between atoms: C_2  and  C_5
REMARK    2  A    between atoms: C_9  and  O_10
REMARK    3  A    between atoms: O_10  and  C_11
REMARK    4  A    between atoms: C_11  and  C_12
REMARK    5  A    between atoms: C_16  and  C_17
REMARK                            x       y       z     vdW  Elec       q    Type
REMARK                         _______ _______ _______ _____ _____    ______ ____
ROOT
ATOM      1  C   UNL     1       2.147  -6.011   0.017  0.00  0.00    +0.000 C 
ENDROOT
BRANCH   1   2
ATOM      2  C   UNL     1       1.230  -7.055  -0.566  0.00  0.00    +0.000 A 
ATOM      3  C   UNL     1       1.626  -8.394  -0.622  0.00  0.00    +0.000 A 
ATOM      4  C   UNL     1       0.736  -9.365  -1.070  0.00  0.00    +0.000 A 
ATOM      5  C   UNL     1      -0.559  -9.006  -1.456  0.00  0.00    +0.000 A 
ATOM      6  C   UNL     1      -1.003  -7.672  -1.395  0.00  0.00    +0.000 A 
ATOM      7  C   UNL     1      -0.070  -6.706  -0.975  0.00  0.00    +0.000 A 
BRANCH   6   8
ATOM      8  C   UNL     1      -2.416  -7.308  -1.665  0.00  0.00    +0.000 A 
ATOM      9  C   UNL     1      -3.466  -8.175  -1.304  0.00  0.00    +0.000 A 
ATOM     10  C   UNL     1      -4.807  -7.815  -1.473  0.00  0.00    +0.000 A 
ATOM     11  C   UNL     1      -5.132  -6.571  -2.001  0.00  0.00    +0.000 A 
ATOM     12  C   UNL     1      -4.117  -5.698  -2.379  0.00  0.00    +0.000 A 
ATOM     13  C   UNL     1      -2.775  -6.067  -2.222  0.00  0.00    +0.000 A 
ENDBRANCH   6   8
ENDBRANCH   1   2
BRANCH   1  14
ATOM     14  O   UNL     1       3.068  -5.528  -0.970  0.00  0.00    +0.000 OA
BRANCH  14  19
ATOM     15  C   UNL     1       4.636  -3.323   1.395  0.00  0.00    +0.000 A 
ATOM     16  C   UNL     1       5.615  -2.708   0.615  0.00  0.00    +0.000 A 
ATOM     17  C   UNL     1       5.727  -3.061  -0.731  0.00  0.00    +0.000 A 
ATOM     18  C   UNL     1       4.863  -4.013  -1.269  0.00  0.00    +0.000 A 
ATOM     19  C   UNL     1       3.919  -4.579  -0.433  0.00  0.00    +0.000 A 
ATOM     20  N   UNL     1       3.793  -4.253   0.872  0.00  0.00    +0.000 NA
BRANCH  15  22
ATOM     21  F   UNL     1       5.360  -2.020   3.295  0.00  0.00    +0.000 F 
ATOM     22  C   UNL     1       4.480  -2.972   2.867  0.00  0.00    +0.000 C 
ATOM     23  F   UNL     1       4.671  -4.042   3.691  0.00  0.00    +0.000 F 
ATOM     24  F   UNL     1       3.241  -2.483   3.168  0.00  0.00    +0.000 F 
ENDBRANCH  15  22
ENDBRANCH  14  19
ENDBRANCH   1  14
TORSDOF 5
