REMARK  Name = 
REMARK  5 active torsions:
REMARK  status: ('A' for Active; 'I' for Inactive)
REMARK    1  A    between atoms: N_1  and  C_2
REMARK    2  A    between atoms: C_2  and  C_3
REMARK    3  A    between atoms: C_6  and  C_7
REMARK    4  A    between atoms: C_7  and  N_8
REMARK    5  A    between atoms: C_13  and  C_14
REMARK                            x       y       z     vdW  Elec       q    Type
REMARK                         _______ _______ _______ _____ _____    ______ ____
ROOT
ATOM      1  N   UNL     1       2.431   5.896   3.045  0.00  0.00    +0.000 N 
ATOM      2  C   UNL     1       3.455   6.587   2.436  0.00  0.00    +0.000 A 
ATOM      3  C   UNL     1       2.961   7.801   2.023  0.00  0.00    +0.000 A 
ATOM      4  C   UNL     1       1.603   7.879   2.435  0.00  0.00    +0.000 A 
ATOM      5  C   UNL     1       0.591   8.835   2.262  0.00  0.00    +0.000 A 
ATOM      6  C   UNL     1      -0.638   8.554   2.846  0.00  0.00    +0.000 A 
ATOM      7  N   UNL     1      -0.893   7.459   3.616  0.00  0.00    +0.000 NA
ATOM      8  C   UNL     1       0.088   6.537   3.786  0.00  0.00    +0.000 A 
ATOM      9  C   UNL     1       1.318   6.712   3.153  0.00  0.00    +0.000 A 
ENDROOT
BRANCH   6  10
ATOM     10  C   UNL     1      -1.792   9.483   2.593  0.00  0.00    +0.000 C 
ATOM     11  N   UNL     1      -2.995   9.143   3.160  0.00  0.00    +0.000 N 
ATOM     12  O   UNL     1      -1.684  10.491   1.897  0.00  0.00    +0.000 OA
ATOM     13  H   UNL     1      -3.087   8.279   3.678  0.00  0.00    +0.000 HD
ATOM     14  H   UNL     1      -3.806   9.713   2.968  0.00  0.00    +0.000 HD
ENDBRANCH   6  10
BRANCH   1  15
ATOM     15  C   UNL     1       2.556   4.511   3.480  0.00  0.00    +0.000 C 
BRANCH  15  19
ATOM     16  C   UNL     1       2.790   1.039   0.739  0.00  0.00    +0.000 C 
ATOM     17  C   UNL     1       1.980   0.922   2.040  0.00  0.00    +0.000 C 
ATOM     18  C   UNL     1       2.294   2.042   3.032  0.00  0.00    +0.000 C 
ATOM     19  C   UNL     1       2.134   3.451   2.429  0.00  0.00    +0.000 C 
ATOM     20  C   UNL     1       2.948   3.553   1.128  0.00  0.00    +0.000 C 
ATOM     21  C   UNL     1       2.621   2.438   0.131  0.00  0.00    +0.000 C 
BRANCH  16  22
ATOM     22  C   UNL     1       2.366  -0.086  -0.228  0.00  0.00    +0.000 C 
BRANCH  22  23
ATOM     23  N   UNL     1       3.096  -0.049  -1.490  0.00  0.00    +0.000 NA
ATOM     24  H   UNL     1       2.851  -0.865  -2.051  0.00  0.00    +0.000 HD
ATOM     25  H   UNL     1       4.097  -0.111  -1.315  0.00  0.00    +0.000 HD
ENDBRANCH  22  23
ENDBRANCH  16  22
ENDBRANCH  15  19
ENDBRANCH   1  15
TORSDOF 5
