REMARK  Name = 
REMARK  6 active torsions:
REMARK  status: ('A' for Active; 'I' for Inactive)
REMARK    1  A    between atoms: C_2  and  C_3
REMARK    2  A    between atoms: C_6  and  C_7
REMARK    3  A    between atoms: C_9  and  C_10
REMARK    4  A    between atoms: C_10  and  N_11
REMARK    5  A    between atoms: N_11  and  C_12
REMARK    6  A    between atoms: C_15  and  C_16
REMARK                            x       y       z     vdW  Elec       q    Type
REMARK                         _______ _______ _______ _____ _____    ______ ____
ROOT
ATOM      1  C   UNL     1       6.472   1.286   2.420  0.00  0.00    +0.000 C 
ATOM      2  C   UNL     1       7.019   0.396   3.519  0.00  0.00    +0.000 C 
ATOM      3  O   UNL     1       5.741   1.005   3.643  0.00  0.00    +0.000 OA
ENDROOT
BRANCH   1   6
ATOM      4  C   UNL     1       3.791   0.009  -0.032  0.00  0.00    +0.000 A 
ATOM      5  C   UNL     1       4.460   0.698   0.998  0.00  0.00    +0.000 A 
ATOM      6  C   UNL     1       5.858   0.652   1.186  0.00  0.00    +0.000 A 
ATOM      7  C   UNL     1       6.614  -0.047   0.237  0.00  0.00    +0.000 A 
ATOM      8  C   UNL     1       5.991  -0.700  -0.827  0.00  0.00    +0.000 A 
ATOM      9  C   UNL     1       4.601  -0.682  -0.944  0.00  0.00    +0.000 A 
ATOM     10  F   UNL     1       4.057  -1.385  -1.949  0.00  0.00    +0.000 F 
BRANCH   4  14
ATOM     11  C   UNL     1      -0.530  -0.104  -0.131  0.00  0.00    +0.000 A 
ATOM     12  C   UNL     1       0.201  -0.131  -1.321  0.00  0.00    +0.000 A 
ATOM     13  C   UNL     1       1.600  -0.078  -1.293  0.00  0.00    +0.000 A 
ATOM     14  C   UNL     1       2.309  -0.013  -0.081  0.00  0.00    +0.000 A 
ATOM     15  C   UNL     1       1.543   0.011   1.105  0.00  0.00    +0.000 A 
ATOM     16  C   UNL     1       0.144  -0.032   1.086  0.00  0.00    +0.000 A 
BRANCH  11  18
ATOM     17  N   UNL     1      -3.116  -0.208  -0.173  0.00  0.00    +0.000 NA
ATOM     18  C   UNL     1      -1.958  -0.162  -0.157  0.00  0.00    +0.000 C 
ENDBRANCH  11  18
ENDBRANCH   4  14
ENDBRANCH   1   6
BRANCH   1  19
ATOM     19  N   UNL     1       6.735   2.715   2.329  0.00  0.00    +0.000 N 
ATOM     20  H   UNL     1       5.918   3.313   2.388  0.00  0.00    +0.000 HD
BRANCH  19  21
ATOM     21  C   UNL     1       7.899   3.352   1.880  0.00  0.00    +0.000 A 
ATOM     22  C   UNL     1       9.071   2.691   1.511  0.00  0.00    +0.000 A 
ATOM     23  C   UNL     1      10.229   3.416   1.177  0.00  0.00    +0.000 A 
ATOM     24  C   UNL     1      10.230   4.817   1.218  0.00  0.00    +0.000 A 
ATOM     25  C   UNL     1       9.064   5.487   1.586  0.00  0.00    +0.000 A 
ATOM     26  C   UNL     1       7.918   4.757   1.913  0.00  0.00    +0.000 A 
BRANCH  24  27
ATOM     27  C   UNL     1      11.494   5.550   0.942  0.00  0.00    +0.000 C 
ATOM     28  N   UNL     1      11.396   6.850   0.527  0.00  0.00    +0.000 N 
ATOM     29  O   UNL     1      12.588   5.013   1.070  0.00  0.00    +0.000 OA
ATOM     30  H   UNL     1      10.532   7.275   0.226  0.00  0.00    +0.000 HD
ATOM     31  H   UNL     1      12.261   7.320   0.292  0.00  0.00    +0.000 HD
ENDBRANCH  24  27
ENDBRANCH  19  21
ENDBRANCH   1  19
TORSDOF 6
