REMARK  Name = 
REMARK  11 active torsions:
REMARK  status: ('A' for Active; 'I' for Inactive)
REMARK    1  A    between atoms: C_1  and  C_2
REMARK    2  A    between atoms: C_2  and  C_3
REMARK    3  A    between atoms: C_3  and  C_4
REMARK    4  A    between atoms: C_4  and  N_5
REMARK    5  A    between atoms: C_4  and  C_18
REMARK    6  A    between atoms: C_6  and  C_8
REMARK    7  A    between atoms: C_21  and  C_22
REMARK    8  A    between atoms: C_22  and  C_23
REMARK    9  A    between atoms: C_22  and  N_24
REMARK   10  A    between atoms: N_24  and  C_25
REMARK   11  A    between atoms: C_25  and  C_27
REMARK                            x       y       z     vdW  Elec       q    Type
REMARK                         _______ _______ _______ _____ _____    ______ ____
ROOT
ATOM      1  C   UNL     1       6.558  -9.048  -5.155  0.00  0.00    +0.000 C 
ENDROOT
BRANCH   1   2
ATOM      2  C   UNL     1       6.711  -8.416  -3.779  0.00  0.00    +0.000 A 
ATOM      3  C   UNL     1       7.970  -7.979  -3.344  0.00  0.00    +0.000 A 
ATOM      4  C   UNL     1       8.114  -7.261  -2.148  0.00  0.00    +0.000 A 
ATOM      5  C   UNL     1       6.996  -6.974  -1.354  0.00  0.00    +0.000 A 
ATOM      6  C   UNL     1       5.746  -7.457  -1.765  0.00  0.00    +0.000 A 
ATOM      7  C   UNL     1       5.612  -8.195  -2.939  0.00  0.00    +0.000 A 
BRANCH   5   8
ATOM      8  C   UNL     1       7.131  -6.155  -0.080  0.00  0.00    +0.000 C 
ATOM      9  C   UNL     1       6.597  -6.944   1.122  0.00  0.00    +0.000 C 
BRANCH   8  10
ATOM     10  N   UNL     1       6.412  -4.884  -0.223  0.00  0.00    +0.000 N 
ATOM     11  H   UNL     1       5.619  -4.894  -0.851  0.00  0.00    +0.000 HD
BRANCH  10  12
ATOM     12  C   UNL     1       6.636  -3.713   0.464  0.00  0.00    +0.000 C 
ATOM     13  S   UNL     1       7.949  -3.388   1.450  0.00  0.00    +0.000 S 
BRANCH  12  14
ATOM     14  C   UNL     1       5.616  -2.691   0.304  0.00  0.00    +0.000 A 
ATOM     15  C   UNL     1       4.256  -2.833   0.053  0.00  0.00    +0.000 A 
ATOM     16  C   UNL     1       3.656  -1.550   0.071  0.00  0.00    +0.000 A 
ATOM     17  C   UNL     1       4.659  -0.638   0.294  0.00  0.00    +0.000 A 
ATOM     18  N   UNL     1       5.835  -1.328   0.414  0.00  0.00    +0.000 N 
ATOM     19  H   UNL     1       6.743  -0.918   0.594  0.00  0.00    +0.000 HD
ENDBRANCH  12  14
ENDBRANCH  10  12
ENDBRANCH   8  10
ENDBRANCH   5   8
ENDBRANCH   1   2
BRANCH   1  20
ATOM     20  N   UNL     1       6.779 -10.487  -5.079  0.00  0.00    +0.000 N 
ATOM     21  C   UNL     1       7.305 -11.184  -6.141  0.00  0.00    +0.000 C 
ATOM     22  O   UNL     1       7.717 -10.617  -7.150  0.00  0.00    +0.000 OA
ATOM     23  H   UNL     1       6.283 -10.991  -4.351  0.00  0.00    +0.000 HD
BRANCH  21  24
ATOM     24  C   UNL     1       7.398 -12.644  -6.010  0.00  0.00    +0.000 A 
ATOM     25  C   UNL     1       8.348 -13.334  -6.753  0.00  0.00    +0.000 A 
ATOM     26  S   UNL     1       8.322 -15.020  -6.504  0.00  0.00    +0.000 S 
ATOM     27  C   UNL     1       7.009 -14.893  -5.430  0.00  0.00    +0.000 A 
ATOM     28  N   UNL     1       6.452 -16.005  -4.878  0.00  0.00    +0.000 NA
ATOM     29  C   UNL     1       5.439 -15.769  -4.113  0.00  0.00    +0.000 A 
ATOM     30  N   UNL     1       4.941 -14.520  -3.840  0.00  0.00    +0.000 N 
ATOM     31  C   UNL     1       5.499 -13.365  -4.340  0.00  0.00    +0.000 A 
ATOM     32  O   UNL     1       5.076 -12.258  -4.022  0.00  0.00    +0.000 OA
ATOM     33  C   UNL     1       6.620 -13.579  -5.235  0.00  0.00    +0.000 A 
ATOM     34  H   UNL     1       4.157 -14.406  -3.216  0.00  0.00    +0.000 HD
ENDBRANCH  21  24
ENDBRANCH   1  20
BRANCH   1  35
ATOM     35  C   UNL     1       5.199  -8.765  -5.843  0.00  0.00    +0.000 C 
BRANCH  35  37
ATOM     36  C   UNL     1       3.527  -7.045  -6.622  0.00  0.00    +0.000 C 
ATOM     37  C   UNL     1       4.917  -7.269  -6.050  0.00  0.00    +0.000 C 
ENDBRANCH  35  37
ENDBRANCH   1  35
TORSDOF 9
