REMARK  Name = 
REMARK  7 active torsions:
REMARK  status: ('A' for Active; 'I' for Inactive)
REMARK    1  A    between atoms: C_1  and  C_2
REMARK    2  A    between atoms: C_2  and  N_3
REMARK    3  A    between atoms: C_2  and  C_16
REMARK    4  A    between atoms: C_4  and  C_6
REMARK    5  A    between atoms: C_19  and  C_20
REMARK    6  A    between atoms: C_20  and  N_21
REMARK    7  A    between atoms: C_22  and  C_24
REMARK                            x       y       z     vdW  Elec       q    Type
REMARK                         _______ _______ _______ _____ _____    ______ ____
ROOT
ATOM      1  C   UNL     1       3.530  -0.021  -1.134  0.00  0.00    +0.000 C 
ATOM      2  C   UNL     1       2.542   0.070   0.036  0.00  0.00    +0.000 C 
ENDROOT
BRANCH   2   3
ATOM      3  C   UNL     1       2.934  -0.915   1.134  0.00  0.00    +0.000 A 
ATOM      4  C   UNL     1       3.303  -0.470   2.411  0.00  0.00    +0.000 A 
ATOM      5  C   UNL     1       3.610  -1.387   3.428  0.00  0.00    +0.000 A 
ATOM      6  C   UNL     1       3.561  -2.768   3.190  0.00  0.00    +0.000 A 
ATOM      7  C   UNL     1       3.199  -3.213   1.914  0.00  0.00    +0.000 A 
ATOM      8  C   UNL     1       2.897  -2.300   0.900  0.00  0.00    +0.000 A 
BRANCH   6   9
ATOM      9  C   UNL     1       3.854  -3.764   4.286  0.00  0.00    +0.000 C 
BRANCH   9  10
ATOM     10  N   UNL     1       2.659  -4.104   5.022  0.00  0.00    +0.000 N 
ATOM     11  C   UNL     1       2.671  -5.055   6.019  0.00  0.00    +0.000 C 
ATOM     12  O   UNL     1       3.685  -5.668   6.335  0.00  0.00    +0.000 OA
ATOM     13  H   UNL     1       1.816  -3.594   4.816  0.00  0.00    +0.000 HD
BRANCH  11  14
ATOM     14  C   UNL     1       1.404  -5.277   6.672  0.00  0.00    +0.000 A 
ATOM     15  C   UNL     1       0.146  -4.739   6.493  0.00  0.00    +0.000 A 
ATOM     16  N   UNL     1      -0.761  -5.279   7.367  0.00  0.00    +0.000 NA
ATOM     17  C   UNL     1      -0.077  -6.141   8.084  0.00  0.00    +0.000 A 
ATOM     18  N   UNL     1       1.231  -6.178   7.702  0.00  0.00    +0.000 N 
ATOM     19  H   UNL     1       1.960  -6.761   8.096  0.00  0.00    +0.000 HD
ENDBRANCH  11  14
ENDBRANCH   9  10
ENDBRANCH   6   9
ENDBRANCH   2   3
BRANCH   2  20
ATOM     20  N   UNL     1       1.167  -0.198  -0.367  0.00  0.00    +0.000 N 
ATOM     21  C   UNL     1       0.490   0.533  -1.312  0.00  0.00    +0.000 C 
ATOM     22  O   UNL     1       1.003   1.459  -1.931  0.00  0.00    +0.000 OA
ATOM     23  H   UNL     1       0.610  -0.714   0.307  0.00  0.00    +0.000 HD
BRANCH  21  24
ATOM     24  C   UNL     1      -0.885   0.102  -1.600  0.00  0.00    +0.000 A 
ATOM     25  C   UNL     1      -1.427   0.324  -2.859  0.00  0.00    +0.000 A 
ATOM     26  S   UNL     1      -3.031  -0.236  -3.022  0.00  0.00    +0.000 S 
ATOM     27  C   UNL     1      -3.070  -0.757  -1.403  0.00  0.00    +0.000 A 
ATOM     28  N   UNL     1      -4.197  -1.302  -0.870  0.00  0.00    +0.000 NA
ATOM     29  C   UNL     1      -4.096  -1.621   0.378  0.00  0.00    +0.000 A 
ATOM     30  N   UNL     1      -2.965  -1.462   1.136  0.00  0.00    +0.000 N 
ATOM     31  C   UNL     1      -1.790  -0.963   0.626  0.00  0.00    +0.000 A 
ATOM     32  O   UNL     1      -0.769  -0.911   1.305  0.00  0.00    +0.000 OA
ATOM     33  C   UNL     1      -1.863  -0.546  -0.760  0.00  0.00    +0.000 A 
ATOM     34  H   UNL     1      -2.944  -1.756   2.101  0.00  0.00    +0.000 HD
ENDBRANCH  21  24
ENDBRANCH   2  20
TORSDOF 6
