REMARK  Name = 
REMARK  10 active torsions:
REMARK  status: ('A' for Active; 'I' for Inactive)
REMARK    1  A    between atoms: N_1  and  C_2
REMARK    2  A    between atoms: C_2  and  C_3
REMARK    3  A    between atoms: C_3  and  N_4
REMARK    4  A    between atoms: N_4  and  C_5
REMARK    5  A    between atoms: C_5  and  C_6
REMARK    6  A    between atoms: C_9  and  C_10
REMARK    7  A    between atoms: C_10  and  C_11
REMARK    8  A    between atoms: C_14  and  C_15
REMARK    9  A    between atoms: C_15  and  N_16
REMARK   10  A    between atoms: C_17  and  C_19
REMARK                            x       y       z     vdW  Elec       q    Type
REMARK                         _______ _______ _______ _____ _____    ______ ____
ROOT
ATOM      1  C   UNL     1      11.376   0.253   3.094  0.00  0.00    +0.000 A 
ATOM      2  C   UNL     1      11.131  -1.006   2.528  0.00  0.00    +0.000 A 
ATOM      3  C   UNL     1      11.749  -2.152   3.040  0.00  0.00    +0.000 A 
ATOM      4  C   UNL     1      12.613  -2.064   4.139  0.00  0.00    +0.000 A 
ATOM      5  C   UNL     1      12.889  -0.801   4.679  0.00  0.00    +0.000 A 
ATOM      6  C   UNL     1      12.269   0.344   4.169  0.00  0.00    +0.000 A 
ENDROOT
BRANCH   1   7
ATOM      7  C   UNL     1      10.690   1.487   2.556  0.00  0.00    +0.000 C 
BRANCH   7  11
ATOM      8  C   UNL     1       7.000   2.517   4.436  0.00  0.00    +0.000 A 
ATOM      9  C   UNL     1       6.968   1.675   3.328  0.00  0.00    +0.000 A 
ATOM     10  C   UNL     1       8.166   1.316   2.717  0.00  0.00    +0.000 A 
ATOM     11  C   UNL     1       9.375   1.813   3.211  0.00  0.00    +0.000 A 
ATOM     12  C   UNL     1       9.310   2.631   4.335  0.00  0.00    +0.000 A 
ATOM     13  N   UNL     1       8.161   2.993   4.952  0.00  0.00    +0.000 NA
BRANCH   8  14
ATOM     14  C   UNL     1       5.711   2.873   5.154  0.00  0.00    +0.000 C 
BRANCH  14  15
ATOM     15  N   UNL     1       4.990   1.717   5.726  0.00  0.00    +0.000 NA
ATOM     16  H   UNL     1       4.216   2.104   6.274  0.00  0.00    +0.000 HD
BRANCH  15  17
ATOM     17  C   UNL     1       5.821   0.967   6.687  0.00  0.00    +0.000 C 
BRANCH  17  18
ATOM     18  C   UNL     1       6.179   1.766   7.955  0.00  0.00    +0.000 C 
BRANCH  18  19
ATOM     19  N   UNL     1       4.973   2.290   8.608  0.00  0.00    +0.000 NA
ATOM     20  H   UNL     1       5.253   2.809   9.440  0.00  0.00    +0.000 HD
ATOM     21  H   UNL     1       4.414   1.504   8.940  0.00  0.00    +0.000 HD
ENDBRANCH  18  19
ENDBRANCH  17  18
ENDBRANCH  15  17
ENDBRANCH  14  15
ENDBRANCH   8  14
ENDBRANCH   7  11
ENDBRANCH   1   7
BRANCH   4  22
ATOM     22  C   UNL     1      13.276  -3.294   4.704  0.00  0.00    +0.000 C 
BRANCH  22  23
ATOM     23  N   UNL     1      14.540  -3.532   4.059  0.00  0.00    +0.000 N 
ATOM     24  C   UNL     1      15.305  -4.632   4.343  0.00  0.00    +0.000 C 
ATOM     25  O   UNL     1      14.936  -5.506   5.120  0.00  0.00    +0.000 OA
ATOM     26  H   UNL     1      14.972  -2.729   3.615  0.00  0.00    +0.000 HD
BRANCH  24  27
ATOM     27  C   UNL     1      16.570  -4.739   3.603  0.00  0.00    +0.000 A 
ATOM     28  C   UNL     1      17.172  -5.979   3.435  0.00  0.00    +0.000 A 
ATOM     29  S   UNL     1      18.582  -5.929   2.476  0.00  0.00    +0.000 S 
ATOM     30  C   UNL     1      18.467  -4.240   2.297  0.00  0.00    +0.000 A 
ATOM     31  N   UNL     1      19.390  -3.547   1.575  0.00  0.00    +0.000 NA
ATOM     32  C   UNL     1      19.194  -2.271   1.544  0.00  0.00    +0.000 A 
ATOM     33  N   UNL     1      18.166  -1.623   2.176  0.00  0.00    +0.000 N 
ATOM     34  C   UNL     1      17.209  -2.282   2.909  0.00  0.00    +0.000 A 
ATOM     35  O   UNL     1      16.295  -1.670   3.453  0.00  0.00    +0.000 OA
ATOM     36  C   UNL     1      17.372  -3.722   2.961  0.00  0.00    +0.000 A 
ATOM     37  H   UNL     1      18.067  -0.620   2.116  0.00  0.00    +0.000 HD
ENDBRANCH  24  27
ENDBRANCH  22  23
ENDBRANCH   4  22
TORSDOF 10
