REMARK  Name = 
REMARK  9 active torsions:
REMARK  status: ('A' for Active; 'I' for Inactive)
REMARK    1  A    between atoms: C_1  and  O_2
REMARK    2  A    between atoms: O_2  and  C_3
REMARK    3  A    between atoms: C_10  and  C_11
REMARK    4  A    between atoms: N_13  and  C_14
REMARK    5  A    between atoms: C_14  and  C_15
REMARK    6  A    between atoms: C_18  and  N_19
REMARK    7  A    between atoms: N_19  and  C_20
REMARK    8  A    between atoms: C_20  and  C_21
REMARK    9  A    between atoms: C_21  and  C_22
REMARK                            x       y       z     vdW  Elec       q    Type
REMARK                         _______ _______ _______ _____ _____    ______ ____
ROOT
ATOM      1  C   UNL     1       1.428   2.371  -2.350  0.00  0.00    +0.000 A 
ATOM      2  C   UNL     1       1.415   1.007  -2.657  0.00  0.00    +0.000 A 
ATOM      3  C   UNL     1       0.249   0.400  -3.133  0.00  0.00    +0.000 A 
ATOM      4  C   UNL     1      -0.934   1.128  -3.276  0.00  0.00    +0.000 A 
ATOM      5  C   UNL     1      -0.877   2.514  -3.102  0.00  0.00    +0.000 A 
ATOM      6  C   UNL     1       0.287   3.131  -2.632  0.00  0.00    +0.000 A 
ENDROOT
BRANCH   4   7
ATOM      7  N   UNL     1      -2.163   0.557  -3.642  0.00  0.00    +0.000 N 
ATOM      8  H   UNL     1      -2.294   0.651  -4.649  0.00  0.00    +0.000 HD
BRANCH   7   9
ATOM      9  C   UNL     1      -2.439  -0.813  -3.186  0.00  0.00    +0.000 C 
BRANCH   9  10
ATOM     10  C   UNL     1      -2.484  -0.906  -1.650  0.00  0.00    +0.000 C 
BRANCH  10  11
ATOM     11  C   UNL     1      -2.727  -2.318  -1.168  0.00  0.00    +0.000 A 
ATOM     12  C   UNL     1      -4.050  -2.734  -0.942  0.00  0.00    +0.000 A 
ATOM     13  C   UNL     1      -4.329  -4.036  -0.525  0.00  0.00    +0.000 A 
ATOM     14  C   UNL     1      -3.293  -4.946  -0.332  0.00  0.00    +0.000 A 
ATOM     15  C   UNL     1      -1.975  -4.548  -0.543  0.00  0.00    +0.000 A 
ATOM     16  C   UNL     1      -1.690  -3.244  -0.959  0.00  0.00    +0.000 A 
ATOM     17 CL   UNL     1      -0.029  -2.834  -1.195  0.00  0.00    +0.000 Cl
ENDBRANCH  10  11
ENDBRANCH   9  10
ENDBRANCH   7   9
ENDBRANCH   4   7
BRANCH   1  18
ATOM     18  C   UNL     1       2.654   3.009  -1.754  0.00  0.00    +0.000 C 
BRANCH  18  21
ATOM     19  C   UNL     1       4.737   4.082  -2.498  0.00  0.00    +0.000 C 
ATOM     20  O   UNL     1       5.122   4.213  -1.338  0.00  0.00    +0.000 OA
ATOM     21  N   UNL     1       3.535   3.497  -2.781  0.00  0.00    +0.000 N 
ATOM     22  H   UNL     1       3.215   3.429  -3.736  0.00  0.00    +0.000 HD
BRANCH  19  30
ATOM     23  C   UNL     1       4.341   3.900  -5.908  0.00  0.00    +0.000 A 
ATOM     24  N   UNL     1       4.428   3.986  -7.251  0.00  0.00    +0.000 NA
ATOM     25  C   UNL     1       5.502   4.588  -7.771  0.00  0.00    +0.000 A 
ATOM     26  N   UNL     1       6.519   5.126  -7.107  0.00  0.00    +0.000 NA
ATOM     27  C   UNL     1       6.387   5.028  -5.773  0.00  0.00    +0.000 A 
ATOM     28  S   UNL     1       7.599   5.657  -4.763  0.00  0.00    +0.000 S 
ATOM     29  C   UNL     1       6.756   5.177  -3.369  0.00  0.00    +0.000 A 
ATOM     30  C   UNL     1       5.550   4.540  -3.634  0.00  0.00    +0.000 A 
ATOM     31  C   UNL     1       5.336   4.443  -5.074  0.00  0.00    +0.000 A 
BRANCH  23  33
ATOM     32  C   UNL     1       2.607   2.364  -6.251  0.00  0.00    +0.000 C 
ATOM     33  O   UNL     1       3.223   3.299  -5.370  0.00  0.00    +0.000 OA
ENDBRANCH  23  33
ENDBRANCH  19  30
ENDBRANCH  18  21
ENDBRANCH   1  18
TORSDOF 8
