REMARK  Name = 
REMARK  6 active torsions:
REMARK  status: ('A' for Active; 'I' for Inactive)
REMARK    1  A    between atoms: C_2  and  C_3
REMARK    2  A    between atoms: N_7  and  C_8
REMARK    3  A    between atoms: C_8  and  C_9
REMARK    4  A    between atoms: C_9  and  C_12
REMARK    5  A    between atoms: C_16  and  C_17
REMARK    6  A    between atoms: C_17  and  C_18
REMARK                            x       y       z     vdW  Elec       q    Type
REMARK                         _______ _______ _______ _____ _____    ______ ____
ROOT
ATOM      1  C   UNL     1       5.765   1.039  -0.085  0.00  0.00    +0.000 C 
ATOM      2  F   UNL     1       6.630   0.063  -0.492  0.00  0.00    +0.000 F 
ATOM      3  F   UNL     1       4.727   0.997  -0.976  0.00  0.00    +0.000 F 
ENDROOT
BRANCH   1   4
ATOM      4  C   UNL     1       6.435   2.405  -0.035  0.00  0.00    +0.000 A 
ATOM      5  C   UNL     1       5.717   3.573  -0.330  0.00  0.00    +0.000 A 
ATOM      6  C   UNL     1       6.332   4.821  -0.221  0.00  0.00    +0.000 A 
ATOM      7  C   UNL     1       7.663   4.922   0.197  0.00  0.00    +0.000 A 
ATOM      8  C   UNL     1       8.403   3.772   0.501  0.00  0.00    +0.000 A 
ATOM      9  C   UNL     1       7.782   2.519   0.362  0.00  0.00    +0.000 A 
BRANCH   8  10
ATOM     10  C   UNL     1       9.846   3.862   0.959  0.00  0.00    +0.000 C 
BRANCH  10  11
ATOM     11  C   UNL     1       9.965   3.819   2.482  0.00  0.00    +0.000 C 
ATOM     12  C   UNL     1       9.472   4.998   3.350  0.00  0.00    +0.000 C 
ATOM     13  N   UNL     1      10.704   4.898   4.159  0.00  0.00    +0.000 NA
ATOM     14  C   UNL     1      11.360   4.159   3.064  0.00  0.00    +0.000 C 
ATOM     15  H   UNL     1      10.591   4.348   5.010  0.00  0.00    +0.000 HD
ENDBRANCH  10  11
ENDBRANCH   8  10
ENDBRANCH   1   4
BRANCH   1  16
ATOM     16  C   UNL     1       5.216   0.674   1.317  0.00  0.00    +0.000 C 
BRANCH  16  21
ATOM     17  C   UNL     1       2.917  -1.451   5.073  0.00  0.00    +0.000 A 
ATOM     18  C   UNL     1       2.366  -1.912   3.901  0.00  0.00    +0.000 A 
ATOM     19  N   UNL     1       2.884  -1.649   2.675  0.00  0.00    +0.000 NA
ATOM     20  C   UNL     1       3.999  -0.907   2.630  0.00  0.00    +0.000 A 
ATOM     21  N   UNL     1       4.534  -0.629   1.381  0.00  0.00    +0.000 N 
ATOM     22  N   UNL     1       4.603  -0.418   3.725  0.00  0.00    +0.000 NA
ATOM     23  C   UNL     1       4.055  -0.702   4.923  0.00  0.00    +0.000 A 
ATOM     24  H   UNL     1       3.827  -0.800   0.672  0.00  0.00    +0.000 HD
BRANCH  17  26
ATOM     25  N   UNL     1       1.895  -1.909   7.400  0.00  0.00    +0.000 NA
ATOM     26  C   UNL     1       2.349  -1.710   6.347  0.00  0.00    +0.000 C 
ENDBRANCH  17  26
ENDBRANCH  16  21
ENDBRANCH   1  16
TORSDOF 6
