REMARK  Name = 
REMARK  5 active torsions:
REMARK  status: ('A' for Active; 'I' for Inactive)
REMARK    1  A    between atoms: N_1  and  C_2
REMARK    2  A    between atoms: C_2  and  C_3
REMARK    3  A    between atoms: C_3  and  C_4
REMARK    4  A    between atoms: C_8  and  C_9
REMARK    5  A    between atoms: C_9  and  N_10
REMARK                            x       y       z     vdW  Elec       q    Type
REMARK                         _______ _______ _______ _____ _____    ______ ____
ROOT
ATOM      1  C   UNL     1       4.537   1.399  -0.309  0.00  0.00    +0.000 A 
ATOM      2  C   UNL     1       5.281   0.960  -1.399  0.00  0.00    +0.000 A 
ATOM      3  N   UNL     1       6.630   0.913  -1.424  0.00  0.00    +0.000 NA
ATOM      4  C   UNL     1       7.276   1.306  -0.304  0.00  0.00    +0.000 A 
ATOM      5  C   UNL     1       6.640   1.776   0.840  0.00  0.00    +0.000 A 
ATOM      6  C   UNL     1       5.242   1.832   0.819  0.00  0.00    +0.000 A 
ENDROOT
BRANCH   1   7
ATOM      7  C   UNL     1       3.033   1.384  -0.339  0.00  0.00    +0.000 C 
BRANCH   7   8
ATOM      8  C   UNL     1       2.435   2.664  -0.932  0.00  0.00    +0.000 C 
BRANCH   8   9
ATOM      9  N   UNL     1       0.975   2.603  -0.923  0.00  0.00    +0.000 NA
ATOM     10  H   UNL     1       0.595   3.476  -1.287  0.00  0.00    +0.000 HD
ATOM     11  H   UNL     1       0.635   2.523   0.035  0.00  0.00    +0.000 HD
ENDBRANCH   8   9
ENDBRANCH   7   8
ENDBRANCH   1   7
BRANCH   5  12
ATOM     12  C   UNL     1       7.434   2.183   2.047  0.00  0.00    +0.000 C 
BRANCH  12  13
ATOM     13  N   UNL     1       7.614   1.089   2.987  0.00  0.00    +0.000 N 
ATOM     14  C   UNL     1       8.647   0.189   2.951  0.00  0.00    +0.000 A 
ATOM     15  N   UNL     1       8.660  -0.579   4.018  0.00  0.00    +0.000 NA
ATOM     16  C   UNL     1       7.595  -0.163   4.774  0.00  0.00    +0.000 A 
ATOM     17  C   UNL     1       7.165  -0.615   6.031  0.00  0.00    +0.000 A 
ATOM     18  C   UNL     1       6.044  -0.016   6.618  0.00  0.00    +0.000 A 
ATOM     19  C   UNL     1       5.355   1.004   5.960  0.00  0.00    +0.000 A 
ATOM     20  C   UNL     1       5.768   1.469   4.705  0.00  0.00    +0.000 A 
ATOM     21  C   UNL     1       6.903   0.871   4.144  0.00  0.00    +0.000 A 
ENDBRANCH  12  13
ENDBRANCH   5  12
TORSDOF 5
