REMARK  Name = 
REMARK  8 active torsions:
REMARK  status: ('A' for Active; 'I' for Inactive)
REMARK    1  A    between atoms: C_1  and  C_2
REMARK    2  A    between atoms: N_4  and  C_5
REMARK    3  A    between atoms: C_8  and  C_9
REMARK    4  A    between atoms: C_9  and  O_10
REMARK    5  A    between atoms: O_10  and  C_11
REMARK    6  A    between atoms: C_14  and  C_15
REMARK    7  A    between atoms: C_23  and  C_24
REMARK    8  A    between atoms: C_23  and  C_25
REMARK                            x       y       z     vdW  Elec       q    Type
REMARK                         _______ _______ _______ _____ _____    ______ ____
ROOT
ATOM      1  C   UNL     1       1.745   1.476  -3.239  0.00  0.00    +0.000 A 
ATOM      2  C   UNL     1       2.143   2.763  -3.630  0.00  0.00    +0.000 A 
ATOM      3  C   UNL     1       1.355   3.563  -4.470  0.00  0.00    +0.000 A 
ATOM      4  C   UNL     1       0.127   3.097  -4.939  0.00  0.00    +0.000 A 
ATOM      5  C   UNL     1      -0.271   1.807  -4.597  0.00  0.00    +0.000 A 
ATOM      6  C   UNL     1       0.525   1.018  -3.764  0.00  0.00    +0.000 A 
ENDROOT
BRANCH   1  10
ATOM      7  C   UNL     1       1.863   1.452   0.684  0.00  0.00    +0.000 C 
ATOM      8  C   UNL     1       3.018   0.695   0.032  0.00  0.00    +0.000 C 
ATOM      9  C   UNL     1       3.389   1.256  -1.361  0.00  0.00    +0.000 C 
ATOM     10  N   UNL     1       2.505   0.701  -2.392  0.00  0.00    +0.000 N 
ATOM     11  C   UNL     1       2.454  -0.765  -2.387  0.00  0.00    +0.000 C 
ATOM     12  C   UNL     1       2.016  -1.293  -1.000  0.00  0.00    +0.000 C 
ATOM     13  C   UNL     1       0.519  -1.083  -0.733  0.00  0.00    +0.000 C 
ATOM     14  C   UNL     1       2.273  -2.809  -0.963  0.00  0.00    +0.000 C 
ATOM     15  O   UNL     1       2.819  -0.733   0.061  0.00  0.00    +0.000 OA
ENDBRANCH   1  10
BRANCH   4  16
ATOM     16  C   UNL     1      -0.760   3.958  -5.796  0.00  0.00    +0.000 C 
BRANCH  16  17
ATOM     17  O   UNL     1      -0.443   3.742  -7.169  0.00  0.00    +0.000 OA
BRANCH  17  18
ATOM     18  C   UNL     1      -1.152   4.484  -8.072  0.00  0.00    +0.000 A 
ATOM     19  C   UNL     1      -2.205   5.351  -7.769  0.00  0.00    +0.000 A 
ATOM     20  C   UNL     1      -2.848   6.060  -8.785  0.00  0.00    +0.000 A 
ATOM     21  C   UNL     1      -2.442   5.917 -10.116  0.00  0.00    +0.000 A 
ATOM     22  C   UNL     1      -1.397   5.040 -10.426  0.00  0.00    +0.000 A 
ATOM     23  C   UNL     1      -0.760   4.327  -9.405  0.00  0.00    +0.000 A 
BRANCH  21  24
ATOM     24  C   UNL     1      -3.166   6.694 -11.152  0.00  0.00    +0.000 C 
ATOM     25  N   UNL     1      -2.495   6.989 -12.307  0.00  0.00    +0.000 N 
ATOM     26  O   UNL     1      -4.308   7.093 -10.973  0.00  0.00    +0.000 OA
ATOM     27  H   UNL     1      -1.503   6.844 -12.428  0.00  0.00    +0.000 HD
ATOM     28  H   UNL     1      -2.970   7.597 -12.962  0.00  0.00    +0.000 HD
ENDBRANCH  21  24
ENDBRANCH  17  18
ENDBRANCH  16  17
ENDBRANCH   4  16
TORSDOF 5
