REMARK  Name = 
REMARK  7 active torsions:
REMARK  status: ('A' for Active; 'I' for Inactive)
REMARK    1  A    between atoms: C_2  and  N_3
REMARK    2  A    between atoms: C_4  and  C_6
REMARK    3  A    between atoms: C_9  and  C_10
REMARK    4  A    between atoms: C_10  and  C_11
REMARK    5  A    between atoms: C_11  and  C_12
REMARK    6  A    between atoms: C_15  and  C_16
REMARK    7  A    between atoms: C_22  and  O_23
REMARK                            x       y       z     vdW  Elec       q    Type
REMARK                         _______ _______ _______ _____ _____    ______ ____
ROOT
ATOM      1  C   UNL     1      10.821  -0.549  -1.022  0.00  0.00    +0.000 C 
ATOM      2  C   UNL     1      10.788  -1.613  -2.110  0.00  0.00    +0.000 C 
ATOM      3  C   UNL     1      10.423  -2.011  -0.712  0.00  0.00    +0.000 C 
ENDROOT
BRANCH   1   4
ATOM      4  C   UNL     1      12.117  -0.168  -0.295  0.00  0.00    +0.000 A 
ATOM      5  C   UNL     1      12.088   0.018   1.102  0.00  0.00    +0.000 A 
ATOM      6  C   UNL     1      13.259   0.060   1.853  0.00  0.00    +0.000 A 
ATOM      7  C   UNL     1      14.489  -0.079   1.211  0.00  0.00    +0.000 A 
ATOM      8  C   UNL     1      14.544  -0.118  -0.187  0.00  0.00    +0.000 A 
ATOM      9  C   UNL     1      13.365  -0.148  -0.935  0.00  0.00    +0.000 A 
BRANCH   7  10
ATOM     10  C   UNL     1      15.742  -0.263   1.982  0.00  0.00    +0.000 C 
ATOM     11  N   UNL     1      15.623  -0.842   3.217  0.00  0.00    +0.000 N 
ATOM     12  O   UNL     1      16.837   0.014   1.511  0.00  0.00    +0.000 OA
ATOM     13  H   UNL     1      14.782  -1.322   3.507  0.00  0.00    +0.000 HD
ATOM     14  H   UNL     1      16.486  -1.106   3.674  0.00  0.00    +0.000 HD
ENDBRANCH   7  10
ENDBRANCH   1   4
BRANCH   3  15
ATOM     15  O   UNL     1      11.389  -2.878  -0.077  0.00  0.00    +0.000 OA
ATOM     16  H   UNL     1      12.293  -2.732  -0.409  0.00  0.00    +0.000 HD
ENDBRANCH   3  15
BRANCH   1  17
ATOM     17  C   UNL     1       9.840   0.627  -1.109  0.00  0.00    +0.000 C 
BRANCH  17  21
ATOM     18  C   UNL     1       6.106   0.566  -3.317  0.00  0.00    +0.000 A 
ATOM     19  C   UNL     1       6.446  -0.521  -2.515  0.00  0.00    +0.000 A 
ATOM     20  C   UNL     1       7.647  -0.521  -1.807  0.00  0.00    +0.000 A 
ATOM     21  C   UNL     1       8.565   0.530  -1.924  0.00  0.00    +0.000 A 
ATOM     22  C   UNL     1       8.196   1.627  -2.724  0.00  0.00    +0.000 A 
ATOM     23  C   UNL     1       6.978   1.651  -3.413  0.00  0.00    +0.000 A 
BRANCH  18  25
ATOM     24  N   UNL     1       3.845  -0.149  -3.532  0.00  0.00    +0.000 NA
ATOM     25  C   UNL     1       4.798   0.562  -4.060  0.00  0.00    +0.000 C 
ATOM     26  N   UNL     1       4.737   1.273  -5.235  0.00  0.00    +0.000 N 
ATOM     27  H   UNL     1       3.961   1.062  -5.852  0.00  0.00    +0.000 HD
ATOM     28  H   UNL     1       5.605   1.396  -5.735  0.00  0.00    +0.000 HD
BRANCH  24  30
ATOM     29  N   UNL     1       1.645  -0.205  -4.697  0.00  0.00    +0.000 NA
ATOM     30  C   UNL     1       2.655  -0.171  -4.129  0.00  0.00    +0.000 C 
ENDBRANCH  24  30
ENDBRANCH  18  25
ENDBRANCH  17  21
ENDBRANCH   1  17
TORSDOF 7
