REMARK  Name = 
REMARK  7 active torsions:
REMARK  status: ('A' for Active; 'I' for Inactive)
REMARK    1  A    between atoms: C_1  and  C_2
REMARK    2  A    between atoms: C_2  and  N_3
REMARK    3  A    between atoms: C_2  and  C_11
REMARK    4  A    between atoms: C_4  and  C_6
REMARK    5  A    between atoms: C_14  and  C_15
REMARK    6  A    between atoms: C_15  and  N_16
REMARK    7  A    between atoms: C_17  and  C_19
REMARK                            x       y       z     vdW  Elec       q    Type
REMARK                         _______ _______ _______ _____ _____    ______ ____
ROOT
ATOM      1  C   UNL     1       2.912  -0.393  -1.463  0.00  0.00    +0.000 A 
ATOM      2  C   UNL     1       3.354   0.649  -2.277  0.00  0.00    +0.000 A 
ATOM      3  C   UNL     1       3.757   0.367  -3.581  0.00  0.00    +0.000 A 
ATOM      4  C   UNL     1       3.694  -0.945  -4.055  0.00  0.00    +0.000 A 
ATOM      5  C   UNL     1       3.247  -1.921  -3.176  0.00  0.00    +0.000 A 
ATOM      6  N   UNL     1       2.841  -1.673  -1.910  0.00  0.00    +0.000 NA
ENDROOT
BRANCH   1   8
ATOM      7  C   UNL     1       2.802  -1.279   0.899  0.00  0.00    +0.000 C 
ATOM      8  C   UNL     1       2.473  -0.110  -0.032  0.00  0.00    +0.000 C 
BRANCH   8   9
ATOM      9  N   UNL     1       1.057   0.205   0.042  0.00  0.00    +0.000 N 
ATOM     10  C   UNL     1       0.581   1.486  -0.102  0.00  0.00    +0.000 C 
ATOM     11  O   UNL     1       1.308   2.468  -0.213  0.00  0.00    +0.000 OA
ATOM     12  H   UNL     1       0.369  -0.536  -0.045  0.00  0.00    +0.000 HD
BRANCH  10  13
ATOM     13  C   UNL     1      -0.889   1.589  -0.109  0.00  0.00    +0.000 A 
ATOM     14  C   UNL     1      -1.651   2.783  -0.212  0.00  0.00    +0.000 A 
ATOM     15  C   UNL     1      -2.963   2.386  -0.154  0.00  0.00    +0.000 A 
ATOM     16  N   UNL     1      -2.937   1.030  -0.027  0.00  0.00    +0.000 N 
ATOM     17  N   UNL     1      -1.695   0.512  -0.001  0.00  0.00    +0.000 NA
ATOM     18  H   UNL     1      -3.725   0.395   0.049  0.00  0.00    +0.000 HD
ENDBRANCH  10  13
ENDBRANCH   8   9
ENDBRANCH   1   8
BRANCH   4  19
ATOM     19  C   UNL     1       4.113  -1.310  -5.446  0.00  0.00    +0.000 C 
BRANCH  19  20
ATOM     20  N   UNL     1       5.522  -1.596  -5.518  0.00  0.00    +0.000 N 
ATOM     21  C   UNL     1       6.030  -2.867  -5.464  0.00  0.00    +0.000 C 
ATOM     22  O   UNL     1       5.311  -3.857  -5.355  0.00  0.00    +0.000 OA
ATOM     23  H   UNL     1       6.146  -0.807  -5.390  0.00  0.00    +0.000 HD
BRANCH  21  24
ATOM     24  C   UNL     1       7.485  -2.986  -5.629  0.00  0.00    +0.000 A 
ATOM     25  C   UNL     1       8.036  -4.189  -6.050  0.00  0.00    +0.000 A 
ATOM     26  S   UNL     1       9.725  -4.125  -6.277  0.00  0.00    +0.000 S 
ATOM     27  C   UNL     1       9.788  -2.503  -5.768  0.00  0.00    +0.000 A 
ATOM     28  N   UNL     1      10.969  -1.828  -5.721  0.00  0.00    +0.000 NA
ATOM     29  C   UNL     1      10.877  -0.620  -5.275  0.00  0.00    +0.000 A 
ATOM     30  N   UNL     1       9.711  -0.023  -4.873  0.00  0.00    +0.000 N 
ATOM     31  C   UNL     1       8.489  -0.644  -4.959  0.00  0.00    +0.000 A 
ATOM     32  O   UNL     1       7.454  -0.045  -4.681  0.00  0.00    +0.000 OA
ATOM     33  C   UNL     1       8.537  -2.014  -5.434  0.00  0.00    +0.000 A 
ATOM     34  H   UNL     1       9.704   0.931  -4.544  0.00  0.00    +0.000 HD
ENDBRANCH  21  24
ENDBRANCH  19  20
ENDBRANCH   4  19
TORSDOF 6
