REMARK  Name = 
REMARK  7 active torsions:
REMARK  status: ('A' for Active; 'I' for Inactive)
REMARK    1  A    between atoms: C_1  and  N_2
REMARK    2  A    between atoms: N_2  and  C_3
REMARK    3  A    between atoms: C_3  and  C_4
REMARK    4  A    between atoms: C_7  and  C_8
REMARK    5  A    between atoms: C_8  and  N_9
REMARK    6  A    between atoms: C_10  and  C_12
REMARK    7  A    between atoms: C_24  and  C_26
REMARK                            x       y       z     vdW  Elec       q    Type
REMARK                         _______ _______ _______ _____ _____    ______ ____
ROOT
ATOM      1  C   UNL     1       2.292   0.568  -2.345  0.00  0.00    +0.000 A 
ATOM      2  C   UNL     1       1.654  -0.528  -2.945  0.00  0.00    +0.000 A 
ATOM      3  C   UNL     1       0.736  -0.338  -3.980  0.00  0.00    +0.000 A 
ATOM      4  C   UNL     1       0.447   0.952  -4.442  0.00  0.00    +0.000 A 
ATOM      5  C   UNL     1       1.079   2.047  -3.837  0.00  0.00    +0.000 A 
ATOM      6  C   UNL     1       2.001   1.857  -2.806  0.00  0.00    +0.000 A 
ENDROOT
BRANCH   1   7
ATOM      7  C   UNL     1       3.247   0.363  -1.197  0.00  0.00    +0.000 C 
BRANCH   7   9
ATOM      8  C   UNL     1       5.135   0.104  -2.877  0.00  0.00    +0.000 C 
ATOM      9  N   UNL     1       4.666   0.154  -1.496  0.00  0.00    +0.000 N 
ATOM     10  C   UNL     1       5.668   0.277  -0.521  0.00  0.00    +0.000 C 
ATOM     11  O   UNL     1       6.853   0.374  -0.848  0.00  0.00    +0.000 OA
BRANCH  10  12
ATOM     12  C   UNL     1       5.325   0.348   0.874  0.00  0.00    +0.000 A 
ATOM     13  C   UNL     1       4.315  -0.142   1.674  0.00  0.00    +0.000 A 
ATOM     14  N   UNL     1       4.502   0.258   2.966  0.00  0.00    +0.000 NA
ATOM     15  N   UNL     1       5.631   0.949   3.018  0.00  0.00    +0.000 NA
ATOM     16  N   UNL     1       6.147   0.963   1.782  0.00  0.00    +0.000 N 
ATOM     17  H   UNL     1       7.042   1.412   1.616  0.00  0.00    +0.000 HD
ENDBRANCH  10  12
ENDBRANCH   7   9
ENDBRANCH   1   7
BRANCH   4  18
ATOM     18  C   UNL     1      -0.590   1.174  -5.512  0.00  0.00    +0.000 C 
BRANCH  18  19
ATOM     19  N   UNL     1      -1.888   1.355  -4.915  0.00  0.00    +0.000 N 
ATOM     20  C   UNL     1      -3.021   1.493  -5.672  0.00  0.00    +0.000 C 
ATOM     21  O   UNL     1      -3.000   1.420  -6.897  0.00  0.00    +0.000 OA
ATOM     22  H   UNL     1      -1.902   1.646  -3.943  0.00  0.00    +0.000 HD
BRANCH  20  23
ATOM     23  C   UNL     1      -4.276   1.666  -4.930  0.00  0.00    +0.000 A 
ATOM     24  C   UNL     1      -5.484   1.341  -5.532  0.00  0.00    +0.000 A 
ATOM     25  S   UNL     1      -6.831   1.520  -4.501  0.00  0.00    +0.000 S 
ATOM     26  C   UNL     1      -5.854   2.092  -3.231  0.00  0.00    +0.000 A 
ATOM     27  N   UNL     1      -6.396   2.445  -2.033  0.00  0.00    +0.000 NA
ATOM     28  C   UNL     1      -5.545   2.894  -1.173  0.00  0.00    +0.000 A 
ATOM     29  N   UNL     1      -4.199   3.019  -1.401  0.00  0.00    +0.000 N 
ATOM     30  C   UNL     1      -3.604   2.654  -2.586  0.00  0.00    +0.000 A 
ATOM     31  O   UNL     1      -2.392   2.756  -2.743  0.00  0.00    +0.000 OA
ATOM     32  C   UNL     1      -4.518   2.141  -3.588  0.00  0.00    +0.000 A 
ATOM     33  H   UNL     1      -3.585   3.380  -0.685  0.00  0.00    +0.000 HD
ENDBRANCH  20  23
ENDBRANCH  18  19
ENDBRANCH   4  18
TORSDOF 6
