REMARK  Name = 
REMARK  6 active torsions:
REMARK  status: ('A' for Active; 'I' for Inactive)
REMARK    1  A    between atoms: C_1  and  N_2
REMARK    2  A    between atoms: N_2  and  C_3
REMARK    3  A    between atoms: C_3  and  C_4
REMARK    4  A    between atoms: C_13  and  C_14
REMARK    5  A    between atoms: C_14  and  N_15
REMARK    6  A    between atoms: C_16  and  C_18
REMARK                            x       y       z     vdW  Elec       q    Type
REMARK                         _______ _______ _______ _____ _____    ______ ____
ROOT
ATOM      1  C   UNL     1       5.024  -3.890   3.351  0.00  0.00    +0.000 C 
ENDROOT
BRANCH   1   7
ATOM      2  C   UNL     1       2.898   1.146  -0.030  0.00  0.00    +0.000 C 
ATOM      3  N   UNL     1       2.406  -0.214   0.009  0.00  0.00    +0.000 N 
ATOM      4  C   UNL     1       3.039  -1.110   0.837  0.00  0.00    +0.000 A 
ATOM      5  N   UNL     1       4.072  -0.690   1.593  0.00  0.00    +0.000 NA
ATOM      6  C   UNL     1       4.689  -1.595   2.381  0.00  0.00    +0.000 A 
ATOM      7  C   UNL     1       4.322  -2.918   2.468  0.00  0.00    +0.000 A 
ATOM      8  C   UNL     1       3.239  -3.249   1.693  0.00  0.00    +0.000 A 
ATOM      9  N   UNL     1       2.606  -2.383   0.881  0.00  0.00    +0.000 NA
BRANCH   3  10
ATOM     10  C   UNL     1       1.562  -0.710  -1.069  0.00  0.00    +0.000 C 
BRANCH  10  11
ATOM     11  C   UNL     1       0.099  -0.435  -0.798  0.00  0.00    +0.000 A 
ATOM     12  C   UNL     1      -0.677   0.296  -1.703  0.00  0.00    +0.000 A 
ATOM     13  C   UNL     1      -2.024   0.485  -1.427  0.00  0.00    +0.000 A 
ATOM     14  N   UNL     1      -2.645   0.001  -0.332  0.00  0.00    +0.000 NA
ATOM     15  C   UNL     1      -1.882  -0.708   0.527  0.00  0.00    +0.000 A 
ATOM     16  C   UNL     1      -0.531  -0.952   0.339  0.00  0.00    +0.000 A 
ENDBRANCH  10  11
ENDBRANCH   3  10
ENDBRANCH   1   7
BRANCH   1  17
ATOM     17  N   UNL     1       4.506  -3.872   4.694  0.00  0.00    +0.000 N 
ATOM     18  C   UNL     1       4.969  -4.757   5.639  0.00  0.00    +0.000 C 
ATOM     19  O   UNL     1       5.827  -5.594   5.368  0.00  0.00    +0.000 OA
ATOM     20  H   UNL     1       4.030  -3.030   5.005  0.00  0.00    +0.000 HD
BRANCH  18  21
ATOM     21  C   UNL     1       4.318  -4.720   6.955  0.00  0.00    +0.000 A 
ATOM     22  C   UNL     1       4.646  -5.647   7.934  0.00  0.00    +0.000 A 
ATOM     23  S   UNL     1       3.542  -5.663   9.240  0.00  0.00    +0.000 S 
ATOM     24  C   UNL     1       2.645  -4.384   8.564  0.00  0.00    +0.000 A 
ATOM     25  N   UNL     1       1.470  -3.965   9.106  0.00  0.00    +0.000 NA
ATOM     26  C   UNL     1       0.940  -2.950   8.505  0.00  0.00    +0.000 A 
ATOM     27  N   UNL     1       1.507  -2.280   7.451  0.00  0.00    +0.000 N 
ATOM     28  C   UNL     1       2.709  -2.647   6.903  0.00  0.00    +0.000 A 
ATOM     29  O   UNL     1       3.263  -1.973   6.039  0.00  0.00    +0.000 OA
ATOM     30  C   UNL     1       3.267  -3.867   7.444  0.00  0.00    +0.000 A 
ATOM     31  H   UNL     1       1.086  -1.438   7.084  0.00  0.00    +0.000 HD
ENDBRANCH  18  21
ENDBRANCH   1  17
TORSDOF 5
