REMARK  Name = 
REMARK  6 active torsions:
REMARK  status: ('A' for Active; 'I' for Inactive)
REMARK    1  A    between atoms: C_1  and  C_2
REMARK    2  A    between atoms: C_2  and  N_3
REMARK    3  A    between atoms: C_2  and  C_16
REMARK    4  A    between atoms: C_4  and  C_6
REMARK    5  A    between atoms: C_19  and  C_20
REMARK    6  A    between atoms: C_20  and  C_21
REMARK                            x       y       z     vdW  Elec       q    Type
REMARK                         _______ _______ _______ _____ _____    ______ ____
ROOT
ATOM      1  C   UNL     1       0.820   0.129  -0.103  0.00  0.00    +0.000 C 
ATOM      2  C   UNL     1       2.350   0.087  -0.053  0.00  0.00    +0.000 C 
ENDROOT
BRANCH   2   3
ATOM      3  C   UNL     1       2.888  -1.331  -0.123  0.00  0.00    +0.000 A 
ATOM      4  C   UNL     1       3.797  -1.680  -1.132  0.00  0.00    +0.000 A 
ATOM      5  C   UNL     1       4.358  -2.959  -1.182  0.00  0.00    +0.000 A 
ATOM      6  C   UNL     1       4.024  -3.922  -0.222  0.00  0.00    +0.000 A 
ATOM      7  C   UNL     1       3.110  -3.582   0.783  0.00  0.00    +0.000 A 
ATOM      8  C   UNL     1       2.547  -2.303   0.832  0.00  0.00    +0.000 A 
BRANCH   6   9
ATOM      9  C   UNL     1       4.683  -5.283  -0.239  0.00  0.00    +0.000 C 
BRANCH   9  10
ATOM     10  C   UNL     1       5.961  -5.337   0.565  0.00  0.00    +0.000 A 
ATOM     11  C   UNL     1       5.941  -5.665   1.923  0.00  0.00    +0.000 A 
ATOM     12  C   UNL     1       7.134  -5.658   2.629  0.00  0.00    +0.000 A 
ATOM     13  N   UNL     1       8.330  -5.352   2.084  0.00  0.00    +0.000 NA
ATOM     14  C   UNL     1       8.330  -5.040   0.771  0.00  0.00    +0.000 A 
ATOM     15  C   UNL     1       7.191  -5.019  -0.020  0.00  0.00    +0.000 A 
ENDBRANCH   9  10
ENDBRANCH   6   9
ENDBRANCH   2   3
BRANCH   2  16
ATOM     16  N   UNL     1       2.860   0.755   1.132  0.00  0.00    +0.000 N 
ATOM     17  C   UNL     1       3.001   2.116   1.202  0.00  0.00    +0.000 C 
ATOM     18  O   UNL     1       2.690   2.849   0.266  0.00  0.00    +0.000 OA
ATOM     19  H   UNL     1       3.227   0.170   1.877  0.00  0.00    +0.000 HD
BRANCH  17  20
ATOM     20  C   UNL     1       3.503   2.672   2.466  0.00  0.00    +0.000 A 
ATOM     21  C   UNL     1       3.262   4.007   2.763  0.00  0.00    +0.000 A 
ATOM     22  S   UNL     1       3.922   4.510   4.251  0.00  0.00    +0.000 S 
ATOM     23  C   UNL     1       4.592   2.972   4.533  0.00  0.00    +0.000 A 
ATOM     24  N   UNL     1       5.348   2.734   5.640  0.00  0.00    +0.000 NA
ATOM     25  C   UNL     1       5.829   1.538   5.708  0.00  0.00    +0.000 A 
ATOM     26  N   UNL     1       5.606   0.554   4.781  0.00  0.00    +0.000 N 
ATOM     27  C   UNL     1       4.784   0.724   3.696  0.00  0.00    +0.000 A 
ATOM     28  O   UNL     1       4.486  -0.215   2.967  0.00  0.00    +0.000 OA
ATOM     29  C   UNL     1       4.273   2.074   3.530  0.00  0.00    +0.000 A 
ATOM     30  H   UNL     1       5.984  -0.374   4.914  0.00  0.00    +0.000 HD
ENDBRANCH  17  20
ENDBRANCH   2  16
TORSDOF 5
