REMARK  Name = 
REMARK  7 active torsions:
REMARK  status: ('A' for Active; 'I' for Inactive)
REMARK    1  A    between atoms: C_2  and  C_19
REMARK    2  A    between atoms: N_3  and  C_4
REMARK    3  A    between atoms: C_4  and  C_5
REMARK    4  A    between atoms: C_8  and  C_9
REMARK    5  A    between atoms: C_9  and  O_10
REMARK    6  A    between atoms: O_10  and  C_11
REMARK    7  A    between atoms: C_11  and  C_12
REMARK                            x       y       z     vdW  Elec       q    Type
REMARK                         _______ _______ _______ _____ _____    ______ ____
ROOT
ATOM      1  C   UNL     1       2.293  -2.327  -0.603  0.00  0.00    +0.000 C 
ENDROOT
BRANCH   1   2
ATOM      2  C   UNL     1       3.267  -3.446  -0.817  0.00  0.00    +0.000 A 
ATOM      3  C   UNL     1       4.610  -3.226  -1.133  0.00  0.00    +0.000 A 
ATOM      4  C   UNL     1       5.463  -4.313  -1.324  0.00  0.00    +0.000 A 
ATOM      5  C   UNL     1       4.958  -5.605  -1.189  0.00  0.00    +0.000 A 
ATOM      6  N   UNL     1       3.657  -5.840  -0.878  0.00  0.00    +0.000 NA
ATOM      7  C   UNL     1       2.856  -4.768  -0.688  0.00  0.00    +0.000 A 
BRANCH   5   8
ATOM      8  C   UNL     1       5.851  -6.805  -1.405  0.00  0.00    +0.000 C 
BRANCH   8   9
ATOM      9  O   UNL     1       6.928  -6.791  -0.465  0.00  0.00    +0.000 OA
BRANCH   9  10
ATOM     10  C   UNL     1       7.801  -7.911  -0.642  0.00  0.00    +0.000 C 
BRANCH  10  11
ATOM     11  C   UNL     1       8.927  -7.834   0.398  0.00  0.00    +0.000 C 
ATOM     12  C   UNL     1       9.766  -6.572   0.256  0.00  0.00    +0.000 C 
ATOM     13  C   UNL     1      11.016  -6.909   1.045  0.00  0.00    +0.000 C 
ATOM     14  C   UNL     1      11.145  -8.422   0.934  0.00  0.00    +0.000 C 
ATOM     15  N   UNL     1       9.932  -8.898   0.261  0.00  0.00    +0.000 NA
ATOM     16  H   UNL     1       9.602  -9.763   0.689  0.00  0.00    +0.000 HD
ENDBRANCH  10  11
ENDBRANCH   9  10
ENDBRANCH   8   9
ENDBRANCH   5   8
ENDBRANCH   1   2
BRANCH   1  19
ATOM     17  O   UNL     1       0.511  -3.183   1.412  0.00  0.00    +0.000 OA
ATOM     18  C   UNL     1       1.390  -2.374   1.698  0.00  0.00    +0.000 C 
ATOM     19  N   UNL     1       2.271  -1.885   0.766  0.00  0.00    +0.000 N 
ATOM     20  H   UNL     1       3.090  -1.378   1.081  0.00  0.00    +0.000 HD
BRANCH  18  21
ATOM     21  C   UNL     1       1.525  -1.827   3.052  0.00  0.00    +0.000 A 
ATOM     22  C   UNL     1       0.436  -1.802   3.913  0.00  0.00    +0.000 A 
ATOM     23  S   UNL     1       0.790  -1.122   5.438  0.00  0.00    +0.000 S 
ATOM     24  C   UNL     1       2.419  -0.870   5.010  0.00  0.00    +0.000 A 
ATOM     25  N   UNL     1       3.303  -0.330   5.892  0.00  0.00    +0.000 NA
ATOM     26  C   UNL     1       4.512  -0.228   5.438  0.00  0.00    +0.000 A 
ATOM     27  N   UNL     1       4.912  -0.606   4.187  0.00  0.00    +0.000 N 
ATOM     28  C   UNL     1       4.039  -1.080   3.243  0.00  0.00    +0.000 A 
ATOM     29  O   UNL     1       4.406  -1.255   2.086  0.00  0.00    +0.000 OA
ATOM     30  C   UNL     1       2.681  -1.270   3.713  0.00  0.00    +0.000 A 
ATOM     31  H   UNL     1       5.862  -0.467   3.877  0.00  0.00    +0.000 HD
ENDBRANCH  18  21
ENDBRANCH   1  19
TORSDOF 7
