REMARK  Name = 
REMARK  8 active torsions:
REMARK  status: ('A' for Active; 'I' for Inactive)
REMARK    1  A    between atoms: C_1  and  O_2
REMARK    2  A    between atoms: O_2  and  C_3
REMARK    3  A    between atoms: C_3  and  C_5
REMARK    4  A    between atoms: C_8  and  O_9
REMARK    5  A    between atoms: O_9  and  C_10
REMARK    6  A    between atoms: C_10  and  C_11
REMARK    7  A    between atoms: C_15  and  C_16
REMARK    8  A    between atoms: C_16  and  N_17
REMARK                            x       y       z     vdW  Elec       q    Type
REMARK                         _______ _______ _______ _____ _____    ______ ____
ROOT
ATOM      1  O   UNL     1       8.640   1.240   0.326  0.00  0.00    +0.000 OA
ENDROOT
BRANCH   1   5
ATOM      2  C   UNL     1       4.583   0.882  -0.316  0.00  0.00    +0.000 A 
ATOM      3  C   UNL     1       5.074   0.994   0.988  0.00  0.00    +0.000 A 
ATOM      4  C   UNL     1       6.449   1.121   1.194  0.00  0.00    +0.000 A 
ATOM      5  C   UNL     1       7.287   1.110   0.090  0.00  0.00    +0.000 A 
ATOM      6  N   UNL     1       6.843   1.016  -1.182  0.00  0.00    +0.000 NA
ATOM      7  C   UNL     1       5.503   0.909  -1.357  0.00  0.00    +0.000 A 
BRANCH   2   8
ATOM      8  C   UNL     1       3.152   0.731  -0.657  0.00  0.00    +0.000 C 
ATOM      9  O   UNL     1       2.740   0.614  -1.799  0.00  0.00    +0.000 OA
BRANCH   8  11
ATOM     10  C   UNL     1       0.993   0.583   0.222  0.00  0.00    +0.000 C 
ATOM     11  O   UNL     1       2.392   0.734   0.468  0.00  0.00    +0.000 OA
ENDBRANCH   8  11
ENDBRANCH   2   8
ENDBRANCH   1   5
BRANCH   1  12
ATOM     12  C   UNL     1       9.416   0.712  -0.752  0.00  0.00    +0.000 C 
BRANCH  12  13
ATOM     13  C   UNL     1      10.883   0.951  -0.480  0.00  0.00    +0.000 A 
ATOM     14  C   UNL     1      11.762  -0.121  -0.288  0.00  0.00    +0.000 A 
ATOM     15  C   UNL     1      13.124   0.110  -0.102  0.00  0.00    +0.000 A 
ATOM     16  C   UNL     1      13.623   1.414  -0.117  0.00  0.00    +0.000 A 
ATOM     17  C   UNL     1      12.766   2.508  -0.298  0.00  0.00    +0.000 A 
ATOM     18  C   UNL     1      11.394   2.260  -0.477  0.00  0.00    +0.000 A 
BRANCH  17  19
ATOM     19  C   UNL     1      13.284   3.921  -0.427  0.00  0.00    +0.000 C 
BRANCH  19  20
ATOM     20  N   UNL     1      14.496   4.177   0.346  0.00  0.00    +0.000 NA
ATOM     21  H   UNL     1      14.271   4.095   1.337  0.00  0.00    +0.000 HD
ATOM     22  H   UNL     1      14.784   5.142   0.195  0.00  0.00    +0.000 HD
ENDBRANCH  19  20
ENDBRANCH  17  19
ENDBRANCH  12  13
ENDBRANCH   1  12
TORSDOF 7
