REMARK  Name = 
REMARK  8 active torsions:
REMARK  status: ('A' for Active; 'I' for Inactive)
REMARK    1  A    between atoms: C_1  and  C_2
REMARK    2  A    between atoms: C_2  and  C_3
REMARK    3  A    between atoms: C_2  and  C_4
REMARK    4  A    between atoms: C_2  and  C_5
REMARK    5  A    between atoms: N_7  and  C_8
REMARK    6  A    between atoms: C_8  and  C_9
REMARK    7  A    between atoms: CA_18  and  C_19
REMARK    8  A    between atoms: C_19  and  OXT_21
REMARK                            x       y       z     vdW  Elec       q    Type
REMARK                         _______ _______ _______ _____ _____    ______ ____
ROOT
ATOM      1  C   UNL     1       2.881  -0.909   1.175  0.00  0.00    +0.000 A 
ATOM      2  C   UNL     1       2.698  -2.285   1.184  0.00  0.00    +0.000 A 
ATOM      3  N   UNL     1       3.199  -2.806   2.351  0.00  0.00    +0.000 N 
ATOM      4  C   UNL     1       3.773  -1.795   3.094  0.00  0.00    +0.000 A 
ATOM      5  C   UNL     1       4.478  -1.790   4.308  0.00  0.00    +0.000 A 
ATOM      6  C   UNL     1       4.848  -0.549   4.808  0.00  0.00    +0.000 A 
ATOM      7  CA  UNL     1       4.539   0.603   4.087  0.00  0.00    +0.000 A 
ATOM      8  N   UNL     1       3.903   0.626   2.889  0.00  0.00    +0.000 NA
ATOM      9  C   UNL     1       3.541  -0.598   2.408  0.00  0.00    +0.000 A 
ENDROOT
BRANCH   1  11
ATOM     10  C   UNL     1       0.892  -0.089  -0.097  0.00  0.00    +0.000 C 
ATOM     11  C   UNL     1       2.424   0.017   0.053  0.00  0.00    +0.000 C 
ATOM     12  C   UNL     1       3.086  -0.397  -1.278  0.00  0.00    +0.000 C 
ATOM     13  C   UNL     1       2.776   1.493   0.308  0.00  0.00    +0.000 C 
ENDBRANCH   1  11
BRANCH   7  14
ATOM     14  C   UNL     1       4.896   1.934   4.667  0.00  0.00    +0.000 C 
ATOM     15  O   UNL     1       5.457   2.085   5.741  0.00  0.00    +0.000 OA
BRANCH  14  16
ATOM     16  OXT UNL     1       4.529   2.960   3.863  0.00  0.00    +0.000 OA
ATOM     17  HXT UNL     1       4.094   2.611   3.052  0.00  0.00    +0.000 HD
ENDBRANCH  14  16
ENDBRANCH   7  14
BRANCH   3  18
ATOM     18  C   UNL     1       3.011  -4.206   2.740  0.00  0.00    +0.000 C 
BRANCH  18  19
ATOM     19  C   UNL     1       4.115  -5.076   2.201  0.00  0.00    +0.000 A 
ATOM     20  C   UNL     1       5.230  -5.374   2.988  0.00  0.00    +0.000 A 
ATOM     21  C   UNL     1       6.301  -6.028   2.402  0.00  0.00    +0.000 A 
ATOM     22  N   UNL     1       6.324  -6.426   1.114  0.00  0.00    +0.000 NA
ATOM     23  C   UNL     1       5.219  -6.178   0.382  0.00  0.00    +0.000 A 
ATOM     24  C   UNL     1       4.097  -5.532   0.878  0.00  0.00    +0.000 A 
ENDBRANCH  18  19
ENDBRANCH   3  18
TORSDOF 5
