REMARK  Name = 
REMARK  10 active torsions:
REMARK  status: ('A' for Active; 'I' for Inactive)
REMARK    1  A    between atoms: C_1  and  N_2
REMARK    2  A    between atoms: N_5  and  C_6
REMARK    3  A    between atoms: C_10  and  C_11
REMARK    4  A    between atoms: C_11  and  C_12
REMARK    5  A    between atoms: C_11  and  C_13
REMARK    6  A    between atoms: C_11  and  C_14
REMARK    7  A    between atoms: C_14  and  N_15
REMARK    8  A    between atoms: N_15  and  C_16
REMARK    9  A    between atoms: C_19  and  C_20
REMARK   10  A    between atoms: C_21  and  C_22
REMARK                            x       y       z     vdW  Elec       q    Type
REMARK                         _______ _______ _______ _____ _____    ______ ____
ROOT
ATOM      1  C   UNL     1      -6.427   1.754   0.450  0.00  0.00    +0.000 C 
ATOM      2  C   UNL     1      -5.794   3.161   0.319  0.00  0.00    +0.000 C 
ATOM      3  C   UNL     1      -6.877   1.251  -0.939  0.00  0.00    +0.000 C 
ENDROOT
BRANCH   1   8
ATOM      4  C   UNL     1      -3.021  -0.064   0.852  0.00  0.00    +0.000 A 
ATOM      5  C   UNL     1      -3.226  -0.742   2.055  0.00  0.00    +0.000 A 
ATOM      6  C   UNL     1      -4.447  -0.681   2.726  0.00  0.00    +0.000 A 
ATOM      7  C   UNL     1      -5.494   0.087   2.215  0.00  0.00    +0.000 A 
ATOM      8  C   UNL     1      -5.345   0.796   1.015  0.00  0.00    +0.000 A 
ATOM      9  C   UNL     1      -4.109   0.665   0.342  0.00  0.00    +0.000 A 
BRANCH   4  14
ATOM     10  C   UNL     1       1.685   1.702  -1.493  0.00  0.00    +0.000 C 
ATOM     11  N   UNL     1       0.722   0.709  -1.027  0.00  0.00    +0.000 NA
ATOM     12  C   UNL     1       0.499   0.846   0.431  0.00  0.00    +0.000 C 
ATOM     13  C   UNL     1      -0.538  -0.164   0.975  0.00  0.00    +0.000 C 
ATOM     14  N   UNL     1      -1.794  -0.027   0.226  0.00  0.00    +0.000 N 
ATOM     15  C   UNL     1      -1.647  -0.134  -1.233  0.00  0.00    +0.000 C 
ATOM     16  C   UNL     1      -0.574   0.864  -1.730  0.00  0.00    +0.000 C 
ENDBRANCH   4  14
ENDBRANCH   1   8
BRANCH   1  17
ATOM     17  C   UNL     1      -7.685   1.841   1.373  0.00  0.00    +0.000 C 
BRANCH  17  18
ATOM     18  N   UNL     1      -8.741   2.733   0.856  0.00  0.00    +0.000 N 
ATOM     19  H   UNL     1      -8.389   3.665   0.658  0.00  0.00    +0.000 HD
BRANCH  18  20
ATOM     20  C   UNL     1      -9.909   2.834   1.637  0.00  0.00    +0.000 A 
ATOM     21  C   UNL     1     -10.634   4.034   1.632  0.00  0.00    +0.000 A 
ATOM     22  C   UNL     1     -11.760   4.201   2.450  0.00  0.00    +0.000 A 
ATOM     23  C   UNL     1     -12.192   3.157   3.268  0.00  0.00    +0.000 A 
ATOM     24  C   UNL     1     -11.564   1.916   3.174  0.00  0.00    +0.000 A 
ATOM     25  C   UNL     1     -10.447   1.755   2.348  0.00  0.00    +0.000 A 
BRANCH  23  26
ATOM     26  C   UNL     1     -13.177   3.396   4.323  0.00  0.00    +0.000 C 
ATOM     27  C   UNL     1     -14.502   3.202   4.320  0.00  0.00    +0.000 C 
BRANCH  27  28
ATOM     28  C   UNL     1     -15.323   2.709   3.189  0.00  0.00    +0.000 C 
ATOM     29  N   UNL     1     -16.650   2.639   3.484  0.00  0.00    +0.000 N 
ATOM     30  O   UNL     1     -14.892   2.388   2.096  0.00  0.00    +0.000 OA
ATOM     31  H   UNL     1     -17.056   2.907   4.368  0.00  0.00    +0.000 HD
ATOM     32  H   UNL     1     -17.267   2.326   2.745  0.00  0.00    +0.000 HD
ENDBRANCH  27  28
ENDBRANCH  23  26
ENDBRANCH  18  20
ENDBRANCH  17  18
ENDBRANCH   1  17
TORSDOF 7
