REMARK  Name = 
REMARK  6 active torsions:
REMARK  status: ('A' for Active; 'I' for Inactive)
REMARK    1  A    between atoms: C_1  and  O_2
REMARK    2  A    between atoms: O_2  and  C_3
REMARK    3  A    between atoms: C_3  and  C_4
REMARK    4  A    between atoms: C_4  and  N_5
REMARK    5  A    between atoms: C_4  and  C_15
REMARK    6  A    between atoms: C_9  and  C_10
REMARK                            x       y       z     vdW  Elec       q    Type
REMARK                         _______ _______ _______ _____ _____    ______ ____
ROOT
ATOM      1  N   UNL     1       4.844  -0.682  -1.466  0.00  0.00    +0.000 N 
ATOM      2  C   UNL     1       6.047  -1.078  -0.863  0.00  0.00    +0.000 A 
ATOM      3  C   UNL     1       6.687  -2.214  -1.356  0.00  0.00    +0.000 A 
ATOM      4  C   UNL     1       7.862  -2.670  -0.754  0.00  0.00    +0.000 A 
ATOM      5  C   UNL     1       8.366  -2.011   0.364  0.00  0.00    +0.000 A 
ATOM      6  C   UNL     1       7.647  -0.918   0.819  0.00  0.00    +0.000 A 
ATOM      7  N   UNL     1       6.515  -0.442   0.231  0.00  0.00    +0.000 NA
ATOM      8  H   UNL     1       4.868  -0.891  -2.457  0.00  0.00    +0.000 HD
ENDROOT
BRANCH   5   9
ATOM      9  C   UNL     1       9.614  -2.511   0.992  0.00  0.00    +0.000 C 
ATOM     10  N   UNL     1      10.123  -1.860   2.080  0.00  0.00    +0.000 N 
ATOM     11  O   UNL     1      10.197  -3.492   0.544  0.00  0.00    +0.000 OA
ATOM     12  H   UNL     1       9.738  -1.039   2.520  0.00  0.00    +0.000 HD
ATOM     13  H   UNL     1      10.984  -2.233   2.463  0.00  0.00    +0.000 HD
ENDBRANCH   5   9
BRANCH   1  14
ATOM     14  C   UNL     1       4.416   0.705  -1.223  0.00  0.00    +0.000 C 
BRANCH  14  15
ATOM     15  C   UNL     1       4.975   1.613  -2.318  0.00  0.00    +0.000 A 
ATOM     16  C   UNL     1       5.889   2.623  -1.982  0.00  0.00    +0.000 A 
ATOM     17  C   UNL     1       6.375   3.495  -2.958  0.00  0.00    +0.000 A 
ATOM     18  C   UNL     1       5.965   3.362  -4.283  0.00  0.00    +0.000 A 
ATOM     19  C   UNL     1       5.077   2.349  -4.638  0.00  0.00    +0.000 A 
ATOM     20  C   UNL     1       4.585   1.480  -3.663  0.00  0.00    +0.000 A 
ENDBRANCH  14  15
BRANCH  14  21
ATOM     21  C   UNL     1       2.863   0.809  -1.197  0.00  0.00    +0.000 C 
BRANCH  21  23
ATOM     22  C   UNL     1       2.612   0.513   1.160  0.00  0.00    +0.000 C 
ATOM     23  O   UNL     1       2.205   0.104  -0.137  0.00  0.00    +0.000 OA
ENDBRANCH  21  23
ENDBRANCH  14  21
ENDBRANCH   1  14
TORSDOF 5
