REMARK  Name = 
REMARK  5 active torsions:
REMARK  status: ('A' for Active; 'I' for Inactive)
REMARK    1  A    between atoms: C_2  and  C_4
REMARK    2  A    between atoms: C_7  and  O_8
REMARK    3  A    between atoms: O_8  and  C_9
REMARK    4  A    between atoms: C_9  and  C_10
REMARK    5  A    between atoms: C_14  and  C_15
REMARK                            x       y       z     vdW  Elec       q    Type
REMARK                         _______ _______ _______ _____ _____    ______ ____
ROOT
ATOM      1  C   UNL     1       5.053  -5.239  -2.871  0.00  0.00    +0.000 C 
ENDROOT
BRANCH   1   2
ATOM      2  C   UNL     1       6.044  -6.378  -2.966  0.00  0.00    +0.000 A 
ATOM      3  C   UNL     1       7.411  -6.106  -3.087  0.00  0.00    +0.000 A 
ATOM      4  C   UNL     1       8.332  -7.148  -3.128  0.00  0.00    +0.000 A 
ATOM      5  C   UNL     1       7.898  -8.473  -3.029  0.00  0.00    +0.000 A 
ATOM      6  C   UNL     1       6.538  -8.787  -2.866  0.00  0.00    +0.000 A 
ATOM      7  C   UNL     1       5.627  -7.714  -2.841  0.00  0.00    +0.000 A 
BRANCH   6   8
ATOM      8  C   UNL     1       6.076 -10.180  -2.690  0.00  0.00    +0.000 A 
ATOM      9  C   UNL     1       4.843 -10.632  -3.182  0.00  0.00    +0.000 A 
ATOM     10  C   UNL     1       4.421 -11.943  -2.958  0.00  0.00    +0.000 A 
ATOM     11  C   UNL     1       5.256 -12.788  -2.251  0.00  0.00    +0.000 A 
ATOM     12  N   UNL     1       6.454 -12.413  -1.762  0.00  0.00    +0.000 NA
ATOM     13  C   UNL     1       6.826 -11.128  -1.988  0.00  0.00    +0.000 A 
ENDBRANCH   6   8
ENDBRANCH   1   2
BRANCH   1  14
ATOM     14  O   UNL     1       3.813  -5.605  -3.487  0.00  0.00    +0.000 OA
BRANCH  14  18
ATOM     15  C   UNL     1       0.936  -2.677  -3.205  0.00  0.00    +0.000 A 
ATOM     16  C   UNL     1       0.628  -3.891  -3.821  0.00  0.00    +0.000 A 
ATOM     17  C   UNL     1       1.613  -4.875  -3.913  0.00  0.00    +0.000 A 
ATOM     18  C   UNL     1       2.867  -4.607  -3.383  0.00  0.00    +0.000 A 
ATOM     19  N   UNL     1       3.194  -3.440  -2.787  0.00  0.00    +0.000 NA
ATOM     20  C   UNL     1       2.225  -2.496  -2.722  0.00  0.00    +0.000 A 
BRANCH  15  22
ATOM     21  N   UNL     1      -1.354  -1.891  -2.998  0.00  0.00    +0.000 N 
ATOM     22  C   UNL     1      -0.027  -1.569  -3.057  0.00  0.00    +0.000 C 
ATOM     23  O   UNL     1       0.349  -0.411  -2.949  0.00  0.00    +0.000 OA
ATOM     24  H   UNL     1      -1.985  -1.130  -2.775  0.00  0.00    +0.000 HD
ATOM     25  H   UNL     1      -1.679  -2.831  -2.823  0.00  0.00    +0.000 HD
ENDBRANCH  15  22
ENDBRANCH  14  18
ENDBRANCH   1  14
TORSDOF 5
