REMARK  Name = 
REMARK  5 active torsions:
REMARK  status: ('A' for Active; 'I' for Inactive)
REMARK    1  A    between atoms: C_1  and  O_2
REMARK    2  A    between atoms: O_2  and  C_3
REMARK    3  A    between atoms: C_5  and  C_6
REMARK    4  A    between atoms: N_13  and  C_14
REMARK    5  A    between atoms: C_14  and  C_15
REMARK                            x       y       z     vdW  Elec       q    Type
REMARK                         _______ _______ _______ _____ _____    ______ ____
ROOT
ATOM      1  C   UNL     1       3.125  -1.010   0.991  0.00  0.00    +0.000 A 
ATOM      2  C   UNL     1       2.818  -2.373   1.162  0.00  0.00    +0.000 A 
ATOM      3  C   UNL     1       3.435  -3.173   2.126  0.00  0.00    +0.000 A 
ATOM      4  C   UNL     1       4.425  -2.618   2.937  0.00  0.00    +0.000 A 
ATOM      5  C   UNL     1       4.808  -1.271   2.757  0.00  0.00    +0.000 A 
ATOM      6  C   UNL     1       5.780  -0.468   3.409  0.00  0.00    +0.000 A 
ATOM      7  C   UNL     1       5.743   0.777   2.836  0.00  0.00    +0.000 A 
ATOM      8  N   UNL     1       4.774   0.773   1.855  0.00  0.00    +0.000 N 
ATOM      9  C   UNL     1       4.165  -0.478   1.785  0.00  0.00    +0.000 A 
ENDROOT
BRANCH   3  10
ATOM     10  C   UNL     1       2.972  -4.588   2.232  0.00  0.00    +0.000 C 
ATOM     11  N   UNL     1       3.523  -5.399   3.183  0.00  0.00    +0.000 N 
ATOM     12  O   UNL     1       2.101  -5.032   1.491  0.00  0.00    +0.000 OA
ATOM     13  H   UNL     1       4.235  -5.129   3.841  0.00  0.00    +0.000 HD
ATOM     14  H   UNL     1       3.174  -6.349   3.221  0.00  0.00    +0.000 HD
ENDBRANCH   3  10
BRANCH   1  16
ATOM     15  C   UNL     1       1.140  -0.645  -0.247  0.00  0.00    +0.000 C 
ATOM     16  O   UNL     1       2.471  -0.219   0.074  0.00  0.00    +0.000 OA
ENDBRANCH   1  16
BRANCH   8  17
ATOM     17  C   UNL     1       4.458   1.977   1.086  0.00  0.00    +0.000 C 
BRANCH  17  18
ATOM     18  C   UNL     1       5.392   2.183  -0.067  0.00  0.00    +0.000 A 
ATOM     19  C   UNL     1       5.383   1.374  -1.186  0.00  0.00    +0.000 A 
ATOM     20  N   UNL     1       6.195   1.544  -2.251  0.00  0.00    +0.000 NA
ATOM     21  C   UNL     1       7.056   2.567  -2.168  0.00  0.00    +0.000 A 
ATOM     22  N   UNL     1       7.159   3.426  -1.142  0.00  0.00    +0.000 NA
ATOM     23  C   UNL     1       6.316   3.211  -0.110  0.00  0.00    +0.000 A 
ENDBRANCH  17  18
ENDBRANCH   8  17
TORSDOF 4
