REMARK  Name = 
REMARK  3 active torsions:
REMARK  status: ('A' for Active; 'I' for Inactive)
REMARK    1  A    between atoms: C_2  and  C_4
REMARK    2  A    between atoms: N_8  and  C_9
REMARK    3  A    between atoms: C_9  and  C_10
REMARK                            x       y       z     vdW  Elec       q    Type
REMARK                         _______ _______ _______ _____ _____    ______ ____
ROOT
ATOM      1  C   UNL     1       2.945  -0.332  -2.115  0.00  0.00    +0.000 A 
ATOM      2  C   UNL     1       3.959   0.229  -1.352  0.00  0.00    +0.000 A 
ATOM      3  C   UNL     1       4.737   1.241  -1.908  0.00  0.00    +0.000 A 
ATOM      4  C   UNL     1       4.468   1.701  -3.201  0.00  0.00    +0.000 A 
ATOM      5  N   UNL     1       5.342   2.694  -3.702  0.00  0.00    +0.000 N 
ATOM      6  N   UNL     1       3.491   1.161  -3.952  0.00  0.00    +0.000 NA
ATOM      7  C   UNL     1       2.769   0.145  -3.407  0.00  0.00    +0.000 A 
ATOM      8  H   UNL     1       6.236   2.226  -3.841  0.00  0.00    +0.000 HD
ENDROOT
BRANCH   1  10
ATOM      9  N   UNL     1       1.871  -1.460  -0.256  0.00  0.00    +0.000 N 
ATOM     10  C   UNL     1       2.087  -1.421  -1.611  0.00  0.00    +0.000 C 
ATOM     11  O   UNL     1       1.560  -2.227  -2.367  0.00  0.00    +0.000 OA
ATOM     12  H   UNL     1       1.213  -2.160   0.072  0.00  0.00    +0.000 HD
ATOM     13  H   UNL     1       2.081  -0.691   0.355  0.00  0.00    +0.000 HD
ENDBRANCH   1  10
BRANCH   5  14
ATOM     14  C   UNL     1       4.965   3.597  -4.820  0.00  0.00    +0.000 C 
ATOM     15  C   UNL     1       4.796   5.053  -4.405  0.00  0.00    +0.000 C 
ATOM     16  C   UNL     1       3.612   4.282  -4.881  0.00  0.00    +0.000 C 
BRANCH  14  17
ATOM     17  C   UNL     1       5.665   3.331  -6.157  0.00  0.00    +0.000 C 
ATOM     18  C   UNL     1       5.379   1.909  -6.658  0.00  0.00    +0.000 C 
ATOM     19  C   UNL     1       6.006   1.676  -8.028  0.00  0.00    +0.000 C 
ATOM     20  C   UNL     1       7.509   1.938  -8.000  0.00  0.00    +0.000 C 
ATOM     21  C   UNL     1       7.834   3.328  -7.456  0.00  0.00    +0.000 C 
ATOM     22  C   UNL     1       7.185   3.574  -6.092  0.00  0.00    +0.000 C 
ENDBRANCH  14  17
ENDBRANCH   5  14
TORSDOF 3
