REMARK  Name = 
REMARK  6 active torsions:
REMARK  status: ('A' for Active; 'I' for Inactive)
REMARK    1  A    between atoms: C_1  and  C_2
REMARK    2  A    between atoms: C_4  and  C_5
REMARK    3  A    between atoms: C_5  and  N_6
REMARK    4  A    between atoms: N_6  and  C_7
REMARK    5  A    between atoms: C_10  and  C_11
REMARK    6  A    between atoms: C_18  and  N_19
REMARK                            x       y       z     vdW  Elec       q    Type
REMARK                         _______ _______ _______ _____ _____    ______ ____
ROOT
ATOM      1  N   UNL     1       4.516  -3.731   0.206  0.00  0.00    +0.000 N 
ATOM      2  H   UNL     1       4.135  -3.987  -0.702  0.00  0.00    +0.000 HD
ENDROOT
BRANCH   1   3
ATOM      3  C   UNL     1       5.110  -4.875   0.748  0.00  0.00    +0.000 A 
ATOM      4  N   UNL     1       4.269  -5.739   1.346  0.00  0.00    +0.000 NA
ATOM      5  C   UNL     1       4.786  -6.884   1.875  0.00  0.00    +0.000 A 
ATOM      6  C   UNL     1       6.131  -7.235   1.807  0.00  0.00    +0.000 A 
ATOM      7  C   UNL     1       6.988  -6.359   1.160  0.00  0.00    +0.000 A 
ATOM      8  C   UNL     1       6.472  -5.187   0.620  0.00  0.00    +0.000 A 
ATOM      9  F   UNL     1       7.321  -4.374  -0.027  0.00  0.00    +0.000 F 
BRANCH   6  10
ATOM     10  C   UNL     1       6.568  -8.518   2.403  0.00  0.00    +0.000 C 
ATOM     11  N   UNL     1       7.890  -8.859   2.320  0.00  0.00    +0.000 N 
ATOM     12  O   UNL     1       5.770  -9.264   2.954  0.00  0.00    +0.000 OA
ATOM     13  H   UNL     1       8.619  -8.316   1.884  0.00  0.00    +0.000 HD
ATOM     14  H   UNL     1       8.155  -9.748   2.725  0.00  0.00    +0.000 HD
ENDBRANCH   6  10
ENDBRANCH   1   3
BRANCH   1  15
ATOM     15  C   UNL     1       5.378  -2.561   0.074  0.00  0.00    +0.000 C 
BRANCH  15  19
ATOM     16  C   UNL     1       1.345   0.290   1.132  0.00  0.00    +0.000 C 
ATOM     17  C   UNL     1       2.689   0.093   0.497  0.00  0.00    +0.000 A 
ATOM     18  C   UNL     1       3.346  -1.127   0.602  0.00  0.00    +0.000 A 
ATOM     19  C   UNL     1       4.577  -1.291  -0.036  0.00  0.00    +0.000 A 
ATOM     20  C   UNL     1       5.112  -0.197  -0.724  0.00  0.00    +0.000 A 
ATOM     21  C   UNL     1       4.404   0.993  -0.764  0.00  0.00    +0.000 A 
ATOM     22  N   UNL     1       3.209   1.151  -0.175  0.00  0.00    +0.000 NA
BRANCH  21  23
ATOM     23  N   UNL     1       4.901   2.080  -1.481  0.00  0.00    +0.000 N 
ATOM     24  H   UNL     1       5.849   2.311  -1.212  0.00  0.00    +0.000 HD
ATOM     25  H   UNL     1       4.257   2.851  -1.323  0.00  0.00    +0.000 HD
ENDBRANCH  21  23
ENDBRANCH  15  19
ENDBRANCH   1  15
TORSDOF 5
