REMARK  Name = 
REMARK  5 active torsions:
REMARK  status: ('A' for Active; 'I' for Inactive)
REMARK    1  A    between atoms: C_2  and  C_4
REMARK    2  A    between atoms: N_8  and  C_9
REMARK    3  A    between atoms: C_9  and  C_10
REMARK    4  A    between atoms: C_14  and  N_15
REMARK    5  A    between atoms: C_18  and  O_19
REMARK                            x       y       z     vdW  Elec       q    Type
REMARK                         _______ _______ _______ _____ _____    ______ ____
ROOT
ATOM      1  C   UNL     1       5.041   1.988  -5.792  0.00  0.00    +0.000 C 
ENDROOT
BRANCH   1   6
ATOM      2  C   UNL     1       3.722   1.762  -0.859  0.00  0.00    +0.000 A 
ATOM      3  C   UNL     1       3.039   1.317  -1.984  0.00  0.00    +0.000 A 
ATOM      4  C   UNL     1       3.674   1.361  -3.228  0.00  0.00    +0.000 A 
ATOM      5  C   UNL     1       4.982   1.836  -3.334  0.00  0.00    +0.000 A 
ATOM      6  N   UNL     1       5.703   1.793  -4.517  0.00  0.00    +0.000 N 
ATOM      7  N   UNL     1       5.641   2.290  -2.247  0.00  0.00    +0.000 NA
ATOM      8  C   UNL     1       5.003   2.258  -1.043  0.00  0.00    +0.000 A 
ATOM      9  H   UNL     1       6.616   2.222  -4.389  0.00  0.00    +0.000 HD
BRANCH   2  11
ATOM     10  N   UNL     1       2.208   0.749   0.749  0.00  0.00    +0.000 N 
ATOM     11  C   UNL     1       3.127   1.737   0.493  0.00  0.00    +0.000 C 
ATOM     12  O   UNL     1       3.456   2.536   1.350  0.00  0.00    +0.000 OA
ATOM     13  H   UNL     1       1.877   0.677   1.700  0.00  0.00    +0.000 HD
ATOM     14  H   UNL     1       2.096  -0.058   0.153  0.00  0.00    +0.000 HD
ENDBRANCH   2  11
ENDBRANCH   1   6
BRANCH   1  15
ATOM     15  C   UNL     1       6.005   2.014  -6.950  0.00  0.00    +0.000 A 
ATOM     16  C   UNL     1       6.435   0.848  -7.566  0.00  0.00    +0.000 A 
ATOM     17  N   UNL     1       7.244   0.816  -8.647  0.00  0.00    +0.000 NA
ATOM     18  C   UNL     1       7.635   2.016  -9.146  0.00  0.00    +0.000 A 
ATOM     19  C   UNL     1       7.251   3.264  -8.647  0.00  0.00    +0.000 A 
ATOM     20  C   UNL     1       6.439   3.226  -7.507  0.00  0.00    +0.000 A 
BRANCH  19  21
ATOM     21  N   UNL     1       7.634   4.474  -9.208  0.00  0.00    +0.000 N 
ATOM     22  C   UNL     1       8.871   4.589  -9.977  0.00  0.00    +0.000 C 
ATOM     23  C   UNL     1       8.574   4.714 -11.466  0.00  0.00    +0.000 C 
ATOM     24  C   UNL     1       7.560   5.818 -11.756  0.00  0.00    +0.000 C 
ATOM     25  C   UNL     1       6.299   5.671 -10.905  0.00  0.00    +0.000 C 
ATOM     26  C   UNL     1       6.624   5.521  -9.417  0.00  0.00    +0.000 C 
BRANCH  24  27
ATOM     27  O   UNL     1       8.144   7.106 -11.572  0.00  0.00    +0.000 OA
ATOM     28  H   UNL     1       8.403   7.210 -10.641  0.00  0.00    +0.000 HD
ENDBRANCH  24  27
ENDBRANCH  19  21
ENDBRANCH   1  15
TORSDOF 5
