REMARK  Name = 
REMARK  7 active torsions:
REMARK  status: ('A' for Active; 'I' for Inactive)
REMARK    1  A    between atoms: C_2  and  C_4
REMARK    2  A    between atoms: C_7  and  N_8
REMARK    3  A    between atoms: N_8  and  C_9
REMARK    4  A    between atoms: C_9  and  C_10
REMARK    5  A    between atoms: C_10  and  C_13
REMARK    6  A    between atoms: C_17  and  S_18
REMARK    7  A    between atoms: S_18  and  C_19
REMARK                            x       y       z     vdW  Elec       q    Type
REMARK                         _______ _______ _______ _____ _____    ______ ____
ROOT
ATOM      1  C   UNL     1       5.281  -5.608   1.895  0.00  0.00    +0.000 C 
ENDROOT
BRANCH   1   2
ATOM      2  C   UNL     1       6.307  -6.496   2.660  0.00  0.00    +0.000 C 
ATOM      3  F   UNL     1       7.562  -6.195   2.211  0.00  0.00    +0.000 F 
ATOM      4  F   UNL     1       6.296  -6.104   3.974  0.00  0.00    +0.000 F 
BRANCH   2   5
ATOM      5  C   UNL     1       6.001  -7.975   2.510  0.00  0.00    +0.000 A 
ATOM      6  C   UNL     1       5.196  -8.642   3.442  0.00  0.00    +0.000 A 
ATOM      7  C   UNL     1       4.900  -9.998   3.276  0.00  0.00    +0.000 A 
ATOM      8  C   UNL     1       5.401 -10.703   2.176  0.00  0.00    +0.000 A 
ATOM      9  C   UNL     1       6.214 -10.059   1.241  0.00  0.00    +0.000 A 
ATOM     10  C   UNL     1       6.507  -8.699   1.416  0.00  0.00    +0.000 A 
BRANCH   9  11
ATOM     11  S   UNL     1       6.757 -10.839  -0.265  0.00  0.00    +0.000 S 
BRANCH  11  12
ATOM     12  C   UNL     1       7.695 -12.273   0.362  0.00  0.00    +0.000 C 
ATOM     13  C   UNL     1       8.949 -11.946   1.176  0.00  0.00    +0.000 C 
ATOM     14  O   UNL     1       9.797 -12.664   0.244  0.00  0.00    +0.000 OA
ATOM     15  C   UNL     1       8.698 -12.772  -0.694  0.00  0.00    +0.000 C 
ENDBRANCH  11  12
ENDBRANCH   9  11
ENDBRANCH   2   5
ENDBRANCH   1   2
BRANCH   1  16
ATOM     16  N   UNL     1       5.496  -4.164   2.148  0.00  0.00    +0.000 N 
ATOM     17  H   UNL     1       5.710  -3.976   3.128  0.00  0.00    +0.000 HD
BRANCH  16  21
ATOM     18  C   UNL     1       3.291  -1.105   0.388  0.00  0.00    +0.000 A 
ATOM     19  C   UNL     1       3.307  -2.336  -0.250  0.00  0.00    +0.000 A 
ATOM     20  C   UNL     1       4.018  -3.382   0.342  0.00  0.00    +0.000 A 
ATOM     21  C   UNL     1       4.681  -3.200   1.557  0.00  0.00    +0.000 A 
ATOM     22  C   UNL     1       4.612  -1.905   2.093  0.00  0.00    +0.000 A 
ATOM     23  N   UNL     1       3.932  -0.857   1.560  0.00  0.00    +0.000 NA
BRANCH  18  25
ATOM     24  N   UNL     1       2.675   1.240   0.416  0.00  0.00    +0.000 N 
ATOM     25  C   UNL     1       2.570   0.044  -0.242  0.00  0.00    +0.000 C 
ATOM     26  O   UNL     1       1.931  -0.060  -1.282  0.00  0.00    +0.000 OA
ATOM     27  H   UNL     1       2.249   2.067   0.024  0.00  0.00    +0.000 HD
ATOM     28  H   UNL     1       3.238   1.299   1.258  0.00  0.00    +0.000 HD
ENDBRANCH  18  25
ENDBRANCH  16  21
ENDBRANCH   1  16
TORSDOF 7
