REMARK  Name = 
REMARK  8 active torsions:
REMARK  status: ('A' for Active; 'I' for Inactive)
REMARK    1  A    between atoms: C_1  and  N_2
REMARK    2  A    between atoms: C_5  and  C_6
REMARK    3  A    between atoms: C_10  and  C_11
REMARK    4  A    between atoms: C_11  and  C_12
REMARK    5  A    between atoms: C_11  and  C_13
REMARK    6  A    between atoms: C_11  and  C_14
REMARK    7  A    between atoms: C_14  and  N_15
REMARK    8  A    between atoms: C_19  and  C_20
REMARK                            x       y       z     vdW  Elec       q    Type
REMARK                         _______ _______ _______ _____ _____    ______ ____
ROOT
ATOM      1  C   UNL     1       4.206   0.719  -4.783  0.00  0.00    +0.000 C 
ATOM      2  C   UNL     1       4.501  -0.326  -5.879  0.00  0.00    +0.000 C 
ATOM      3  C   UNL     1       3.999   2.110  -5.423  0.00  0.00    +0.000 C 
ENDROOT
BRANCH   1   8
ATOM      4  C   UNL     1       1.671  -0.008  -1.902  0.00  0.00    +0.000 A 
ATOM      5  C   UNL     1       0.485  -0.081  -2.642  0.00  0.00    +0.000 A 
ATOM      6  C   UNL     1       0.495   0.005  -4.036  0.00  0.00    +0.000 A 
ATOM      7  C   UNL     1       1.690   0.213  -4.723  0.00  0.00    +0.000 A 
ATOM      8  C   UNL     1       2.900   0.350  -4.029  0.00  0.00    +0.000 A 
ATOM      9  C   UNL     1       2.857   0.215  -2.624  0.00  0.00    +0.000 A 
BRANCH   4  14
ATOM     10  C   UNL     1       1.843  -4.291  -0.063  0.00  0.00    +0.000 C 
ATOM     11  N   UNL     1       1.800  -2.912   0.441  0.00  0.00    +0.000 NA
ATOM     12  C   UNL     1       3.009  -2.199   0.005  0.00  0.00    +0.000 C 
ATOM     13  C   UNL     1       2.950  -0.693   0.264  0.00  0.00    +0.000 C 
ATOM     14  C   UNL     1       1.695  -0.053  -0.368  0.00  0.00    +0.000 C 
ATOM     15  C   UNL     1       0.503  -0.773   0.284  0.00  0.00    +0.000 C 
ATOM     16  C   UNL     1       0.547  -2.277   0.009  0.00  0.00    +0.000 C 
ENDBRANCH   4  14
ENDBRANCH   1   8
BRANCH   1  17
ATOM     17  C   UNL     1       5.416   0.782  -3.807  0.00  0.00    +0.000 C 
BRANCH  17  18
ATOM     18  N   UNL     1       6.702   1.146  -4.416  0.00  0.00    +0.000 N 
ATOM     19  C   UNL     1       7.726   1.180  -3.443  0.00  0.00    +0.000 A 
ATOM     20  C   UNL     1       9.011   1.540  -3.832  0.00  0.00    +0.000 A 
ATOM     21  C   UNL     1      10.029   1.578  -2.876  0.00  0.00    +0.000 A 
ATOM     22  C   UNL     1       9.748   1.255  -1.546  0.00  0.00    +0.000 A 
ATOM     23  C   UNL     1       8.446   0.899  -1.250  0.00  0.00    +0.000 A 
ATOM     24  N   UNL     1       7.447   0.850  -2.164  0.00  0.00    +0.000 NA
ATOM     25  H   UNL     1       6.673   2.060  -4.861  0.00  0.00    +0.000 HD
BRANCH  22  26
ATOM     26  C   UNL     1      10.824   1.308  -0.531  0.00  0.00    +0.000 C 
ATOM     27  N   UNL     1      10.528   0.998   0.767  0.00  0.00    +0.000 N 
ATOM     28  O   UNL     1      11.966   1.628  -0.838  0.00  0.00    +0.000 OA
ATOM     29  H   UNL     1       9.631   0.734   1.130  0.00  0.00    +0.000 HD
ATOM     30  H   UNL     1      11.293   1.054   1.426  0.00  0.00    +0.000 HD
ENDBRANCH  22  26
ENDBRANCH  17  18
ENDBRANCH   1  17
TORSDOF 5
