REMARK  Name = 
REMARK  4 active torsions:
REMARK  status: ('A' for Active; 'I' for Inactive)
REMARK    1  A    between atoms: C_2  and  C_4
REMARK    2  A    between atoms: C_7  and  N_8
REMARK    3  A    between atoms: N_8  and  C_9
REMARK    4  A    between atoms: C_9  and  C_10
REMARK                            x       y       z     vdW  Elec       q    Type
REMARK                         _______ _______ _______ _____ _____    ______ ____
ROOT
ATOM      1  C   UNL     1       3.260   0.892   0.977  0.00  0.00    +0.000 A 
ATOM      2  C   UNL     1       2.797   1.043   2.288  0.00  0.00    +0.000 A 
ATOM      3  C   UNL     1       3.565   1.742   3.227  0.00  0.00    +0.000 A 
ATOM      4  C   UNL     1       4.808   2.280   2.878  0.00  0.00    +0.000 A 
ATOM      5  C   UNL     1       5.226   2.183   1.545  0.00  0.00    +0.000 A 
ATOM      6  C   UNL     1       4.474   1.473   0.605  0.00  0.00    +0.000 A 
ENDROOT
BRANCH   1   8
ATOM      7  N   UNL     1       1.170  -0.024   0.124  0.00  0.00    +0.000 N 
ATOM      8  C   UNL     1       2.523   0.087  -0.030  0.00  0.00    +0.000 C 
ATOM      9  O   UNL     1       3.095  -0.440  -0.975  0.00  0.00    +0.000 OA
ATOM     10  H   UNL     1       0.675  -0.497  -0.622  0.00  0.00    +0.000 HD
ATOM     11  H   UNL     1       0.640   0.588   0.726  0.00  0.00    +0.000 HD
ENDBRANCH   1   8
BRANCH   4  12
ATOM     12  N   UNL     1       5.648   2.937   3.773  0.00  0.00    +0.000 N 
ATOM     13  H   UNL     1       5.647   3.945   3.629  0.00  0.00    +0.000 HD
BRANCH  12  14
ATOM     14  C   UNL     1       5.608   2.568   5.181  0.00  0.00    +0.000 C 
BRANCH  14  15
ATOM     15  C   UNL     1       6.954   2.850   5.797  0.00  0.00    +0.000 A 
ATOM     16  C   UNL     1       7.081   3.653   6.931  0.00  0.00    +0.000 A 
ATOM     17  C   UNL     1       8.347   3.854   7.464  0.00  0.00    +0.000 A 
ATOM     18  N   UNL     1       9.476   3.313   6.953  0.00  0.00    +0.000 NA
ATOM     19  C   UNL     1       9.332   2.535   5.860  0.00  0.00    +0.000 A 
ATOM     20  C   UNL     1       8.113   2.276   5.258  0.00  0.00    +0.000 A 
ENDBRANCH  14  15
ENDBRANCH  12  14
ENDBRANCH   4  12
TORSDOF 4
