REMARK  Name = 
REMARK  9 active torsions:
REMARK  status: ('A' for Active; 'I' for Inactive)
REMARK    1  A    between atoms: C_1  and  O_2
REMARK    2  A    between atoms: O_2  and  C_3
REMARK    3  A    between atoms: C_10  and  C_11
REMARK    4  A    between atoms: N_13  and  C_14
REMARK    5  A    between atoms: C_14  and  C_15
REMARK    6  A    between atoms: C_18  and  C_19
REMARK    7  A    between atoms: C_19  and  N_20
REMARK    8  A    between atoms: N_20  and  C_21
REMARK    9  A    between atoms: C_21  and  C_22
REMARK                            x       y       z     vdW  Elec       q    Type
REMARK                         _______ _______ _______ _____ _____    ______ ____
ROOT
ATOM      1  C   UNL     1       2.879   0.432   3.382  0.00  0.00    +0.000 C 
ENDROOT
BRANCH   1   2
ATOM      2  C   UNL     1       1.804   1.459   3.142  0.00  0.00    +0.000 A 
ATOM      3  C   UNL     1       0.478   1.061   2.942  0.00  0.00    +0.000 A 
ATOM      4  C   UNL     1      -0.513   2.006   2.677  0.00  0.00    +0.000 A 
ATOM      5  C   UNL     1      -0.214   3.374   2.646  0.00  0.00    +0.000 A 
ATOM      6  C   UNL     1       1.123   3.767   2.810  0.00  0.00    +0.000 A 
ATOM      7  C   UNL     1       2.122   2.820   3.051  0.00  0.00    +0.000 A 
BRANCH   5   8
ATOM      8  C   UNL     1      -1.272   4.435   2.409  0.00  0.00    +0.000 C 
BRANCH   8   9
ATOM      9  N   UNL     1      -2.620   4.110   2.888  0.00  0.00    +0.000 NA
ATOM     10  H   UNL     1      -2.970   3.292   2.396  0.00  0.00    +0.000 HD
BRANCH   9  11
ATOM     11  C   UNL     1      -2.675   3.906   4.337  0.00  0.00    +0.000 C 
BRANCH  11  12
ATOM     12  C   UNL     1      -4.086   3.496   4.790  0.00  0.00    +0.000 C 
ATOM     13  C   UNL     1      -5.138   4.570   4.483  0.00  0.00    +0.000 C 
ATOM     14  C   UNL     1      -6.482   4.200   5.095  0.00  0.00    +0.000 C 
ATOM     15  O   UNL     1      -6.359   3.985   6.500  0.00  0.00    +0.000 OA
ATOM     16  C   UNL     1      -5.484   2.901   6.802  0.00  0.00    +0.000 C 
ATOM     17  C   UNL     1      -4.078   3.187   6.295  0.00  0.00    +0.000 C 
ENDBRANCH  11  12
ENDBRANCH   9  11
ENDBRANCH   8   9
ENDBRANCH   5   8
ENDBRANCH   1   2
BRANCH   1  20
ATOM     18  C   UNL     1       4.403  -0.982   2.075  0.00  0.00    +0.000 C 
ATOM     19  O   UNL     1       4.841  -1.505   3.101  0.00  0.00    +0.000 OA
ATOM     20  N   UNL     1       3.435  -0.019   2.133  0.00  0.00    +0.000 N 
ATOM     21  H   UNL     1       3.123   0.440   1.287  0.00  0.00    +0.000 HD
BRANCH  18  29
ATOM     22  C   UNL     1       3.544  -0.078  -1.139  0.00  0.00    +0.000 A 
ATOM     23  N   UNL     1       3.424   0.092  -2.470  0.00  0.00    +0.000 NA
ATOM     24  C   UNL     1       4.229  -0.611  -3.270  0.00  0.00    +0.000 A 
ATOM     25  N   UNL     1       5.162  -1.481  -2.899  0.00  0.00    +0.000 NA
ATOM     26  C   UNL     1       5.257  -1.614  -1.565  0.00  0.00    +0.000 A 
ATOM     27  S   UNL     1       6.395  -2.691  -0.913  0.00  0.00    +0.000 S 
ATOM     28  C   UNL     1       5.917  -2.313   0.672  0.00  0.00    +0.000 A 
ATOM     29  C   UNL     1       4.898  -1.371   0.745  0.00  0.00    +0.000 A 
ATOM     30  C   UNL     1       4.502  -0.954  -0.599  0.00  0.00    +0.000 A 
BRANCH  22  32
ATOM     31  C   UNL     1       1.496   1.022  -0.954  0.00  0.00    +0.000 C 
ATOM     32  O   UNL     1       2.723   0.667  -0.318  0.00  0.00    +0.000 OA
ENDBRANCH  22  32
ENDBRANCH  18  29
ENDBRANCH   1  20
TORSDOF 8
