REMARK  Name = 
REMARK  5 active torsions:
REMARK  status: ('A' for Active; 'I' for Inactive)
REMARK    1  A    between atoms: N_1  and  C_2
REMARK    2  A    between atoms: C_2  and  C_3
REMARK    3  A    between atoms: C_6  and  C_7
REMARK    4  A    between atoms: C_7  and  N_8
REMARK    5  A    between atoms: C_13  and  C_14
REMARK                            x       y       z     vdW  Elec       q    Type
REMARK                         _______ _______ _______ _____ _____    ______ ____
ROOT
ATOM      1  N   UNL     1       6.029  -4.055  -1.911  0.00  0.00    +0.000 N 
ATOM      2  N   UNL     1       6.309  -4.792  -3.000  0.00  0.00    +0.000 NA
ATOM      3  N   UNL     1       6.250  -6.069  -2.644  0.00  0.00    +0.000 NA
ATOM      4  C   UNL     1       5.967  -6.123  -1.306  0.00  0.00    +0.000 A 
ATOM      5  C   UNL     1       5.817  -7.226  -0.454  0.00  0.00    +0.000 A 
ATOM      6  C   UNL     1       5.562  -6.989   0.909  0.00  0.00    +0.000 A 
ATOM      7  C   UNL     1       5.434  -5.674   1.385  0.00  0.00    +0.000 A 
ATOM      8  C   UNL     1       5.559  -4.566   0.541  0.00  0.00    +0.000 A 
ATOM      9  C   UNL     1       5.833  -4.836  -0.802  0.00  0.00    +0.000 A 
ENDROOT
BRANCH   6  10
ATOM     10  C   UNL     1       5.433  -8.097   1.899  0.00  0.00    +0.000 C 
ATOM     11  N   UNL     1       5.563  -9.385   1.465  0.00  0.00    +0.000 N 
ATOM     12  O   UNL     1       5.220  -7.870   3.084  0.00  0.00    +0.000 OA
ATOM     13  H   UNL     1       5.752  -9.672   0.519  0.00  0.00    +0.000 HD
ATOM     14  H   UNL     1       5.484 -10.111   2.169  0.00  0.00    +0.000 HD
ENDBRANCH   6  10
BRANCH   1  15
ATOM     15  C   UNL     1       5.976  -2.614  -1.995  0.00  0.00    +0.000 C 
BRANCH  15  19
ATOM     16  C   UNL     1       2.982  -0.348  -1.446  0.00  0.00    +0.000 C 
ATOM     17  C   UNL     1       2.944  -1.886  -1.368  0.00  0.00    +0.000 C 
ATOM     18  C   UNL     1       3.492  -2.540  -2.638  0.00  0.00    +0.000 C 
ATOM     19  C   UNL     1       4.919  -2.070  -2.976  0.00  0.00    +0.000 C 
ATOM     20  C   UNL     1       4.983  -0.531  -3.018  0.00  0.00    +0.000 C 
ATOM     21  C   UNL     1       4.418   0.115  -1.751  0.00  0.00    +0.000 C 
BRANCH  16  22
ATOM     22  C   UNL     1       1.936   0.147  -2.469  0.00  0.00    +0.000 C 
BRANCH  22  23
ATOM     23  N   UNL     1       1.893   1.598  -2.595  0.00  0.00    +0.000 NA
ATOM     24  H   UNL     1       1.209   1.841  -3.312  0.00  0.00    +0.000 HD
ATOM     25  H   UNL     1       2.785   1.940  -2.950  0.00  0.00    +0.000 HD
ENDBRANCH  22  23
ENDBRANCH  16  22
ENDBRANCH  15  19
ENDBRANCH   1  15
TORSDOF 5
