REMARK  Name = 
REMARK  6 active torsions:
REMARK  status: ('A' for Active; 'I' for Inactive)
REMARK    1  A    between atoms: C_2  and  C_3
REMARK    2  A    between atoms: C_6  and  C_7
REMARK    3  A    between atoms: C_11  and  C_12
REMARK    4  A    between atoms: C_12  and  N_13
REMARK    5  A    between atoms: N_13  and  C_14
REMARK    6  A    between atoms: C_17  and  C_18
REMARK                            x       y       z     vdW  Elec       q    Type
REMARK                         _______ _______ _______ _____ _____    ______ ____
ROOT
ATOM      1  C   UNL     1       6.589  -1.245  -1.709  0.00  0.00    +0.000 C 
ATOM      2  C   UNL     1       7.506  -2.453  -1.665  0.00  0.00    +0.000 C 
ATOM      3  C   UNL     1       8.107  -1.101  -1.815  0.00  0.00    +0.000 C 
ATOM      4  F   UNL     1       8.651  -0.791  -3.051  0.00  0.00    +0.000 F 
ENDROOT
BRANCH   1   9
ATOM      5  C   UNL     1       5.917   0.911   1.227  0.00  0.00    +0.000 A 
ATOM      6  N   UNL     1       5.012   0.249   1.969  0.00  0.00    +0.000 NA
ATOM      7  C   UNL     1       4.587  -0.927   1.479  0.00  0.00    +0.000 A 
ATOM      8  C   UNL     1       5.040  -1.465   0.298  0.00  0.00    +0.000 A 
ATOM      9  C   UNL     1       5.980  -0.733  -0.404  0.00  0.00    +0.000 A 
ATOM     10  N   UNL     1       6.404   0.467   0.055  0.00  0.00    +0.000 NA
BRANCH   5  14
ATOM     11  C   UNL     1       7.608   4.556   2.784  0.00  0.00    +0.000 A 
ATOM     12  C   UNL     1       6.703   3.819   3.550  0.00  0.00    +0.000 A 
ATOM     13  C   UNL     1       6.141   2.645   3.035  0.00  0.00    +0.000 A 
ATOM     14  C   UNL     1       6.470   2.174   1.751  0.00  0.00    +0.000 A 
ATOM     15  C   UNL     1       7.377   2.945   0.994  0.00  0.00    +0.000 A 
ATOM     16  C   UNL     1       7.941   4.120   1.501  0.00  0.00    +0.000 A 
BRANCH  11  18
ATOM     17  N   UNL     1       8.676   6.715   3.745  0.00  0.00    +0.000 NA
ATOM     18  C   UNL     1       8.198   5.750   3.315  0.00  0.00    +0.000 C 
ENDBRANCH  11  18
ENDBRANCH   5  14
ENDBRANCH   1   9
BRANCH   1  19
ATOM     19  N   UNL     1       5.824  -0.868  -2.920  0.00  0.00    +0.000 N 
ATOM     20  H   UNL     1       5.761   0.137  -3.067  0.00  0.00    +0.000 HD
BRANCH  19  21
ATOM     21  C   UNL     1       4.722  -1.569  -3.442  0.00  0.00    +0.000 A 
ATOM     22  C   UNL     1       4.407  -2.887  -3.105  0.00  0.00    +0.000 A 
ATOM     23  C   UNL     1       3.360  -3.562  -3.750  0.00  0.00    +0.000 A 
ATOM     24  C   UNL     1       2.621  -2.931  -4.757  0.00  0.00    +0.000 A 
ATOM     25  C   UNL     1       2.940  -1.622  -5.118  0.00  0.00    +0.000 A 
ATOM     26  C   UNL     1       3.985  -0.957  -4.469  0.00  0.00    +0.000 A 
BRANCH  24  27
ATOM     27  C   UNL     1       1.561  -3.702  -5.459  0.00  0.00    +0.000 C 
ATOM     28  N   UNL     1       0.562  -2.993  -6.067  0.00  0.00    +0.000 N 
ATOM     29  O   UNL     1       1.566  -4.926  -5.480  0.00  0.00    +0.000 OA
ATOM     30  H   UNL     1       0.403  -2.010  -5.908  0.00  0.00    +0.000 HD
ATOM     31  H   UNL     1      -0.184  -3.532  -6.487  0.00  0.00    +0.000 HD
ENDBRANCH  24  27
ENDBRANCH  19  21
ENDBRANCH   1  19
TORSDOF 6
