REMARK  Name = 
REMARK  7 active torsions:
REMARK  status: ('A' for Active; 'I' for Inactive)
REMARK    1  A    between atoms: C_2  and  C_3
REMARK    2  A    between atoms: C_3  and  N_4
REMARK    3  A    between atoms: C_3  and  C_23
REMARK    4  A    between atoms: C_5  and  C_7
REMARK    5  A    between atoms: N_13  and  C_14
REMARK    6  A    between atoms: C_14  and  C_15
REMARK    7  A    between atoms: C_15  and  C_16
REMARK                            x       y       z     vdW  Elec       q    Type
REMARK                         _______ _______ _______ _____ _____    ______ ____
ROOT
ATOM      1  C   UNL     1       0.136   0.380   1.039  0.00  0.00    +0.000 A 
ATOM      2  C   UNL     1      -0.537  -0.707   0.493  0.00  0.00    +0.000 A 
ATOM      3  S   UNL     1      -2.240  -0.576   0.438  0.00  0.00    +0.000 S 
ATOM      4  C   UNL     1      -2.117   0.956   1.202  0.00  0.00    +0.000 A 
ATOM      5  N   UNL     1      -3.052   1.866   1.572  0.00  0.00    +0.000 NA
ATOM      6  C   UNL     1      -2.357   2.844   2.096  0.00  0.00    +0.000 A 
ATOM      7  N   UNL     1      -1.003   2.584   2.122  0.00  0.00    +0.000 N 
ATOM      8  C   UNL     1      -0.831   1.350   1.494  0.00  0.00    +0.000 A 
ENDROOT
BRANCH   1  10
ATOM      9  N   UNL     1       2.272  -0.351   0.270  0.00  0.00    +0.000 N 
ATOM     10  C   UNL     1       1.587   0.445   1.166  0.00  0.00    +0.000 C 
ATOM     11  O   UNL     1       2.160   1.129   2.005  0.00  0.00    +0.000 OA
ATOM     12  H   UNL     1       1.801  -0.671  -0.566  0.00  0.00    +0.000 HD
BRANCH   9  13
ATOM     13  C   UNL     1       3.731  -0.431   0.247  0.00  0.00    +0.000 C 
BRANCH  13  14
ATOM     14  C   UNL     1       4.337   0.706  -0.568  0.00  0.00    +0.000 A 
ATOM     15  C   UNL     1       5.237   1.588   0.035  0.00  0.00    +0.000 A 
ATOM     16  C   UNL     1       5.794   2.613  -0.725  0.00  0.00    +0.000 A 
ATOM     17  C   UNL     1       5.451   2.732  -2.065  0.00  0.00    +0.000 A 
ATOM     18  C   UNL     1       4.550   1.822  -2.592  0.00  0.00    +0.000 A 
ATOM     19  N   UNL     1       3.979   0.824  -1.876  0.00  0.00    +0.000 NA
ENDBRANCH  13  14
BRANCH  13  21
ATOM     20  N   UNL     1       4.504  -2.803  -0.655  0.00  0.00    +0.000 NA
ATOM     21  C   UNL     1       4.178  -1.755  -0.277  0.00  0.00    +0.000 C 
ENDBRANCH  13  21
ENDBRANCH   9  13
ENDBRANCH   1  10
BRANCH   7  22
ATOM     22  C   UNL     1      -0.026   3.512   2.667  0.00  0.00    +0.000 C 
BRANCH  22  23
ATOM     23  C   UNL     1      -0.294   3.843   4.149  0.00  0.00    +0.000 C 
BRANCH  23  24
ATOM     24  C   UNL     1       0.601   4.900   4.759  0.00  0.00    +0.000 A 
ATOM     25  C   UNL     1       0.057   6.079   5.287  0.00  0.00    +0.000 A 
ATOM     26  C   UNL     1       0.899   6.990   5.910  0.00  0.00    +0.000 A 
ATOM     27  N   UNL     1       2.229   6.811   6.042  0.00  0.00    +0.000 NA
ATOM     28  C   UNL     1       2.735   5.669   5.534  0.00  0.00    +0.000 A 
ATOM     29  C   UNL     1       1.976   4.697   4.893  0.00  0.00    +0.000 A 
ENDBRANCH  23  24
ENDBRANCH  22  23
ENDBRANCH   7  22
TORSDOF 7
