REMARK  Name = 
REMARK  11 active torsions:
REMARK  status: ('A' for Active; 'I' for Inactive)
REMARK    1  A    between atoms: N_1  and  C_2
REMARK    2  A    between atoms: C_2  and  C_3
REMARK    3  A    between atoms: C_3  and  C_4
REMARK    4  A    between atoms: C_4  and  N_5
REMARK    5  A    between atoms: C_4  and  C_22
REMARK    6  A    between atoms: N_5  and  C_6
REMARK    7  A    between atoms: C_6  and  C_7
REMARK    8  A    between atoms: C_10  and  C_11
REMARK    9  A    between atoms: C_11  and  N_12
REMARK   10  A    between atoms: N_12  and  C_13
REMARK   11  A    between atoms: C_13  and  C_14
REMARK                            x       y       z     vdW  Elec       q    Type
REMARK                         _______ _______ _______ _____ _____    ______ ____
ROOT
ATOM      1  N   UNL     1       4.835   0.256   1.257  0.00  0.00    +0.000 NA
ATOM      2  H   UNL     1       5.823   0.188   1.484  0.00  0.00    +0.000 HD
ENDROOT
BRANCH   1   3
ATOM      3  C   UNL     1       4.357  -1.046   0.747  0.00  0.00    +0.000 C 
BRANCH   3   4
ATOM      4  C   UNL     1       2.840  -0.967   0.539  0.00  0.00    +0.000 A 
ATOM      5  C   UNL     1       2.246  -0.685  -0.683  0.00  0.00    +0.000 A 
ATOM      6  S   UNL     1       0.555  -0.505  -0.615  0.00  0.00    +0.000 S 
ATOM      7  C   UNL     1       0.543  -0.828   1.054  0.00  0.00    +0.000 A 
ATOM      8  N   UNL     1      -0.626  -0.790   1.750  0.00  0.00    +0.000 NA
ATOM      9  C   UNL     1      -0.498  -1.033   3.008  0.00  0.00    +0.000 A 
ATOM     10  N   UNL     1       0.687  -1.339   3.630  0.00  0.00    +0.000 N 
ATOM     11  C   UNL     1       1.886  -1.458   2.954  0.00  0.00    +0.000 A 
ATOM     12  O   UNL     1       2.892  -1.883   3.515  0.00  0.00    +0.000 OA
ATOM     13  C   UNL     1       1.805  -1.114   1.544  0.00  0.00    +0.000 A 
ATOM     14  H   UNL     1       0.701  -1.577   4.610  0.00  0.00    +0.000 HD
ENDBRANCH   3   4
BRANCH   3  15
ATOM     15  C   UNL     1       5.087  -1.550  -0.535  0.00  0.00    +0.000 C 
BRANCH  15  16
ATOM     16  C   UNL     1       6.607  -1.655  -0.463  0.00  0.00    +0.000 C 
BRANCH  16  17
ATOM     17  N   UNL     1       7.107  -2.144  -1.750  0.00  0.00    +0.000 NA
ATOM     18  H   UNL     1       8.126  -2.149  -1.754  0.00  0.00    +0.000 HD
ATOM     19  H   UNL     1       6.822  -1.515  -2.501  0.00  0.00    +0.000 HD
ENDBRANCH  16  17
ENDBRANCH  15  16
ENDBRANCH   3  15
ENDBRANCH   1   3
BRANCH   1  20
ATOM     20  C   UNL     1       4.601   1.390   0.350  0.00  0.00    +0.000 C 
BRANCH  20  21
ATOM     21  C   UNL     1       5.195   2.715   0.794  0.00  0.00    +0.000 A 
ATOM     22  C   UNL     1       6.561   2.849   1.026  0.00  0.00    +0.000 A 
ATOM     23  C   UNL     1       7.076   4.114   1.305  0.00  0.00    +0.000 A 
ATOM     24  C   UNL     1       6.226   5.224   1.328  0.00  0.00    +0.000 A 
ATOM     25  C   UNL     1       4.878   4.994   1.095  0.00  0.00    +0.000 A 
ATOM     26  N   UNL     1       4.352   3.778   0.826  0.00  0.00    +0.000 NA
BRANCH  24  27
ATOM     27  C   UNL     1       6.747   6.608   1.597  0.00  0.00    +0.000 C 
BRANCH  27  28
ATOM     28  N   UNL     1       7.755   6.994   0.609  0.00  0.00    +0.000 NA
ATOM     29  H   UNL     1       7.339   6.962  -0.322  0.00  0.00    +0.000 HD
BRANCH  28  30
ATOM     30  C   UNL     1       8.257   8.338   0.865  0.00  0.00    +0.000 C 
BRANCH  30  31
ATOM     31  C   UNL     1       9.258   8.752  -0.184  0.00  0.00    +0.000 A 
ATOM     32  C   UNL     1       9.031   9.873  -0.988  0.00  0.00    +0.000 A 
ATOM     33  C   UNL     1       9.988  10.222  -1.930  0.00  0.00    +0.000 A 
ATOM     34  N   UNL     1      11.139   9.543  -2.120  0.00  0.00    +0.000 NA
ATOM     35  C   UNL     1      11.340   8.463  -1.336  0.00  0.00    +0.000 A 
ATOM     36  C   UNL     1      10.445   8.036  -0.367  0.00  0.00    +0.000 A 
ENDBRANCH  30  31
ENDBRANCH  28  30
ENDBRANCH  27  28
ENDBRANCH  24  27
ENDBRANCH  20  21
ENDBRANCH   1  20
TORSDOF 11
