REMARK  Name = 
REMARK  10 active torsions:
REMARK  status: ('A' for Active; 'I' for Inactive)
REMARK    1  A    between atoms: C_1  and  O_2
REMARK    2  A    between atoms: O_2  and  C_3
REMARK    3  A    between atoms: C_10  and  C_11
REMARK    4  A    between atoms: N_13  and  C_14
REMARK    5  A    between atoms: C_14  and  C_15
REMARK    6  A    between atoms: C_18  and  C_19
REMARK    7  A    between atoms: C_19  and  N_20
REMARK    8  A    between atoms: N_20  and  C_21
REMARK    9  A    between atoms: C_21  and  C_22
REMARK   10  A    between atoms: C_21  and  C_23
REMARK                            x       y       z     vdW  Elec       q    Type
REMARK                         _______ _______ _______ _____ _____    ______ ____
ROOT
ATOM      1  C   UNL     1       2.215  -2.063   2.843  0.00  0.00    +0.000 A 
ATOM      2  C   UNL     1       1.193  -2.771   3.491  0.00  0.00    +0.000 A 
ATOM      3  C   UNL     1       0.251  -2.104   4.287  0.00  0.00    +0.000 A 
ATOM      4  C   UNL     1       0.297  -0.711   4.445  0.00  0.00    +0.000 A 
ATOM      5  C   UNL     1       1.310  -0.004   3.783  0.00  0.00    +0.000 A 
ATOM      6  C   UNL     1       2.254  -0.670   2.991  0.00  0.00    +0.000 A 
ENDROOT
BRANCH   1   7
ATOM      7  C   UNL     1       3.223  -2.784   1.977  0.00  0.00    +0.000 C 
BRANCH   7  10
ATOM      8  C   UNL     1       3.478  -3.523  -0.370  0.00  0.00    +0.000 C 
ATOM      9  O   UNL     1       4.571  -4.042  -0.139  0.00  0.00    +0.000 OA
ATOM     10  N   UNL     1       2.761  -2.892   0.614  0.00  0.00    +0.000 N 
ATOM     11  H   UNL     1       1.877  -2.464   0.396  0.00  0.00    +0.000 HD
BRANCH   8  19
ATOM     12  C   UNL     1       0.505  -2.369  -1.661  0.00  0.00    +0.000 A 
ATOM     13  N   UNL     1      -0.549  -1.996  -2.412  0.00  0.00    +0.000 NA
ATOM     14  C   UNL     1      -0.524  -2.287  -3.714  0.00  0.00    +0.000 A 
ATOM     15  N   UNL     1       0.437  -2.929  -4.372  0.00  0.00    +0.000 NA
ATOM     16  C   UNL     1       1.474  -3.275  -3.587  0.00  0.00    +0.000 A 
ATOM     17  S   UNL     1       2.796  -4.103  -4.257  0.00  0.00    +0.000 S 
ATOM     18  C   UNL     1       3.589  -4.158  -2.754  0.00  0.00    +0.000 A 
ATOM     19  C   UNL     1       2.883  -3.547  -1.722  0.00  0.00    +0.000 A 
ATOM     20  C   UNL     1       1.609  -3.032  -2.223  0.00  0.00    +0.000 A 
BRANCH  12  22
ATOM     21  C   UNL     1      -0.825  -1.891   0.204  0.00  0.00    +0.000 C 
ATOM     22  O   UNL     1       0.489  -2.039  -0.323  0.00  0.00    +0.000 OA
ENDBRANCH  12  22
ENDBRANCH   8  19
ENDBRANCH   7  10
ENDBRANCH   1   7
BRANCH   4  23
ATOM     23  C   UNL     1      -0.740   0.025   5.273  0.00  0.00    +0.000 C 
BRANCH  23  24
ATOM     24  N   UNL     1      -0.743  -0.426   6.663  0.00  0.00    +0.000 NA
ATOM     25  H   UNL     1       0.194  -0.286   7.044  0.00  0.00    +0.000 HD
BRANCH  24  26
ATOM     26  C   UNL     1      -1.691   0.293   7.532  0.00  0.00    +0.000 C 
ATOM     27  C   UNL     1      -3.155   0.130   7.091  0.00  0.00    +0.000 C 
BRANCH  26  28
ATOM     28  C   UNL     1      -1.538  -0.190   8.973  0.00  0.00    +0.000 A 
ATOM     29  C   UNL     1      -1.200   0.697  10.005  0.00  0.00    +0.000 A 
ATOM     30  C   UNL     1      -1.113   0.253  11.330  0.00  0.00    +0.000 A 
ATOM     31  C   UNL     1      -1.349  -1.084  11.640  0.00  0.00    +0.000 A 
ATOM     32  C   UNL     1      -1.657  -1.985  10.624  0.00  0.00    +0.000 A 
ATOM     33  C   UNL     1      -1.747  -1.543   9.302  0.00  0.00    +0.000 A 
ENDBRANCH  26  28
ENDBRANCH  24  26
ENDBRANCH  23  24
ENDBRANCH   4  23
TORSDOF 8
