REMARK  Name = 
REMARK  12 active torsions:
REMARK  status: ('A' for Active; 'I' for Inactive)
REMARK    1  A    between atoms: C_1  and  C_2
REMARK    2  A    between atoms: C_2  and  C_3
REMARK    3  A    between atoms: C_3  and  N_4
REMARK    4  A    between atoms: C_3  and  C_5
REMARK    5  A    between atoms: C_5  and  O_6
REMARK    6  A    between atoms: O_6  and  C_7
REMARK    7  A    between atoms: C_7  and  C_8
REMARK    8  A    between atoms: C_7  and  C_9
REMARK    9  A    between atoms: C_12  and  C_13
REMARK   10  A    between atoms: C_13  and  O_14
REMARK   11  A    between atoms: O_14  and  C_15
REMARK   12  A    between atoms: C_18  and  C_19
REMARK                            x       y       z     vdW  Elec       q    Type
REMARK                         _______ _______ _______ _____ _____    ______ ____
ROOT
ATOM      1  C   UNL     1       6.788   1.818   3.926  0.00  0.00    +0.000 A 
ATOM      2  C   UNL     1       6.763   3.204   4.089  0.00  0.00    +0.000 A 
ATOM      3  C   UNL     1       7.132   3.765   5.309  0.00  0.00    +0.000 A 
ATOM      4  C   UNL     1       7.520   2.919   6.345  0.00  0.00    +0.000 A 
ATOM      5  N   UNL     1       7.595   1.572   6.196  0.00  0.00    +0.000 NA
ATOM      6  C   UNL     1       7.239   1.059   4.998  0.00  0.00    +0.000 A 
ENDROOT
BRANCH   1   7
ATOM      7  C   UNL     1       6.334   1.145   2.652  0.00  0.00    +0.000 C 
ATOM      8  C   UNL     1       4.847   1.424   2.421  0.00  0.00    +0.000 C 
BRANCH   7   9
ATOM      9  O   UNL     1       7.070   1.608   1.512  0.00  0.00    +0.000 OA
BRANCH   9  10
ATOM     10  C   UNL     1       8.442   1.183   1.530  0.00  0.00    +0.000 C 
BRANCH  10  11
ATOM     11  C   UNL     1       9.162   1.593   0.225  0.00  0.00    +0.000 C 
BRANCH  11  12
ATOM     12  N   UNL     1       8.548   0.930  -0.937  0.00  0.00    +0.000 NA
ATOM     13  H   UNL     1       7.563   1.202  -0.959  0.00  0.00    +0.000 HD
ATOM     14  H   UNL     1       8.543  -0.078  -0.787  0.00  0.00    +0.000 HD
ENDBRANCH  11  12
BRANCH  11  16
ATOM     15  C   UNL     1       9.931   3.589  -1.181  0.00  0.00    +0.000 C 
ATOM     16  C   UNL     1       9.146   3.119   0.039  0.00  0.00    +0.000 C 
ENDBRANCH  11  16
ENDBRANCH  10  11
ENDBRANCH   9  10
ENDBRANCH   7   9
ENDBRANCH   1   7
BRANCH   4  17
ATOM     17  C   UNL     1       7.875   3.486   7.701  0.00  0.00    +0.000 C 
BRANCH  17  18
ATOM     18  O   UNL     1       9.254   3.847   7.702  0.00  0.00    +0.000 OA
BRANCH  18  19
ATOM     19  C   UNL     1       9.771   4.310   8.879  0.00  0.00    +0.000 A 
ATOM     20  C   UNL     1       9.059   4.561  10.052  0.00  0.00    +0.000 A 
ATOM     21  C   UNL     1       9.720   5.064  11.179  0.00  0.00    +0.000 A 
ATOM     22  C   UNL     1      11.098   5.305  11.146  0.00  0.00    +0.000 A 
ATOM     23  C   UNL     1      11.812   5.056   9.970  0.00  0.00    +0.000 A 
ATOM     24  C   UNL     1      11.146   4.558   8.846  0.00  0.00    +0.000 A 
BRANCH  22  25
ATOM     25  C   UNL     1      11.747   5.856  12.365  0.00  0.00    +0.000 C 
ATOM     26  N   UNL     1      13.089   5.633  12.518  0.00  0.00    +0.000 N 
ATOM     27  O   UNL     1      11.108   6.455  13.221  0.00  0.00    +0.000 OA
ATOM     28  H   UNL     1      13.598   4.957  11.971  0.00  0.00    +0.000 HD
ATOM     29  H   UNL     1      13.494   5.925  13.401  0.00  0.00    +0.000 HD
ENDBRANCH  22  25
ENDBRANCH  18  19
ENDBRANCH  17  18
ENDBRANCH   4  17
TORSDOF 10
