REMARK  Name = 
REMARK  5 active torsions:
REMARK  status: ('A' for Active; 'I' for Inactive)
REMARK    1  A    between atoms: C_2  and  C_4
REMARK    2  A    between atoms: C_7  and  O_8
REMARK    3  A    between atoms: O_8  and  C_9
REMARK    4  A    between atoms: C_9  and  C_10
REMARK    5  A    between atoms: C_15  and  C_16
REMARK                            x       y       z     vdW  Elec       q    Type
REMARK                         _______ _______ _______ _____ _____    ______ ____
ROOT
ATOM      1  C   UNL     1       4.574   4.571  -3.973  0.00  0.00    +0.000 C 
ENDROOT
BRANCH   1   2
ATOM      2  C   UNL     1       5.358   5.278  -5.055  0.00  0.00    +0.000 A 
ATOM      3  C   UNL     1       5.211   6.660  -5.223  0.00  0.00    +0.000 A 
ATOM      4  C   UNL     1       5.884   7.306  -6.248  0.00  0.00    +0.000 A 
ATOM      5  F   UNL     1       5.744   8.630  -6.398  0.00  0.00    +0.000 F 
ATOM      6  C   UNL     1       6.699   6.602  -7.130  0.00  0.00    +0.000 A 
ATOM      7  C   UNL     1       6.864   5.213  -7.002  0.00  0.00    +0.000 A 
ATOM      8  C   UNL     1       6.173   4.571  -5.954  0.00  0.00    +0.000 A 
BRANCH   7   9
ATOM      9  C   UNL     1       7.729   4.451  -7.928  0.00  0.00    +0.000 A 
ATOM     10  C   UNL     1       8.887   5.003  -8.491  0.00  0.00    +0.000 A 
ATOM     11  C   UNL     1       9.681   4.257  -9.362  0.00  0.00    +0.000 A 
ATOM     12  C   UNL     1       9.301   2.957  -9.645  0.00  0.00    +0.000 A 
ATOM     13  N   UNL     1       8.202   2.374  -9.132  0.00  0.00    +0.000 NA
ATOM     14  C   UNL     1       7.448   3.132  -8.296  0.00  0.00    +0.000 A 
ENDBRANCH   7   9
ENDBRANCH   1   2
BRANCH   1  15
ATOM     15  O   UNL     1       5.258   3.405  -3.497  0.00  0.00    +0.000 OA
BRANCH  15  19
ATOM     16  C   UNL     1       3.185   1.538  -0.469  0.00  0.00    +0.000 A 
ATOM     17  C   UNL     1       4.404   1.006  -0.895  0.00  0.00    +0.000 A 
ATOM     18  C   UNL     1       5.098   1.638  -1.929  0.00  0.00    +0.000 A 
ATOM     19  C   UNL     1       4.545   2.775  -2.496  0.00  0.00    +0.000 A 
ATOM     20  N   UNL     1       3.357   3.294  -2.114  0.00  0.00    +0.000 NA
ATOM     21  C   UNL     1       2.698   2.660  -1.118  0.00  0.00    +0.000 A 
BRANCH  16  23
ATOM     22  N   UNL     1       3.074   0.301   1.613  0.00  0.00    +0.000 N 
ATOM     23  C   UNL     1       2.389   0.963   0.633  0.00  0.00    +0.000 C 
ATOM     24  O   UNL     1       1.177   1.113   0.694  0.00  0.00    +0.000 OA
ATOM     25  H   UNL     1       2.538   0.016   2.421  0.00  0.00    +0.000 HD
ATOM     26  H   UNL     1       4.075   0.396   1.729  0.00  0.00    +0.000 HD
ENDBRANCH  16  23
ENDBRANCH  15  19
ENDBRANCH   1  15
TORSDOF 5
