REMARK  Name = 
REMARK  6 active torsions:
REMARK  status: ('A' for Active; 'I' for Inactive)
REMARK    1  A    between atoms: N_1  and  C_2
REMARK    2  A    between atoms: C_2  and  C_3
REMARK    3  A    between atoms: C_7  and  C_8
REMARK    4  A    between atoms: C_8  and  C_9
REMARK    5  A    between atoms: C_9  and  N_10
REMARK    6  A    between atoms: C_14  and  C_15
REMARK                            x       y       z     vdW  Elec       q    Type
REMARK                         _______ _______ _______ _____ _____    ______ ____
ROOT
ATOM      1  N   UNL     1       3.136  -7.080  -2.182  0.00  0.00    +0.000 N 
ATOM      2  C   UNL     1       3.810  -7.976  -3.009  0.00  0.00    +0.000 A 
ATOM      3  N   UNL     1       5.019  -7.646  -3.486  0.00  0.00    +0.000 NA
ATOM      4  C   UNL     1       5.603  -8.493  -4.357  0.00  0.00    +0.000 A 
ATOM      5  C   UNL     1       5.039  -9.680  -4.751  0.00  0.00    +0.000 A 
ATOM      6  C   UNL     1       3.815  -9.953  -4.188  0.00  0.00    +0.000 A 
ATOM      7  N   UNL     1       3.180  -9.119  -3.324  0.00  0.00    +0.000 NA
ATOM      8  H   UNL     1       2.151  -7.315  -2.244  0.00  0.00    +0.000 HD
ENDROOT
BRANCH   5   9
ATOM      9  C   UNL     1       5.721 -10.512  -5.751  0.00  0.00    +0.000 C 
ATOM     10  N   UNL     1       5.490 -11.857  -5.744  0.00  0.00    +0.000 N 
ATOM     11  O   UNL     1       6.488 -10.009  -6.562  0.00  0.00    +0.000 OA
ATOM     12  H   UNL     1       4.949 -12.352  -5.051  0.00  0.00    +0.000 HD
ATOM     13  H   UNL     1       6.013 -12.408  -6.417  0.00  0.00    +0.000 HD
ENDBRANCH   5   9
BRANCH   1  14
ATOM     14  C   UNL     1       3.485  -5.686  -2.461  0.00  0.00    +0.000 C 
BRANCH  14  15
ATOM     15  C   UNL     1       2.761  -4.731  -1.506  0.00  0.00    +0.000 C 
BRANCH  15  20
ATOM     16  C   UNL     1       4.644  -1.397  -1.367  0.00  0.00    +0.000 A 
ATOM     17  C   UNL     1       3.909  -0.635  -2.272  0.00  0.00    +0.000 A 
ATOM     18  C   UNL     1       2.780  -1.169  -2.898  0.00  0.00    +0.000 A 
ATOM     19  C   UNL     1       2.390  -2.486  -2.641  0.00  0.00    +0.000 A 
ATOM     20  C   UNL     1       3.126  -3.281  -1.753  0.00  0.00    +0.000 A 
ATOM     21  C   UNL     1       4.242  -2.722  -1.111  0.00  0.00    +0.000 A 
BRANCH  16  22
ATOM     22  C   UNL     1       5.875  -0.834  -0.699  0.00  0.00    +0.000 C 
BRANCH  22  23
ATOM     23  N   UNL     1       5.579   0.369   0.072  0.00  0.00    +0.000 NA
ATOM     24  H   UNL     1       6.423   0.668   0.556  0.00  0.00    +0.000 HD
ATOM     25  H   UNL     1       4.899   0.138   0.795  0.00  0.00    +0.000 HD
ENDBRANCH  22  23
ENDBRANCH  16  22
ENDBRANCH  15  20
ENDBRANCH  14  15
ENDBRANCH   1  14
TORSDOF 6
