REMARK  Name = 
REMARK  8 active torsions:
REMARK  status: ('A' for Active; 'I' for Inactive)
REMARK    1  A    between atoms: C_2  and  C_4
REMARK    2  A    between atoms: N_8  and  C_9
REMARK    3  A    between atoms: C_9  and  C_10
REMARK    4  A    between atoms: C_10  and  C_13
REMARK    5  A    between atoms: C_17  and  O_18
REMARK    6  A    between atoms: O_18  and  C_19
REMARK    7  A    between atoms: N_21  and  C_22
REMARK    8  A    between atoms: C_22  and  C_23
REMARK                            x       y       z     vdW  Elec       q    Type
REMARK                         _______ _______ _______ _____ _____    ______ ____
ROOT
ATOM      1  C   UNL     1       6.235   3.978   5.820  0.00  0.00    +0.000 C 
ATOM      2  F   UNL     1       5.286   3.351   5.063  0.00  0.00    +0.000 F 
ATOM      3  F   UNL     1       7.393   3.289   5.591  0.00  0.00    +0.000 F 
ENDROOT
BRANCH   1   4
ATOM      4  C   UNL     1       5.870   3.951   7.299  0.00  0.00    +0.000 A 
ATOM      5  C   UNL     1       5.699   2.725   7.952  0.00  0.00    +0.000 A 
ATOM      6  C   UNL     1       5.385   2.689   9.316  0.00  0.00    +0.000 A 
ATOM      7  C   UNL     1       5.241   3.868  10.054  0.00  0.00    +0.000 A 
ATOM      8  C   UNL     1       5.408   5.088   9.418  0.00  0.00    +0.000 A 
ATOM      9  C   UNL     1       5.716   5.123   8.060  0.00  0.00    +0.000 A 
BRANCH   8  10
ATOM     10  O   UNL     1       5.350   6.327  10.002  0.00  0.00    +0.000 OA
BRANCH  10  11
ATOM     11  C   UNL     1       4.567   6.509  11.198  0.00  0.00    +0.000 C 
ATOM     12  C   UNL     1       3.035   6.381  11.088  0.00  0.00    +0.000 C 
ATOM     13  N   UNL     1       2.857   7.713  11.691  0.00  0.00    +0.000 NA
ATOM     14  C   UNL     1       4.302   7.986  11.579  0.00  0.00    +0.000 C 
BRANCH  13  15
ATOM     15  C   UNL     1       2.463   7.606  13.116  0.00  0.00    +0.000 C 
BRANCH  15  16
ATOM     16  C   UNL     1       2.232   8.943  13.853  0.00  0.00    +0.000 C 
ATOM     17  F   UNL     1       2.424  10.026  13.069  0.00  0.00    +0.000 F 
ATOM     18  F   UNL     1       0.973   9.012  14.345  0.00  0.00    +0.000 F 
ATOM     19  F   UNL     1       3.081   9.053  14.904  0.00  0.00    +0.000 F 
ENDBRANCH  15  16
ENDBRANCH  13  15
ENDBRANCH  10  11
ENDBRANCH   8  10
ENDBRANCH   1   4
BRANCH   1  20
ATOM     20  C   UNL     1       6.404   5.421   5.282  0.00  0.00    +0.000 C 
BRANCH  20  25
ATOM     21  C   UNL     1       7.305   9.236   2.090  0.00  0.00    +0.000 A 
ATOM     22  C   UNL     1       7.506   9.155   3.461  0.00  0.00    +0.000 A 
ATOM     23  C   UNL     1       7.336   7.926   4.095  0.00  0.00    +0.000 A 
ATOM     24  C   UNL     1       6.960   6.803   3.354  0.00  0.00    +0.000 A 
ATOM     25  N   UNL     1       6.874   5.534   3.903  0.00  0.00    +0.000 N 
ATOM     26  N   UNL     1       6.726   6.883   2.033  0.00  0.00    +0.000 NA
ATOM     27  C   UNL     1       6.895   8.089   1.428  0.00  0.00    +0.000 A 
ATOM     28  H   UNL     1       6.447   4.902   3.227  0.00  0.00    +0.000 HD
BRANCH  21  30
ATOM     29  N   UNL     1       8.425  11.374   1.829  0.00  0.00    +0.000 N 
ATOM     30  C   UNL     1       7.512  10.481   1.328  0.00  0.00    +0.000 C 
ATOM     31  O   UNL     1       6.926  10.694   0.278  0.00  0.00    +0.000 OA
ATOM     32  H   UNL     1       8.641  12.170   1.243  0.00  0.00    +0.000 HD
ATOM     33  H   UNL     1       9.104  11.117   2.531  0.00  0.00    +0.000 HD
ENDBRANCH  21  30
ENDBRANCH  20  25
ENDBRANCH   1  20
TORSDOF 8
