REMARK  Name = 
REMARK  4 active torsions:
REMARK  status: ('A' for Active; 'I' for Inactive)
REMARK    1  A    between atoms: N_1  and  C_2
REMARK    2  A    between atoms: C_2  and  C_3
REMARK    3  A    between atoms: C_6  and  C_7
REMARK    4  A    between atoms: C_7  and  N_8
REMARK                            x       y       z     vdW  Elec       q    Type
REMARK                         _______ _______ _______ _____ _____    ______ ____
ROOT
ATOM      1  C   UNL     1       2.624   0.664  -1.477  0.00  0.00    +0.000 A 
ATOM      2  C   UNL     1       2.512  -0.246  -2.537  0.00  0.00    +0.000 A 
ATOM      3  C   UNL     1       3.162  -0.012  -3.751  0.00  0.00    +0.000 A 
ATOM      4  C   UNL     1       3.934   1.143  -3.937  0.00  0.00    +0.000 A 
ATOM      5  C   UNL     1       4.044   2.055  -2.877  0.00  0.00    +0.000 A 
ATOM      6  C   UNL     1       3.401   1.814  -1.657  0.00  0.00    +0.000 A 
ENDROOT
BRANCH   1   7
ATOM      7  C   UNL     1       1.890   0.425  -0.182  0.00  0.00    +0.000 C 
BRANCH   7   8
ATOM      8  N   UNL     1       2.310  -0.820   0.450  0.00  0.00    +0.000 NA
ATOM      9  H   UNL     1       1.880  -0.889   1.369  0.00  0.00    +0.000 HD
ATOM     10  H   UNL     1       3.317  -0.783   0.604  0.00  0.00    +0.000 HD
ENDBRANCH   7   8
ENDBRANCH   1   7
BRANCH   4  11
ATOM     11  C   UNL     1       4.537   1.466  -5.290  0.00  0.00    +0.000 C 
BRANCH  11  12
ATOM     12  N   UNL     1       3.633   2.331  -6.041  0.00  0.00    +0.000 N 
ATOM     13  N   UNL     1       3.760   3.677  -5.934  0.00  0.00    +0.000 NA
ATOM     14  C   UNL     1       2.519   4.112  -6.176  0.00  0.00    +0.000 A 
ATOM     15  C   UNL     1       1.635   3.071  -6.535  0.00  0.00    +0.000 A 
ATOM     16  C   UNL     1       0.258   2.951  -6.793  0.00  0.00    +0.000 A 
ATOM     17  C   UNL     1      -0.252   1.705  -7.166  0.00  0.00    +0.000 A 
ATOM     18  C   UNL     1       0.594   0.602  -7.323  0.00  0.00    +0.000 A 
ATOM     19  C   UNL     1       1.957   0.696  -7.041  0.00  0.00    +0.000 A 
ATOM     20  C   UNL     1       2.431   1.934  -6.597  0.00  0.00    +0.000 A 
ENDBRANCH  11  12
ENDBRANCH   4  11
TORSDOF 4
