REMARK  Name = 
REMARK  5 active torsions:
REMARK  status: ('A' for Active; 'I' for Inactive)
REMARK    1  A    between atoms: N_1  and  C_2
REMARK    2  A    between atoms: C_2  and  C_3
REMARK    3  A    between atoms: C_6  and  C_7
REMARK    4  A    between atoms: C_7  and  N_8
REMARK    5  A    between atoms: C_13  and  C_14
REMARK                            x       y       z     vdW  Elec       q    Type
REMARK                         _______ _______ _______ _____ _____    ______ ____
ROOT
ATOM      1  N   UNL     1       0.284  -2.692   4.496  0.00  0.00    +0.000 N 
ATOM      2  C   UNL     1       0.637  -3.285   5.687  0.00  0.00    +0.000 A 
ATOM      3  C   UNL     1       0.218  -4.595   5.653  0.00  0.00    +0.000 A 
ATOM      4  C   UNL     1      -0.502  -4.777   4.446  0.00  0.00    +0.000 A 
ATOM      5  C   UNL     1      -1.202  -5.853   3.878  0.00  0.00    +0.000 A 
ATOM      6  C   UNL     1      -1.863  -5.639   2.668  0.00  0.00    +0.000 A 
ATOM      7  C   UNL     1      -1.753  -4.382   2.071  0.00  0.00    +0.000 A 
ATOM      8  N   UNL     1      -1.053  -3.317   2.560  0.00  0.00    +0.000 NA
ATOM      9  C   UNL     1      -0.467  -3.571   3.747  0.00  0.00    +0.000 A 
ENDROOT
BRANCH   6  10
ATOM     10  C   UNL     1      -2.692  -6.680   2.016  0.00  0.00    +0.000 C 
ATOM     11  N   UNL     1      -2.818  -7.896   2.630  0.00  0.00    +0.000 N 
ATOM     12  O   UNL     1      -3.268  -6.466   0.954  0.00  0.00    +0.000 OA
ATOM     13  H   UNL     1      -2.415  -8.156   3.515  0.00  0.00    +0.000 HD
ATOM     14  H   UNL     1      -3.414  -8.577   2.175  0.00  0.00    +0.000 HD
ENDBRANCH   6  10
BRANCH   1  15
ATOM     15  C   UNL     1       0.672  -1.342   4.107  0.00  0.00    +0.000 C 
BRANCH  15  19
ATOM     16  C   UNL     1       3.076  -0.180   1.345  0.00  0.00    +0.000 C 
ATOM     17  C   UNL     1       2.662  -1.640   1.610  0.00  0.00    +0.000 C 
ATOM     18  C   UNL     1       2.907  -2.061   3.059  0.00  0.00    +0.000 C 
ATOM     19  C   UNL     1       2.207  -1.136   4.071  0.00  0.00    +0.000 C 
ATOM     20  C   UNL     1       2.577   0.332   3.798  0.00  0.00    +0.000 C 
ATOM     21  C   UNL     1       2.358   0.746   2.344  0.00  0.00    +0.000 C 
BRANCH  16  22
ATOM     22  C   UNL     1       4.616  -0.052   1.354  0.00  0.00    +0.000 C 
BRANCH  22  23
ATOM     23  N   UNL     1       5.080   1.302   1.071  0.00  0.00    +0.000 NA
ATOM     24  H   UNL     1       6.099   1.318   1.112  0.00  0.00    +0.000 HD
ATOM     25  H   UNL     1       4.767   1.935   1.804  0.00  0.00    +0.000 HD
ENDBRANCH  22  23
ENDBRANCH  16  22
ENDBRANCH  15  19
ENDBRANCH   1  15
TORSDOF 5
