REMARK  Name = 
REMARK  6 active torsions:
REMARK  status: ('A' for Active; 'I' for Inactive)
REMARK    1  A    between atoms: C_1  and  C_2
REMARK    2  A    between atoms: C_6  and  C_7
REMARK    3  A    between atoms: C_11  and  C_12
REMARK    4  A    between atoms: C_12  and  N_13
REMARK    5  A    between atoms: C_16  and  C_17
REMARK    6  A    between atoms: C_19  and  C_20
REMARK                            x       y       z     vdW  Elec       q    Type
REMARK                         _______ _______ _______ _____ _____    ______ ____
ROOT
ATOM      1  C   UNL     1      -4.599   4.192   1.732  0.00  0.00    +0.000 C 
ATOM      2  C   UNL     1      -6.037   4.121   1.242  0.00  0.00    +0.000 C 
ATOM      3  C   UNL     1      -5.492   5.419   1.740  0.00  0.00    +0.000 C 
ENDROOT
BRANCH   1   4
ATOM      4  N   UNL     1      -4.260   3.527   3.000  0.00  0.00    +0.000 N 
ATOM      5  C   UNL     1      -3.491   4.178   3.973  0.00  0.00    +0.000 A 
ATOM      6  N   UNL     1      -2.641   3.377   4.636  0.00  0.00    +0.000 NA
ATOM      7  C   UNL     1      -1.908   3.898   5.638  0.00  0.00    +0.000 A 
ATOM      8  C   UNL     1      -0.958   2.974   6.340  0.00  0.00    +0.000 C 
ATOM      9  C   UNL     1      -2.018   5.212   6.015  0.00  0.00    +0.000 A 
ATOM     10  C   UNL     1      -2.910   5.957   5.281  0.00  0.00    +0.000 A 
ATOM     11  N   UNL     1      -3.649   5.479   4.248  0.00  0.00    +0.000 NA
ATOM     12  H   UNL     1      -3.826   2.612   2.915  0.00  0.00    +0.000 HD
BRANCH  10  13
ATOM     13  C   UNL     1      -3.121   7.394   5.649  0.00  0.00    +0.000 C 
ATOM     14  N   UNL     1      -4.023   8.082   4.882  0.00  0.00    +0.000 N 
ATOM     15  O   UNL     1      -2.537   7.927   6.585  0.00  0.00    +0.000 OA
ATOM     16  H   UNL     1      -4.539   7.594   4.159  0.00  0.00    +0.000 HD
ATOM     17  H   UNL     1      -4.253   9.034   5.124  0.00  0.00    +0.000 HD
ENDBRANCH  10  13
ENDBRANCH   1   4
BRANCH   1  22
ATOM     18  C   UNL     1      -1.518   5.005  -0.444  0.00  0.00    +0.000 A 
ATOM     19  C   UNL     1      -1.474   3.869  -1.269  0.00  0.00    +0.000 A 
ATOM     20  C   UNL     1      -2.407   2.838  -1.127  0.00  0.00    +0.000 A 
ATOM     21  C   UNL     1      -3.414   2.935  -0.168  0.00  0.00    +0.000 A 
ATOM     22  C   UNL     1      -3.513   4.057   0.671  0.00  0.00    +0.000 A 
ATOM     23  C   UNL     1      -2.542   5.059   0.521  0.00  0.00    +0.000 A 
BRANCH  18  29
ATOM     24  C   UNL     1      -0.345   9.874  -0.020  0.00  0.00    +0.000 C 
ATOM     25  C   UNL     1       0.042   8.472  -0.364  0.00  0.00    +0.000 A 
ATOM     26  C   UNL     1       1.327   8.136  -0.759  0.00  0.00    +0.000 A 
ATOM     27  N   UNL     1       1.720   6.881  -1.057  0.00  0.00    +0.000 NA
ATOM     28  C   UNL     1       0.781   5.907  -0.947  0.00  0.00    +0.000 A 
ATOM     29  C   UNL     1      -0.545   6.108  -0.564  0.00  0.00    +0.000 A 
ATOM     30  C   UNL     1      -0.895   7.438  -0.276  0.00  0.00    +0.000 A 
ENDBRANCH  18  29
ENDBRANCH   1  22
TORSDOF 4
