REMARK  Name = 
REMARK  10 active torsions:
REMARK  status: ('A' for Active; 'I' for Inactive)
REMARK    1  A    between atoms: C_1  and  O_2
REMARK    2  A    between atoms: O_2  and  C_3
REMARK    3  A    between atoms: C_10  and  C_11
REMARK    4  A    between atoms: N_13  and  C_14
REMARK    5  A    between atoms: C_14  and  C_15
REMARK    6  A    between atoms: C_18  and  C_19
REMARK    7  A    between atoms: C_19  and  N_20
REMARK    8  A    between atoms: N_20  and  C_21
REMARK    9  A    between atoms: C_21  and  C_22
REMARK   10  A    between atoms: C_21  and  C_23
REMARK                            x       y       z     vdW  Elec       q    Type
REMARK                         _______ _______ _______ _____ _____    ______ ____
ROOT
ATOM      1  C   UNL     1       1.916   1.032   3.347  0.00  0.00    +0.000 A 
ATOM      2  C   UNL     1       0.565   0.659   3.325  0.00  0.00    +0.000 A 
ATOM      3  C   UNL     1      -0.443   1.629   3.240  0.00  0.00    +0.000 A 
ATOM      4  C   UNL     1      -0.124   2.994   3.172  0.00  0.00    +0.000 A 
ATOM      5  C   UNL     1       1.228   3.361   3.169  0.00  0.00    +0.000 A 
ATOM      6  C   UNL     1       2.235   2.392   3.247  0.00  0.00    +0.000 A 
ENDROOT
BRANCH   1   7
ATOM      7  C   UNL     1       3.007  -0.006   3.431  0.00  0.00    +0.000 C 
BRANCH   7  10
ATOM      8  C   UNL     1       4.379  -1.391   1.924  0.00  0.00    +0.000 C 
ATOM      9  O   UNL     1       4.943  -1.932   2.873  0.00  0.00    +0.000 OA
ATOM     10  N   UNL     1       3.422  -0.433   2.118  0.00  0.00    +0.000 N 
ATOM     11  H   UNL     1       3.015   0.044   1.327  0.00  0.00    +0.000 HD
BRANCH   8  19
ATOM     12  C   UNL     1       3.147  -0.386  -1.128  0.00  0.00    +0.000 A 
ATOM     13  N   UNL     1       2.862  -0.170  -2.428  0.00  0.00    +0.000 NA
ATOM     14  C   UNL     1       3.552  -0.854  -3.343  0.00  0.00    +0.000 A 
ATOM     15  N   UNL     1       4.513  -1.746  -3.118  0.00  0.00    +0.000 NA
ATOM     16  C   UNL     1       4.772  -1.924  -1.812  0.00  0.00    +0.000 A 
ATOM     17  S   UNL     1       5.971  -3.027  -1.339  0.00  0.00    +0.000 S 
ATOM     18  C   UNL     1       5.700  -2.694   0.305  0.00  0.00    +0.000 A 
ATOM     19  C   UNL     1       4.707  -1.748   0.532  0.00  0.00    +0.000 A 
ATOM     20  C   UNL     1       4.151  -1.289  -0.742  0.00  0.00    +0.000 A 
BRANCH  12  22
ATOM     21  C   UNL     1       1.169   0.760  -0.647  0.00  0.00    +0.000 C 
ATOM     22  O   UNL     1       2.453   0.346  -0.187  0.00  0.00    +0.000 OA
ENDBRANCH  12  22
ENDBRANCH   8  19
ENDBRANCH   7  10
ENDBRANCH   1   7
BRANCH   4  23
ATOM     23  C   UNL     1      -1.209   4.048   3.052  0.00  0.00    +0.000 C 
BRANCH  23  24
ATOM     24  N   UNL     1      -2.131   4.013   4.186  0.00  0.00    +0.000 NA
ATOM     25  H   UNL     1      -1.590   4.136   5.043  0.00  0.00    +0.000 HD
BRANCH  24  26
ATOM     26  C   UNL     1      -3.164   5.063   4.152  0.00  0.00    +0.000 C 
ATOM     27  C   UNL     1      -4.083   4.966   2.924  0.00  0.00    +0.000 C 
BRANCH  26  28
ATOM     28  C   UNL     1      -4.011   4.993   5.421  0.00  0.00    +0.000 A 
ATOM     29  C   UNL     1      -4.119   6.098   6.281  0.00  0.00    +0.000 A 
ATOM     30  C   UNL     1      -4.928   6.037   7.421  0.00  0.00    +0.000 A 
ATOM     31  C   UNL     1      -5.635   4.873   7.719  0.00  0.00    +0.000 A 
ATOM     32  C   UNL     1      -5.526   3.766   6.885  0.00  0.00    +0.000 A 
ATOM     33  C   UNL     1      -4.718   3.824   5.745  0.00  0.00    +0.000 A 
ENDBRANCH  26  28
ENDBRANCH  24  26
ENDBRANCH  23  24
ENDBRANCH   4  23
TORSDOF 8
