REMARK  Name = 
REMARK  9 active torsions:
REMARK  status: ('A' for Active; 'I' for Inactive)
REMARK    1  A    between atoms: C_1  and  C_2
REMARK    2  A    between atoms: C_2  and  C_3
REMARK    3  A    between atoms: C_3  and  N_4
REMARK    4  A    between atoms: C_3  and  C_26
REMARK    5  A    between atoms: N_4  and  C_5
REMARK    6  A    between atoms: C_5  and  C_6
REMARK    7  A    between atoms: C_9  and  C_10
REMARK    8  A    between atoms: C_10  and  N_11
REMARK    9  A    between atoms: C_12  and  C_14
REMARK                            x       y       z     vdW  Elec       q    Type
REMARK                         _______ _______ _______ _____ _____    ______ ____
ROOT
ATOM      1  C   UNL     1       0.545   3.155  -2.406  0.00  0.00    +0.000 A 
ATOM      2  C   UNL     1      -0.726   3.326  -2.969  0.00  0.00    +0.000 A 
ATOM      3  C   UNL     1      -1.184   4.601  -3.311  0.00  0.00    +0.000 A 
ATOM      4  C   UNL     1      -0.381   5.729  -3.095  0.00  0.00    +0.000 A 
ATOM      5  C   UNL     1       0.876   5.563  -2.503  0.00  0.00    +0.000 A 
ATOM      6  C   UNL     1       1.337   4.290  -2.171  0.00  0.00    +0.000 A 
ENDROOT
BRANCH   1   7
ATOM      7  C   UNL     1       1.058   1.789  -2.006  0.00  0.00    +0.000 C 
BRANCH   7   8
ATOM      8  N   UNL     1       1.165   0.885  -3.144  0.00  0.00    +0.000 NA
ATOM      9  H   UNL     1       0.245   0.837  -3.584  0.00  0.00    +0.000 HD
BRANCH   8  10
ATOM     10  C   UNL     1       1.537  -0.507  -2.802  0.00  0.00    +0.000 C 
BRANCH  10  11
ATOM     11  C   UNL     1       1.374  -1.413  -4.041  0.00  0.00    +0.000 A 
ATOM     12  C   UNL     1       1.713  -0.948  -5.315  0.00  0.00    +0.000 A 
ATOM     13  C   UNL     1       1.569  -1.792  -6.413  0.00  0.00    +0.000 A 
ATOM     14  C   UNL     1       1.113  -3.086  -6.215  0.00  0.00    +0.000 A 
ATOM     15  C   UNL     1       0.813  -3.482  -4.922  0.00  0.00    +0.000 A 
ATOM     16  N   UNL     1       0.925  -2.680  -3.837  0.00  0.00    +0.000 NA
ENDBRANCH  10  11
BRANCH  10  18
ATOM     17  C   UNL     1       3.333  -0.087  -0.939  0.00  0.00    +0.000 C 
ATOM     18  C   UNL     1       2.974  -0.738  -2.268  0.00  0.00    +0.000 C 
ENDBRANCH  10  18
ENDBRANCH   8  10
ENDBRANCH   7   8
ENDBRANCH   1   7
BRANCH   4  19
ATOM     19  C   UNL     1      -0.874   7.107  -3.437  0.00  0.00    +0.000 C 
BRANCH  19  20
ATOM     20  N   UNL     1      -1.564   7.695  -2.318  0.00  0.00    +0.000 N 
ATOM     21  C   UNL     1      -2.175   8.915  -2.429  0.00  0.00    +0.000 C 
ATOM     22  O   UNL     1      -2.188   9.541  -3.486  0.00  0.00    +0.000 OA
ATOM     23  H   UNL     1      -1.380   7.302  -1.400  0.00  0.00    +0.000 HD
BRANCH  21  24
ATOM     24  C   UNL     1      -2.870   9.412  -1.237  0.00  0.00    +0.000 A 
ATOM     25  C   UNL     1      -3.880  10.354  -1.381  0.00  0.00    +0.000 A 
ATOM     26  S   UNL     1      -4.620  10.795   0.089  0.00  0.00    +0.000 S 
ATOM     27  C   UNL     1      -3.588   9.774   0.977  0.00  0.00    +0.000 A 
ATOM     28  N   UNL     1      -3.679   9.696   2.332  0.00  0.00    +0.000 NA
ATOM     29  C   UNL     1      -2.817   8.907   2.881  0.00  0.00    +0.000 A 
ATOM     30  N   UNL     1      -1.879   8.181   2.195  0.00  0.00    +0.000 N 
ATOM     31  C   UNL     1      -1.763   8.205   0.828  0.00  0.00    +0.000 A 
ATOM     32  O   UNL     1      -0.935   7.513   0.245  0.00  0.00    +0.000 OA
ATOM     33  C   UNL     1      -2.701   9.093   0.161  0.00  0.00    +0.000 A 
ATOM     34  H   UNL     1      -1.238   7.575   2.686  0.00  0.00    +0.000 HD
ENDBRANCH  21  24
ENDBRANCH  19  20
ENDBRANCH   4  19
TORSDOF 8
