REMARK  Name = 
REMARK  5 active torsions:
REMARK  status: ('A' for Active; 'I' for Inactive)
REMARK    1  A    between atoms: C_2  and  C_4
REMARK    2  A    between atoms: N_8  and  C_9
REMARK    3  A    between atoms: C_9  and  C_10
REMARK    4  A    between atoms: C_14  and  C_15
REMARK    5  A    between atoms: C_18  and  C_19
REMARK                            x       y       z     vdW  Elec       q    Type
REMARK                         _______ _______ _______ _____ _____    ______ ____
ROOT
ATOM      1  C   UNL     1       5.646   3.895  -6.143  0.00  0.00    +0.000 A 
ATOM      2  C   UNL     1       6.309   2.954  -6.929  0.00  0.00    +0.000 A 
ATOM      3  C   UNL     1       7.022   3.399  -8.029  0.00  0.00    +0.000 A 
ATOM      4  N   UNL     1       7.132   4.700  -8.381  0.00  0.00    +0.000 NA
ATOM      5  C   UNL     1       6.522   5.622  -7.594  0.00  0.00    +0.000 A 
ATOM      6  C   UNL     1       5.771   5.247  -6.480  0.00  0.00    +0.000 A 
ENDROOT
BRANCH   5   7
ATOM      7  C   UNL     1       6.699   7.036  -7.991  0.00  0.00    +0.000 A 
ATOM      8  C   UNL     1       6.885   7.395  -9.338  0.00  0.00    +0.000 A 
ATOM      9  C   UNL     1       7.052   8.732  -9.723  0.00  0.00    +0.000 A 
ATOM     10  C   UNL     1       7.043   9.754  -8.767  0.00  0.00    +0.000 A 
ATOM     11  C   UNL     1       6.863   9.411  -7.421  0.00  0.00    +0.000 A 
ATOM     12  C   UNL     1       6.698   8.075  -7.043  0.00  0.00    +0.000 A 
BRANCH  10  13
ATOM     13  C   UNL     1       7.233  11.199  -9.151  0.00  0.00    +0.000 C 
ATOM     14  F   UNL     1       7.409  11.394 -10.487  0.00  0.00    +0.000 F 
ATOM     15  F   UNL     1       6.170  11.974  -8.798  0.00  0.00    +0.000 F 
ATOM     16  F   UNL     1       8.318  11.760  -8.546  0.00  0.00    +0.000 F 
ENDBRANCH  10  13
ENDBRANCH   5   7
BRANCH   1  17
ATOM     17  C   UNL     1       4.808   3.480  -4.962  0.00  0.00    +0.000 C 
BRANCH  17  22
ATOM     18  C   UNL     1       4.033   2.444  -0.060  0.00  0.00    +0.000 A 
ATOM     19  C   UNL     1       3.384   1.948  -1.184  0.00  0.00    +0.000 A 
ATOM     20  C   UNL     1       3.890   2.250  -2.449  0.00  0.00    +0.000 A 
ATOM     21  C   UNL     1       5.020   3.056  -2.571  0.00  0.00    +0.000 A 
ATOM     22  N   UNL     1       5.636   3.308  -3.787  0.00  0.00    +0.000 N 
ATOM     23  N   UNL     1       5.626   3.581  -1.489  0.00  0.00    +0.000 NA
ATOM     24  C   UNL     1       5.124   3.274  -0.261  0.00  0.00    +0.000 A 
ATOM     25  H   UNL     1       6.342   4.025  -3.633  0.00  0.00    +0.000 HD
BRANCH  18  27
ATOM     26  N   UNL     1       2.984   0.907   1.497  0.00  0.00    +0.000 N 
ATOM     27  C   UNL     1       3.610   2.110   1.314  0.00  0.00    +0.000 C 
ATOM     28  O   UNL     1       3.847   2.853   2.257  0.00  0.00    +0.000 OA
ATOM     29  H   UNL     1       2.805   0.632   2.454  0.00  0.00    +0.000 HD
ATOM     30  H   UNL     1       3.002   0.173   0.801  0.00  0.00    +0.000 HD
ENDBRANCH  18  27
ENDBRANCH  17  22
ENDBRANCH   1  17
TORSDOF 5
