REMARK  Name = 
REMARK  5 active torsions:
REMARK  status: ('A' for Active; 'I' for Inactive)
REMARK    1  A    between atoms: C_2  and  C_4
REMARK    2  A    between atoms: C_7  and  N_8
REMARK    3  A    between atoms: N_8  and  C_9
REMARK    4  A    between atoms: C_9  and  C_10
REMARK    5  A    between atoms: C_10  and  C_13
REMARK                            x       y       z     vdW  Elec       q    Type
REMARK                         _______ _______ _______ _____ _____    ______ ____
ROOT
ATOM      1  C   UNL     1       2.892   1.050   6.599  0.00  0.00    +0.000 A 
ATOM      2  C   UNL     1       2.247  -0.159   6.392  0.00  0.00    +0.000 A 
ATOM      3  N   UNL     1       2.834  -1.199   5.742  0.00  0.00    +0.000 NA
ATOM      4  C   UNL     1       4.095  -0.997   5.307  0.00  0.00    +0.000 A 
ATOM      5  C   UNL     1       4.705   0.254   5.468  0.00  0.00    +0.000 A 
ATOM      6  N   UNL     1       4.136   1.307   6.115  0.00  0.00    +0.000 NA
ENDROOT
BRANCH   1   8
ATOM      7  N   UNL     1       1.063   1.976   7.896  0.00  0.00    +0.000 NA
ATOM      8  C   UNL     1       2.259   2.127   7.421  0.00  0.00    +0.000 C 
ATOM      9  N   UNL     1       2.960   3.273   7.676  0.00  0.00    +0.000 N 
ATOM     10  H   UNL     1       0.833   2.789   8.472  0.00  0.00    +0.000 HD
ATOM     11  H   UNL     1       2.429   4.120   7.826  0.00  0.00    +0.000 HD
ATOM     12  H   UNL     1       3.774   3.400   7.075  0.00  0.00    +0.000 HD
ENDBRANCH   1   8
BRANCH   4  13
ATOM     13  N   UNL     1       4.772  -2.024   4.634  0.00  0.00    +0.000 N 
ATOM     14  H   UNL     1       4.646  -1.904   3.634  0.00  0.00    +0.000 HD
BRANCH  13  15
ATOM     15  C   UNL     1       4.416  -3.386   5.109  0.00  0.00    +0.000 C 
BRANCH  15  16
ATOM     16  C   UNL     1       5.266  -3.813   6.343  0.00  0.00    +0.000 C 
ATOM     17  F   UNL     1       6.583  -3.810   5.960  0.00  0.00    +0.000 F 
ATOM     18  F   UNL     1       5.182  -2.846   7.308  0.00  0.00    +0.000 F 
BRANCH  16  19
ATOM     19  C   UNL     1       4.863  -5.166   6.897  0.00  0.00    +0.000 A 
ATOM     20  C   UNL     1       5.465  -6.344   6.416  0.00  0.00    +0.000 A 
ATOM     21  C   UNL     1       5.156  -7.582   6.984  0.00  0.00    +0.000 A 
ATOM     22  C   UNL     1       4.237  -7.656   8.033  0.00  0.00    +0.000 A 
ATOM     23  C   UNL     1       3.623  -6.499   8.502  0.00  0.00    +0.000 A 
ATOM     24  C   UNL     1       3.930  -5.262   7.937  0.00  0.00    +0.000 A 
ENDBRANCH  16  19
ENDBRANCH  15  16
ENDBRANCH  13  15
ENDBRANCH   4  13
TORSDOF 5
