REMARK  Name = 
REMARK  9 active torsions:
REMARK  status: ('A' for Active; 'I' for Inactive)
REMARK    1  A    between atoms: C_1  and  C_2
REMARK    2  A    between atoms: C_2  and  C_3
REMARK    3  A    between atoms: C_2  and  C_4
REMARK    4  A    between atoms: C_2  and  C_17
REMARK    5  A    between atoms: C_4  and  N_5
REMARK    6  A    between atoms: N_5  and  C_6
REMARK    7  A    between atoms: C_10  and  O_11
REMARK    8  A    between atoms: O_11  and  C_12
REMARK    9  A    between atoms: C_20  and  C_21
REMARK                            x       y       z     vdW  Elec       q    Type
REMARK                         _______ _______ _______ _____ _____    ______ ____
ROOT
ATOM      1  C   UNL     1       1.009  -0.069   0.214  0.00  0.00    +0.000 C 
ATOM      2  C   UNL     1       2.543  -0.068   0.035  0.00  0.00    +0.000 C 
ATOM      3  C   UNL     1       2.874  -1.006  -1.151  0.00  0.00    +0.000 C 
ENDROOT
BRANCH   2   4
ATOM      4  C   UNL     1       3.204  -0.535   1.362  0.00  0.00    +0.000 A 
ATOM      5  C   UNL     1       3.995  -1.694   1.446  0.00  0.00    +0.000 A 
ATOM      6  C   UNL     1       4.606  -2.073   2.648  0.00  0.00    +0.000 A 
ATOM      7  C   UNL     1       4.455  -1.298   3.799  0.00  0.00    +0.000 A 
ATOM      8  C   UNL     1       3.650  -0.159   3.750  0.00  0.00    +0.000 A 
ATOM      9  C   UNL     1       3.031   0.212   2.547  0.00  0.00    +0.000 A 
BRANCH   7  10
ATOM     10  C   UNL     1       5.149  -1.736   5.041  0.00  0.00    +0.000 C 
ATOM     11  N   UNL     1       5.438  -0.780   5.972  0.00  0.00    +0.000 N 
ATOM     12  O   UNL     1       5.491  -2.899   5.210  0.00  0.00    +0.000 OA
ATOM     13  H   UNL     1       5.400   0.205   5.769  0.00  0.00    +0.000 HD
ATOM     14  H   UNL     1       6.014  -1.077   6.752  0.00  0.00    +0.000 HD
ENDBRANCH   7  10
ENDBRANCH   2   4
BRANCH   2  15
ATOM     15  C   UNL     1       3.064   1.369  -0.297  0.00  0.00    +0.000 C 
BRANCH  15  16
ATOM     16  N   UNL     1       2.452   1.975  -1.486  0.00  0.00    +0.000 N 
ATOM     17  H   UNL     1       2.350   1.355  -2.285  0.00  0.00    +0.000 HD
BRANCH  16  18
ATOM     18  C   UNL     1       2.860   3.254  -1.895  0.00  0.00    +0.000 A 
ATOM     19  C   UNL     1       3.694   4.078  -1.131  0.00  0.00    +0.000 A 
ATOM     20  C   UNL     1       4.002   5.378  -1.539  0.00  0.00    +0.000 A 
ATOM     21  C   UNL     1       3.455   5.893  -2.710  0.00  0.00    +0.000 A 
ATOM     22  C   UNL     1       2.598   5.107  -3.474  0.00  0.00    +0.000 A 
ATOM     23  C   UNL     1       2.311   3.796  -3.070  0.00  0.00    +0.000 A 
BRANCH  22  24
ATOM     24  O   UNL     1       2.030   5.532  -4.652  0.00  0.00    +0.000 OA
BRANCH  24  25
ATOM     25  C   UNL     1       1.679   6.928  -4.763  0.00  0.00    +0.000 C 
ATOM     26  C   UNL     1       1.046   7.344  -6.100  0.00  0.00    +0.000 C 
ATOM     27  C   UNL     1       2.061   8.480  -6.066  0.00  0.00    +0.000 C 
ATOM     28  O   UNL     1       2.799   7.831  -5.006  0.00  0.00    +0.000 OA
ENDBRANCH  24  25
ENDBRANCH  22  24
ENDBRANCH  16  18
ENDBRANCH  15  16
ENDBRANCH   2  15
TORSDOF 7
