REMARK  Name = 
REMARK  5 active torsions:
REMARK  status: ('A' for Active; 'I' for Inactive)
REMARK    1  A    between atoms: N_1  and  C_2
REMARK    2  A    between atoms: C_2  and  C_3
REMARK    3  A    between atoms: C_3  and  C_4
REMARK    4  A    between atoms: C_7  and  C_8
REMARK    5  A    between atoms: C_8  and  N_9
REMARK                            x       y       z     vdW  Elec       q    Type
REMARK                         _______ _______ _______ _____ _____    ______ ____
ROOT
ATOM      1  C   UNL     1       4.481  -0.499  -1.347  0.00  0.00    +0.000 A 
ATOM      2  C   UNL     1       5.175   0.706  -1.477  0.00  0.00    +0.000 A 
ATOM      3  C   UNL     1       6.570   0.707  -1.479  0.00  0.00    +0.000 A 
ATOM      4  C   UNL     1       7.249  -0.498  -1.329  0.00  0.00    +0.000 A 
ATOM      5  N   UNL     1       6.594  -1.686  -1.238  0.00  0.00    +0.000 NA
ATOM      6  C   UNL     1       5.241  -1.660  -1.261  0.00  0.00    +0.000 A 
ENDROOT
BRANCH   1   7
ATOM      7  C   UNL     1       2.980  -0.545  -1.304  0.00  0.00    +0.000 C 
BRANCH   7   8
ATOM      8  C   UNL     1       2.363  -0.651  -2.701  0.00  0.00    +0.000 C 
BRANCH   8   9
ATOM      9  N   UNL     1       0.904  -0.675  -2.625  0.00  0.00    +0.000 NA
ATOM     10  H   UNL     1       0.519  -0.727  -3.569  0.00  0.00    +0.000 HD
ATOM     11  H   UNL     1       0.561   0.201  -2.231  0.00  0.00    +0.000 HD
ENDBRANCH   8   9
ENDBRANCH   7   8
ENDBRANCH   1   7
BRANCH   4  12
ATOM     12  C   UNL     1       8.751  -0.545  -1.202  0.00  0.00    +0.000 C 
BRANCH  12  13
ATOM     13  N   UNL     1       9.411  -0.655  -2.489  0.00  0.00    +0.000 N 
ATOM     14  C   UNL     1       9.297  -1.712  -3.351  0.00  0.00    +0.000 A 
ATOM     15  N   UNL     1       9.953  -1.499  -4.470  0.00  0.00    +0.000 NA
ATOM     16  C   UNL     1      10.523  -0.259  -4.325  0.00  0.00    +0.000 A 
ATOM     17  C   UNL     1      11.282   0.481  -5.241  0.00  0.00    +0.000 A 
ATOM     18  C   UNL     1      11.739   1.736  -4.846  0.00  0.00    +0.000 A 
ATOM     19  F   UNL     1      12.425   2.487  -5.719  0.00  0.00    +0.000 F 
ATOM     20  C   UNL     1      11.493   2.242  -3.572  0.00  0.00    +0.000 A 
ATOM     21  C   UNL     1      10.748   1.512  -2.642  0.00  0.00    +0.000 A 
ATOM     22  C   UNL     1      10.246   0.275  -3.066  0.00  0.00    +0.000 A 
ENDBRANCH  12  13
ENDBRANCH   4  12
TORSDOF 5
