REMARK  Name = 
REMARK  4 active torsions:
REMARK  status: ('A' for Active; 'I' for Inactive)
REMARK    1  A    between atoms: C_2  and  C_4
REMARK    2  A    between atoms: N_8  and  C_9
REMARK    3  A    between atoms: C_9  and  C_10
REMARK    4  A    between atoms: C_14  and  C_15
REMARK                            x       y       z     vdW  Elec       q    Type
REMARK                         _______ _______ _______ _____ _____    ______ ____
ROOT
ATOM      1  C   UNL     1       5.101   3.536   4.730  0.00  0.00    +0.000 C 
ENDROOT
BRANCH   1   6
ATOM      2  C   UNL     1       7.773   1.563   0.823  0.00  0.00    +0.000 A 
ATOM      3  C   UNL     1       7.370   0.957   2.009  0.00  0.00    +0.000 A 
ATOM      4  C   UNL     1       6.505   1.640   2.862  0.00  0.00    +0.000 A 
ATOM      5  C   UNL     1       6.074   2.920   2.535  0.00  0.00    +0.000 A 
ATOM      6  N   UNL     1       5.168   3.633   3.288  0.00  0.00    +0.000 N 
ATOM      7  N   UNL     1       6.464   3.519   1.391  0.00  0.00    +0.000 NA
ATOM      8  C   UNL     1       7.306   2.841   0.566  0.00  0.00    +0.000 A 
ATOM      9  H   UNL     1       5.088   4.566   2.898  0.00  0.00    +0.000 HD
BRANCH   2  11
ATOM     10  N   UNL     1       8.707  -0.464  -0.136  0.00  0.00    +0.000 N 
ATOM     11  C   UNL     1       8.678   0.903  -0.141  0.00  0.00    +0.000 C 
ATOM     12  O   UNL     1       9.347   1.555  -0.933  0.00  0.00    +0.000 OA
ATOM     13  H   UNL     1       9.264  -0.906  -0.858  0.00  0.00    +0.000 HD
ATOM     14  H   UNL     1       8.002  -1.026   0.315  0.00  0.00    +0.000 HD
ENDBRANCH   2  11
ENDBRANCH   1   6
BRANCH   1  15
ATOM     15  C   UNL     1       6.060   4.463   5.442  0.00  0.00    +0.000 A 
ATOM     16  C   UNL     1       5.960   5.851   5.290  0.00  0.00    +0.000 A 
ATOM     17  C   UNL     1       6.749   6.701   6.061  0.00  0.00    +0.000 A 
ATOM     18  C   UNL     1       7.632   6.175   7.007  0.00  0.00    +0.000 A 
ATOM     19  C   UNL     1       7.754   4.788   7.201  0.00  0.00    +0.000 A 
ATOM     20  C   UNL     1       6.978   3.948   6.378  0.00  0.00    +0.000 A 
BRANCH  19  21
ATOM     21  C   UNL     1       8.581   4.236   8.295  0.00  0.00    +0.000 A 
ATOM     22  C   UNL     1       9.314   3.050   8.169  0.00  0.00    +0.000 A 
ATOM     23  N   UNL     1      10.021   2.456   9.167  0.00  0.00    +0.000 NA
ATOM     24  C   UNL     1      10.013   3.084  10.365  0.00  0.00    +0.000 A 
ATOM     25  C   UNL     1       9.341   4.268  10.595  0.00  0.00    +0.000 A 
ATOM     26  F   UNL     1       9.363   4.844  11.803  0.00  0.00    +0.000 F 
ATOM     27  C   UNL     1       8.622   4.848   9.558  0.00  0.00    +0.000 A 
ENDBRANCH  19  21
ENDBRANCH   1  15
TORSDOF 4
