REMARK  Name = 
REMARK  5 active torsions:
REMARK  status: ('A' for Active; 'I' for Inactive)
REMARK    1  A    between atoms: C_1  and  N_2
REMARK    2  A    between atoms: N_2  and  C_3
REMARK    3  A    between atoms: C_3  and  C_4
REMARK    4  A    between atoms: C_12  and  N_13
REMARK    5  A    between atoms: C_17  and  C_18
REMARK                            x       y       z     vdW  Elec       q    Type
REMARK                         _______ _______ _______ _____ _____    ______ ____
ROOT
ATOM      1  C   UNL     1       2.979   0.960  -0.989  0.00  0.00    +0.000 C 
ATOM      2  C   UNL     1       2.803   2.400  -0.444  0.00  0.00    +0.000 C 
ATOM      3  C   UNL     1       2.754   3.322  -1.667  0.00  0.00    +0.000 C 
ATOM      4  C   UNL     1       2.408   2.435  -2.872  0.00  0.00    +0.000 C 
ATOM      5  C   UNL     1       2.138   1.040  -2.284  0.00  0.00    +0.000 C 
ENDROOT
BRANCH   4   6
ATOM      6  N   UNL     1       3.523   2.401  -3.820  0.00  0.00    +0.000 N 
ATOM      7  C   UNL     1       3.560   3.433  -4.766  0.00  0.00    +0.000 A 
ATOM      8  C   UNL     1       4.610   3.454  -5.680  0.00  0.00    +0.000 A 
ATOM      9  C   UNL     1       4.687   4.484  -6.621  0.00  0.00    +0.000 A 
ATOM     10  C   UNL     1       3.715   5.484  -6.631  0.00  0.00    +0.000 A 
ATOM     11  C   UNL     1       2.714   5.392  -5.680  0.00  0.00    +0.000 A 
ATOM     12  N   UNL     1       2.625   4.404  -4.754  0.00  0.00    +0.000 NA
ATOM     13  H   UNL     1       3.634   1.507  -4.288  0.00  0.00    +0.000 HD
BRANCH  10  14
ATOM     14  C   UNL     1       3.800   6.575  -7.632  0.00  0.00    +0.000 C 
ATOM     15  N   UNL     1       2.847   7.554  -7.635  0.00  0.00    +0.000 N 
ATOM     16  O   UNL     1       4.714   6.607  -8.452  0.00  0.00    +0.000 OA
ATOM     17  H   UNL     1       2.064   7.625  -7.005  0.00  0.00    +0.000 HD
ATOM     18  H   UNL     1       2.953   8.280  -8.331  0.00  0.00    +0.000 HD
ENDBRANCH  10  14
ENDBRANCH   4   6
BRANCH   1  19
ATOM     19  C   UNL     1       4.448   0.586  -1.340  0.00  0.00    +0.000 A 
ATOM     20  C   UNL     1       4.746  -0.682  -1.889  0.00  0.00    +0.000 A 
ATOM     21  C   UNL     1       6.060  -1.066  -2.184  0.00  0.00    +0.000 A 
ATOM     22  C   UNL     1       7.111  -0.186  -1.957  0.00  0.00    +0.000 A 
ATOM     23  C   UNL     1       6.847   1.076  -1.439  0.00  0.00    +0.000 A 
ATOM     24  C   UNL     1       5.534   1.454  -1.132  0.00  0.00    +0.000 A 
ENDBRANCH   1  19
BRANCH   1  26
ATOM     25  C   UNL     1       1.096   0.006   0.389  0.00  0.00    +0.000 C 
ATOM     26  N   UNL     1       2.495  -0.040  -0.007  0.00  0.00    +0.000 NA
ATOM     27  H   UNL     1       2.689  -0.975  -0.359  0.00  0.00    +0.000 HD
ENDBRANCH   1  26
TORSDOF 4
