REMARK  Name = 
REMARK  9 active torsions:
REMARK  status: ('A' for Active; 'I' for Inactive)
REMARK    1  A    between atoms: C_1  and  C_2
REMARK    2  A    between atoms: C_2  and  C_3
REMARK    3  A    between atoms: C_2  and  N_4
REMARK    4  A    between atoms: N_4  and  C_5
REMARK    5  A    between atoms: C_8  and  C_9
REMARK    6  A    between atoms: C_13  and  S_14
REMARK    7  A    between atoms: S_14  and  C_15
REMARK    8  A    between atoms: C_15  and  C_16
REMARK    9  A    between atoms: C_16  and  C_17
REMARK                            x       y       z     vdW  Elec       q    Type
REMARK                         _______ _______ _______ _____ _____    ______ ____
ROOT
ATOM      1  C   UNL     1       4.336  -0.900   1.331  0.00  0.00    +0.000 A 
ATOM      2  N   UNL     1       5.170   0.139   1.072  0.00  0.00    +0.000 NA
ATOM      3  C   UNL     1       6.485  -0.039   1.343  0.00  0.00    +0.000 A 
ATOM      4  C   UNL     1       6.978  -1.229   1.837  0.00  0.00    +0.000 A 
ATOM      5  N   UNL     1       6.183  -2.296   2.103  0.00  0.00    +0.000 NA
ATOM      6  C   UNL     1       4.858  -2.123   1.851  0.00  0.00    +0.000 A 
ENDROOT
BRANCH   4   7
ATOM      7  C   UNL     1       8.433  -1.386   2.090  0.00  0.00    +0.000 C 
ATOM      8  N   UNL     1       8.836  -2.619   2.531  0.00  0.00    +0.000 N 
ATOM      9  O   UNL     1       9.227  -0.472   1.916  0.00  0.00    +0.000 OA
ATOM     10  H   UNL     1       8.161  -3.361   2.674  0.00  0.00    +0.000 HD
ATOM     11  H   UNL     1       9.814  -2.779   2.724  0.00  0.00    +0.000 HD
ENDBRANCH   4   7
BRANCH   1  12
ATOM     12  N   UNL     1       2.970  -0.712   1.082  0.00  0.00    +0.000 N 
ATOM     13  H   UNL     1       2.443  -0.756   1.950  0.00  0.00    +0.000 HD
BRANCH  12  15
ATOM     14  C   UNL     1       1.194   0.026  -0.391  0.00  0.00    +0.000 C 
ATOM     15  C   UNL     1       2.569   0.379   0.183  0.00  0.00    +0.000 C 
ATOM     16  C   UNL     1       2.491   1.741   0.875  0.00  0.00    +0.000 C 
ENDBRANCH  12  15
ENDBRANCH   1  12
BRANCH   6  17
ATOM     17  S   UNL     1       3.839  -3.576   2.182  0.00  0.00    +0.000 S 
BRANCH  17  18
ATOM     18  C   UNL     1       5.141  -4.790   2.662  0.00  0.00    +0.000 C 
BRANCH  18  19
ATOM     19  C   UNL     1       4.582  -6.180   2.987  0.00  0.00    +0.000 C 
BRANCH  19  20
ATOM     20  C   UNL     1       5.677  -7.137   3.406  0.00  0.00    +0.000 A 
ATOM     21  C   UNL     1       6.363  -7.924   2.475  0.00  0.00    +0.000 A 
ATOM     22  C   UNL     1       7.366  -8.791   2.903  0.00  0.00    +0.000 A 
ATOM     23  C   UNL     1       7.666  -8.835   4.255  0.00  0.00    +0.000 A 
ATOM     24  N   UNL     1       7.041  -8.082   5.182  0.00  0.00    +0.000 NA
ATOM     25  C   UNL     1       6.064  -7.253   4.739  0.00  0.00    +0.000 A 
ENDBRANCH  19  20
ENDBRANCH  18  19
ENDBRANCH  17  18
ENDBRANCH   6  17
TORSDOF 7
