REMARK  Name = 
REMARK  8 active torsions:
REMARK  status: ('A' for Active; 'I' for Inactive)
REMARK    1  A    between atoms: C_1  and  C_2
REMARK    2  A    between atoms: C_2  and  N_3
REMARK    3  A    between atoms: C_2  and  C_18
REMARK    4  A    between atoms: N_3  and  C_4
REMARK    5  A    between atoms: C_7  and  C_8
REMARK    6  A    between atoms: C_8  and  N_9
REMARK    7  A    between atoms: N_9  and  C_10
REMARK    8  A    between atoms: C_13  and  N_14
REMARK                            x       y       z     vdW  Elec       q    Type
REMARK                         _______ _______ _______ _____ _____    ______ ____
ROOT
ATOM      1  C   UNL     1      -0.981   5.366  -9.435  0.00  0.00    +0.000 A 
ATOM      2  C   UNL     1       0.185   5.875  -8.865  0.00  0.00    +0.000 A 
ATOM      3  C   UNL     1       0.218   6.248  -7.521  0.00  0.00    +0.000 A 
ATOM      4  C   UNL     1      -0.946   6.139  -6.768  0.00  0.00    +0.000 A 
ATOM      5  N   UNL     1      -2.109   5.681  -7.293  0.00  0.00    +0.000 NA
ATOM      6  C   UNL     1      -2.099   5.323  -8.601  0.00  0.00    +0.000 A 
ENDROOT
BRANCH   1   7
ATOM      7  N   UNL     1      -0.969   5.062 -10.800  0.00  0.00    +0.000 N 
ATOM      8  H   UNL     1      -1.088   5.933 -11.320  0.00  0.00    +0.000 HD
BRANCH   7  10
ATOM      9  C   UNL     1      -1.563   2.671 -10.715  0.00  0.00    +0.000 C 
ATOM     10  C   UNL     1      -1.884   4.034 -11.345  0.00  0.00    +0.000 C 
BRANCH  10  11
ATOM     11  C   UNL     1      -1.803   3.942 -12.862  0.00  0.00    +0.000 A 
ATOM     12  C   UNL     1      -0.648   4.162 -13.597  0.00  0.00    +0.000 A 
ATOM     13  S   UNL     1      -0.902   4.095 -15.284  0.00  0.00    +0.000 S 
ATOM     14  C   UNL     1      -2.554   3.734 -15.082  0.00  0.00    +0.000 A 
ATOM     15  N   UNL     1      -3.383   3.581 -16.149  0.00  0.00    +0.000 NA
ATOM     16  C   UNL     1      -4.603   3.295 -15.836  0.00  0.00    +0.000 A 
ATOM     17  N   UNL     1      -5.067   3.129 -14.554  0.00  0.00    +0.000 N 
ATOM     18  C   UNL     1      -4.262   3.248 -13.444  0.00  0.00    +0.000 A 
ATOM     19  O   UNL     1      -4.678   3.033 -12.311  0.00  0.00    +0.000 OA
ATOM     20  C   UNL     1      -2.894   3.627 -13.747  0.00  0.00    +0.000 A 
ATOM     21  H   UNL     1      -6.027   2.869 -14.384  0.00  0.00    +0.000 HD
ENDBRANCH  10  11
ENDBRANCH   7  10
ENDBRANCH   1   7
BRANCH   4  22
ATOM     22  C   UNL     1      -0.956   6.525  -5.302  0.00  0.00    +0.000 C 
BRANCH  22  23
ATOM     23  N   UNL     1      -1.238   5.413  -4.376  0.00  0.00    +0.000 NA
ATOM     24  H   UNL     1      -2.145   5.033  -4.664  0.00  0.00    +0.000 HD
BRANCH  23  25
ATOM     25  C   UNL     1      -0.253   4.323  -4.417  0.00  0.00    +0.000 C 
ATOM     26  C   UNL     1       1.159   4.740  -3.978  0.00  0.00    +0.000 C 
ATOM     27  C   UNL     1       1.241   4.515  -2.465  0.00  0.00    +0.000 C 
ATOM     28  C   UNL     1      -0.089   3.879  -2.061  0.00  0.00    +0.000 C 
ATOM     29  C   UNL     1      -0.610   3.266  -3.359  0.00  0.00    +0.000 C 
BRANCH  28  30
ATOM     30  N   UNL     1       0.063   2.919  -0.975  0.00  0.00    +0.000 NA
ATOM     31  H   UNL     1       0.672   2.155  -1.266  0.00  0.00    +0.000 HD
ATOM     32  H   UNL     1      -0.841   2.497  -0.767  0.00  0.00    +0.000 HD
ENDBRANCH  28  30
ENDBRANCH  23  25
ENDBRANCH  22  23
ENDBRANCH   4  22
TORSDOF 7
