REMARK  Name = 
REMARK  10 active torsions:
REMARK  status: ('A' for Active; 'I' for Inactive)
REMARK    1  A    between atoms: C_1  and  C_2
REMARK    2  A    between atoms: C_2  and  C_3
REMARK    3  A    between atoms: C_3  and  N_4
REMARK    4  A    between atoms: N_4  and  C_5
REMARK    5  A    between atoms: C_5  and  C_6
REMARK    6  A    between atoms: C_9  and  C_10
REMARK    7  A    between atoms: C_10  and  C_11
REMARK    8  A    between atoms: C_14  and  C_15
REMARK    9  A    between atoms: C_15  and  N_16
REMARK   10  A    between atoms: C_17  and  C_19
REMARK                            x       y       z     vdW  Elec       q    Type
REMARK                         _______ _______ _______ _____ _____    ______ ____
ROOT
ATOM      1  C   UNL     1      11.482  -2.942  -0.349  0.00  0.00    +0.000 A 
ATOM      2  C   UNL     1      11.244  -4.280  -0.015  0.00  0.00    +0.000 A 
ATOM      3  C   UNL     1      11.844  -4.859   1.110  0.00  0.00    +0.000 A 
ATOM      4  C   UNL     1      12.716  -4.117   1.918  0.00  0.00    +0.000 A 
ATOM      5  C   UNL     1      12.999  -2.793   1.548  0.00  0.00    +0.000 A 
ATOM      6  C   UNL     1      12.379  -2.207   0.437  0.00  0.00    +0.000 A 
ENDROOT
BRANCH   1   7
ATOM      7  C   UNL     1      10.767  -2.320  -1.525  0.00  0.00    +0.000 C 
BRANCH   7  11
ATOM      8  C   UNL     1       7.110  -0.305  -0.659  0.00  0.00    +0.000 A 
ATOM      9  C   UNL     1       7.049  -1.655  -0.993  0.00  0.00    +0.000 A 
ATOM     10  C   UNL     1       8.235  -2.340  -1.248  0.00  0.00    +0.000 A 
ATOM     11  C   UNL     1       9.453  -1.662  -1.193  0.00  0.00    +0.000 A 
ATOM     12  C   UNL     1       9.413  -0.316  -0.839  0.00  0.00    +0.000 A 
ATOM     13  N   UNL     1       8.281   0.374  -0.572  0.00  0.00    +0.000 NA
BRANCH   8  14
ATOM     14  C   UNL     1       5.847   0.420  -0.231  0.00  0.00    +0.000 C 
BRANCH  14  15
ATOM     15  N   UNL     1       5.203  -0.200   0.942  0.00  0.00    +0.000 NA
ATOM     16  H   UNL     1       4.349   0.313   1.161  0.00  0.00    +0.000 HD
BRANCH  15  17
ATOM     17  C   UNL     1       6.105  -0.165   2.096  0.00  0.00    +0.000 C 
BRANCH  17  19
ATOM     18  C   UNL     1       6.350  -0.802   4.503  0.00  0.00    +0.000 C 
ATOM     19  C   UNL     1       5.427  -0.815   3.297  0.00  0.00    +0.000 C 
ENDBRANCH  17  19
ENDBRANCH  15  17
ENDBRANCH  14  15
ENDBRANCH   8  14
ENDBRANCH   7  11
ENDBRANCH   1   7
BRANCH   4  20
ATOM     20  C   UNL     1      13.357  -4.702   3.156  0.00  0.00    +0.000 C 
BRANCH  20  21
ATOM     21  N   UNL     1      14.631  -5.309   2.870  0.00  0.00    +0.000 N 
ATOM     22  C   UNL     1      15.381  -5.918   3.848  0.00  0.00    +0.000 C 
ATOM     23  O   UNL     1      15.014  -6.002   5.014  0.00  0.00    +0.000 OA
ATOM     24  H   UNL     1      15.118  -4.953   2.054  0.00  0.00    +0.000 HD
BRANCH  22  25
ATOM     25  C   UNL     1      16.640  -6.523   3.386  0.00  0.00    +0.000 A 
ATOM     26  C   UNL     1      17.176  -7.618   4.050  0.00  0.00    +0.000 A 
ATOM     27  S   UNL     1      18.614  -8.207   3.342  0.00  0.00    +0.000 S 
ATOM     28  C   UNL     1      18.595  -6.988   2.153  0.00  0.00    +0.000 A 
ATOM     29  N   UNL     1      19.588  -6.893   1.229  0.00  0.00    +0.000 NA
ATOM     30  C   UNL     1      19.462  -5.900   0.412  0.00  0.00    +0.000 A 
ATOM     31  N   UNL     1      18.427  -5.001   0.427  0.00  0.00    +0.000 N 
ATOM     32  C   UNL     1      17.374  -5.086   1.306  0.00  0.00    +0.000 A 
ATOM     33  O   UNL     1      16.429  -4.312   1.244  0.00  0.00    +0.000 OA
ATOM     34  C   UNL     1      17.489  -6.165   2.274  0.00  0.00    +0.000 A 
ATOM     35  H   UNL     1      18.374  -4.259  -0.256  0.00  0.00    +0.000 HD
ENDBRANCH  22  25
ENDBRANCH  20  21
ENDBRANCH   4  20
TORSDOF 9
