REMARK  Name = 
REMARK  10 active torsions:
REMARK  status: ('A' for Active; 'I' for Inactive)
REMARK    1  A    between atoms: N_1  and  C_2
REMARK    2  A    between atoms: C_2  and  C_3
REMARK    3  A    between atoms: C_3  and  N_4
REMARK    4  A    between atoms: C_3  and  C_20
REMARK    5  A    between atoms: N_4  and  C_5
REMARK    6  A    between atoms: C_5  and  C_6
REMARK    7  A    between atoms: C_9  and  C_10
REMARK    8  A    between atoms: C_10  and  N_11
REMARK    9  A    between atoms: N_11  and  C_12
REMARK   10  A    between atoms: C_12  and  C_13
REMARK                            x       y       z     vdW  Elec       q    Type
REMARK                         _______ _______ _______ _____ _____    ______ ____
ROOT
ATOM      1  N   UNL     1       3.883   1.852  -0.398  0.00  0.00    +0.000 NA
ATOM      2  H   UNL     1       3.914   2.783  -0.814  0.00  0.00    +0.000 HD
ENDROOT
BRANCH   1   3
ATOM      3  C   UNL     1       4.466   1.917   0.957  0.00  0.00    +0.000 C 
BRANCH   3   4
ATOM      4  C   UNL     1       5.864   2.513   0.810  0.00  0.00    +0.000 A 
ATOM      5  C   UNL     1       6.705   2.320  -0.280  0.00  0.00    +0.000 A 
ATOM      6  S   UNL     1       8.196   3.137  -0.145  0.00  0.00    +0.000 S 
ATOM      7  C   UNL     1       7.770   3.787   1.368  0.00  0.00    +0.000 A 
ATOM      8  N   UNL     1       8.615   4.621   2.038  0.00  0.00    +0.000 NA
ATOM      9  C   UNL     1       8.149   5.053   3.160  0.00  0.00    +0.000 A 
ATOM     10  N   UNL     1       6.923   4.721   3.684  0.00  0.00    +0.000 N 
ATOM     11  C   UNL     1       6.054   3.850   3.065  0.00  0.00    +0.000 A 
ATOM     12  O   UNL     1       4.978   3.543   3.579  0.00  0.00    +0.000 OA
ATOM     13  C   UNL     1       6.516   3.370   1.774  0.00  0.00    +0.000 A 
ATOM     14  H   UNL     1       6.626   5.090   4.574  0.00  0.00    +0.000 HD
ENDBRANCH   3   4
BRANCH   3  15
ATOM     15  C   UNL     1       4.499   0.513   1.645  0.00  0.00    +0.000 C 
BRANCH  15  16
ATOM     16  N   UNL     1       5.040   0.481   3.006  0.00  0.00    +0.000 NA
ATOM     17  H   UNL     1       4.817  -0.420   3.427  0.00  0.00    +0.000 HD
ATOM     18  H   UNL     1       4.573   1.194   3.572  0.00  0.00    +0.000 HD
ENDBRANCH  15  16
ENDBRANCH   3  15
ENDBRANCH   1   3
BRANCH   1  19
ATOM     19  C   UNL     1       2.509   1.366  -0.432  0.00  0.00    +0.000 C 
BRANCH  19  20
ATOM     20  C   UNL     1       2.016   1.283  -1.847  0.00  0.00    +0.000 A 
ATOM     21  C   UNL     1       2.677   0.492  -2.793  0.00  0.00    +0.000 A 
ATOM     22  C   UNL     1       2.174   0.393  -4.083  0.00  0.00    +0.000 A 
ATOM     23  C   UNL     1       1.007   1.080  -4.391  0.00  0.00    +0.000 A 
ATOM     24  N   UNL     1       0.335   1.841  -3.482  0.00  0.00    +0.000 NA
ATOM     25  C   UNL     1       0.862   1.940  -2.246  0.00  0.00    +0.000 A 
BRANCH  23  26
ATOM     26  C   UNL     1       0.424   0.980  -5.786  0.00  0.00    +0.000 C 
BRANCH  26  27
ATOM     27  N   UNL     1      -0.338   2.167  -6.192  0.00  0.00    +0.000 NA
ATOM     28  H   UNL     1      -1.014   2.336  -5.444  0.00  0.00    +0.000 HD
BRANCH  27  29
ATOM     29  C   UNL     1       0.525   3.358  -6.285  0.00  0.00    +0.000 C 
BRANCH  29  30
ATOM     30  C   UNL     1      -0.313   4.570  -6.713  0.00  0.00    +0.000 C 
ATOM     31  C   UNL     1      -0.950   4.378  -8.078  0.00  0.00    +0.000 C 
ATOM     32  C   UNL     1      -1.317   5.793  -8.471  0.00  0.00    +0.000 C 
ATOM     33  C   UNL     1      -0.257   6.661  -7.803  0.00  0.00    +0.000 C 
ATOM     34  N   UNL     1       0.488   5.791  -6.889  0.00  0.00    +0.000 NA
ATOM     35  H   UNL     1       0.640   6.247  -5.991  0.00  0.00    +0.000 HD
ENDBRANCH  29  30
ENDBRANCH  27  29
ENDBRANCH  26  27
ENDBRANCH  23  26
ENDBRANCH  19  20
ENDBRANCH   1  19
TORSDOF 10
