REMARK  Name = 
REMARK  9 active torsions:
REMARK  status: ('A' for Active; 'I' for Inactive)
REMARK    1  A    between atoms: C_1  and  O_2
REMARK    2  A    between atoms: O_2  and  C_3
REMARK    3  A    between atoms: C_10  and  C_11
REMARK    4  A    between atoms: N_13  and  C_14
REMARK    5  A    between atoms: C_14  and  C_15
REMARK    6  A    between atoms: C_18  and  N_19
REMARK    7  A    between atoms: N_19  and  C_20
REMARK    8  A    between atoms: C_20  and  C_21
REMARK    9  A    between atoms: C_21  and  N_22
REMARK                            x       y       z     vdW  Elec       q    Type
REMARK                         _______ _______ _______ _____ _____    ______ ____
ROOT
ATOM      1  C   UNL     1       2.961   0.011  -3.369  0.00  0.00    +0.000 C 
ENDROOT
BRANCH   1   2
ATOM      2  C   UNL     1       1.754  -0.850  -3.114  0.00  0.00    +0.000 A 
ATOM      3  C   UNL     1       1.858  -2.244  -3.135  0.00  0.00    +0.000 A 
ATOM      4  C   UNL     1       0.749  -3.047  -2.841  0.00  0.00    +0.000 A 
ATOM      5  C   UNL     1      -0.483  -2.480  -2.497  0.00  0.00    +0.000 A 
ATOM      6  C   UNL     1      -0.603  -1.089  -2.586  0.00  0.00    +0.000 A 
ATOM      7  C   UNL     1       0.500  -0.278  -2.877  0.00  0.00    +0.000 A 
BRANCH   5   8
ATOM      8  N   UNL     1      -1.641  -3.219  -2.208  0.00  0.00    +0.000 N 
ATOM      9  H   UNL     1      -2.177  -3.330  -3.068  0.00  0.00    +0.000 HD
BRANCH   8  10
ATOM     10  C   UNL     1      -1.502  -4.512  -1.521  0.00  0.00    +0.000 C 
BRANCH  10  11
ATOM     11  C   UNL     1      -1.323  -4.336   0.008  0.00  0.00    +0.000 C 
BRANCH  11  12
ATOM     12  N   UNL     1      -1.036  -5.616   0.693  0.00  0.00    +0.000 NA
ATOM     13  C   UNL     1      -1.027  -5.471   2.158  0.00  0.00    +0.000 C 
ATOM     14  C   UNL     1       0.428  -5.308   2.549  0.00  0.00    +0.000 C 
ATOM     15  C   UNL     1       1.146  -6.203   1.563  0.00  0.00    +0.000 C 
ATOM     16  C   UNL     1       0.283  -6.155   0.313  0.00  0.00    +0.000 C 
ENDBRANCH  11  12
ENDBRANCH  10  11
ENDBRANCH   8  10
ENDBRANCH   5   8
ENDBRANCH   1   2
BRANCH   1  19
ATOM     17  C   UNL     1       4.228   0.962  -5.238  0.00  0.00    +0.000 C 
ATOM     18  O   UNL     1       5.044   1.453  -4.464  0.00  0.00    +0.000 OA
ATOM     19  N   UNL     1       3.160   0.238  -4.775  0.00  0.00    +0.000 N 
ATOM     20  H   UNL     1       2.471  -0.129  -5.418  0.00  0.00    +0.000 HD
BRANCH  17  28
ATOM     21  C   UNL     1       2.377  -0.140  -7.933  0.00  0.00    +0.000 A 
ATOM     22  N   UNL     1       1.903  -0.494  -9.145  0.00  0.00    +0.000 NA
ATOM     23  C   UNL     1       2.585  -0.107 -10.226  0.00  0.00    +0.000 A 
ATOM     24  N   UNL     1       3.700   0.616 -10.253  0.00  0.00    +0.000 NA
ATOM     25  C   UNL     1       4.145   0.940  -9.027  0.00  0.00    +0.000 A 
ATOM     26  S   UNL     1       5.554   1.874  -8.873  0.00  0.00    +0.000 S 
ATOM     27  C   UNL     1       5.458   1.824  -7.178  0.00  0.00    +0.000 A 
ATOM     28  C   UNL     1       4.371   1.102  -6.694  0.00  0.00    +0.000 A 
ATOM     29  C   UNL     1       3.569   0.598  -7.808  0.00  0.00    +0.000 A 
BRANCH  21  31
ATOM     30  C   UNL     1       0.427  -1.167  -7.109  0.00  0.00    +0.000 C 
ATOM     31  O   UNL     1       1.658  -0.508  -6.814  0.00  0.00    +0.000 OA
ENDBRANCH  21  31
ENDBRANCH  17  28
ENDBRANCH   1  19
TORSDOF 8
