REMARK  Name = 
REMARK  8 active torsions:
REMARK  status: ('A' for Active; 'I' for Inactive)
REMARK    1  A    between atoms: C_1  and  C_2
REMARK    2  A    between atoms: C_2  and  N_3
REMARK    3  A    between atoms: C_2  and  C_25
REMARK    4  A    between atoms: N_3  and  C_4
REMARK    5  A    between atoms: C_4  and  C_5
REMARK    6  A    between atoms: C_8  and  C_9
REMARK    7  A    between atoms: C_9  and  N_10
REMARK    8  A    between atoms: C_11  and  C_13
REMARK                            x       y       z     vdW  Elec       q    Type
REMARK                         _______ _______ _______ _____ _____    ______ ____
ROOT
ATOM      1  C   UNL     1       2.869  -0.639   3.647  0.00  0.00    +0.000 A 
ATOM      2  C   UNL     1       3.235   0.088   4.789  0.00  0.00    +0.000 A 
ATOM      3  C   UNL     1       3.549  -0.569   5.984  0.00  0.00    +0.000 A 
ATOM      4  C   UNL     1       3.503  -1.967   6.063  0.00  0.00    +0.000 A 
ATOM      5  C   UNL     1       3.129  -2.694   4.927  0.00  0.00    +0.000 A 
ATOM      6  C   UNL     1       2.824  -2.038   3.731  0.00  0.00    +0.000 A 
ENDROOT
BRANCH   1   7
ATOM      7  C   UNL     1       2.456   0.055   2.367  0.00  0.00    +0.000 C 
BRANCH   7   8
ATOM      8  N   UNL     1       3.524   0.880   1.807  0.00  0.00    +0.000 NA
ATOM      9  H   UNL     1       3.798   1.574   2.504  0.00  0.00    +0.000 HD
BRANCH   8  11
ATOM     10  C   UNL     1       2.708   0.709  -0.561  0.00  0.00    +0.000 C 
ATOM     11  C   UNL     1       3.101   1.629   0.603  0.00  0.00    +0.000 C 
BRANCH  11  12
ATOM     12  C   UNL     1       4.209   2.585   0.156  0.00  0.00    +0.000 A 
ATOM     13  C   UNL     1       5.446   2.091  -0.263  0.00  0.00    +0.000 A 
ATOM     14  C   UNL     1       6.439   2.984  -0.651  0.00  0.00    +0.000 A 
ATOM     15  C   UNL     1       6.181   4.347  -0.604  0.00  0.00    +0.000 A 
ATOM     16  C   UNL     1       4.933   4.761  -0.170  0.00  0.00    +0.000 A 
ATOM     17  N   UNL     1       3.946   3.917   0.211  0.00  0.00    +0.000 NA
ENDBRANCH  11  12
ENDBRANCH   8  11
ENDBRANCH   7   8
ENDBRANCH   1   7
BRANCH   4  18
ATOM     18  C   UNL     1       3.789  -2.682   7.357  0.00  0.00    +0.000 C 
BRANCH  18  19
ATOM     19  N   UNL     1       2.581  -2.864   8.123  0.00  0.00    +0.000 N 
ATOM     20  C   UNL     1       2.612  -3.423   9.374  0.00  0.00    +0.000 C 
ATOM     21  O   UNL     1       3.665  -3.746   9.917  0.00  0.00    +0.000 OA
ATOM     22  H   UNL     1       1.703  -2.820   7.615  0.00  0.00    +0.000 HD
BRANCH  20  23
ATOM     23  C   UNL     1       1.322  -3.563  10.062  0.00  0.00    +0.000 A 
ATOM     24  C   UNL     1       1.289  -3.631  11.449  0.00  0.00    +0.000 A 
ATOM     25  S   UNL     1      -0.284  -3.763  12.092  0.00  0.00    +0.000 S 
ATOM     26  C   UNL     1      -0.975  -3.781  10.537  0.00  0.00    +0.000 A 
ATOM     27  N   UNL     1      -2.321  -3.908  10.373  0.00  0.00    +0.000 NA
ATOM     28  C   UNL     1      -2.707  -3.932   9.141  0.00  0.00    +0.000 A 
ATOM     29  N   UNL     1      -1.870  -3.833   8.060  0.00  0.00    +0.000 N 
ATOM     30  C   UNL     1      -0.512  -3.677   8.175  0.00  0.00    +0.000 A 
ATOM     31  O   UNL     1       0.201  -3.548   7.186  0.00  0.00    +0.000 OA
ATOM     32  C   UNL     1      -0.021  -3.661   9.543  0.00  0.00    +0.000 A 
ATOM     33  H   UNL     1      -2.240  -3.846   7.119  0.00  0.00    +0.000 HD
ENDBRANCH  20  23
ENDBRANCH  18  19
ENDBRANCH   4  18
TORSDOF 7
