REMARK  Name = 
REMARK  5 active torsions:
REMARK  status: ('A' for Active; 'I' for Inactive)
REMARK    1  A    between atoms: N_1  and  C_2
REMARK    2  A    between atoms: C_2  and  C_3
REMARK    3  A    between atoms: C_6  and  O_7
REMARK    4  A    between atoms: O_7  and  C_8
REMARK    5  A    between atoms: C_8  and  C_9
REMARK                            x       y       z     vdW  Elec       q    Type
REMARK                         _______ _______ _______ _____ _____    ______ ____
ROOT
ATOM      1  C   UNL     1       2.764   1.037   1.082  0.00  0.00    +0.000 A 
ATOM      2  C   UNL     1       2.690   2.403   0.777  0.00  0.00    +0.000 A 
ATOM      3  C   UNL     1       2.946   3.372   1.754  0.00  0.00    +0.000 A 
ATOM      4  C   UNL     1       3.272   2.987   3.054  0.00  0.00    +0.000 A 
ATOM      5  C   UNL     1       3.388   1.629   3.355  0.00  0.00    +0.000 A 
ATOM      6  C   UNL     1       3.127   0.659   2.381  0.00  0.00    +0.000 A 
ENDROOT
BRANCH   1   7
ATOM      7  C   UNL     1       2.422   0.001   0.042  0.00  0.00    +0.000 C 
BRANCH   7   8
ATOM      8  N   UNL     1       3.259   0.121  -1.146  0.00  0.00    +0.000 NA
ATOM      9  H   UNL     1       3.074  -0.666  -1.764  0.00  0.00    +0.000 HD
ATOM     10  H   UNL     1       4.236   0.044  -0.865  0.00  0.00    +0.000 HD
ENDBRANCH   7   8
ENDBRANCH   1   7
BRANCH   4  11
ATOM     11  O   UNL     1       3.543   3.846   4.084  0.00  0.00    +0.000 OA
BRANCH  11  12
ATOM     12  C   UNL     1       2.810   5.078   4.055  0.00  0.00    +0.000 C 
BRANCH  12  13
ATOM     13  C   UNL     1       3.142   5.916   5.272  0.00  0.00    +0.000 A 
ATOM     14  N   UNL     1       4.174   6.784   5.170  0.00  0.00    +0.000 NA
ATOM     15  C   UNL     1       4.436   7.540   6.251  0.00  0.00    +0.000 A 
ATOM     16  C   UNL     1       3.712   7.474   7.416  0.00  0.00    +0.000 A 
ATOM     17  C   UNL     1       2.681   6.565   7.423  0.00  0.00    +0.000 A 
ATOM     18  N   UNL     1       2.371   5.781   6.373  0.00  0.00    +0.000 NA
ENDBRANCH  12  13
ENDBRANCH  11  12
ENDBRANCH   4  11
TORSDOF 5
