REMARK  Name = 
REMARK  7 active torsions:
REMARK  status: ('A' for Active; 'I' for Inactive)
REMARK    1  A    between atoms: C_1  and  C_2
REMARK    2  A    between atoms: C_2  and  C_3
REMARK    3  A    between atoms: C_2  and  C_15
REMARK    4  A    between atoms: C_3  and  N_4
REMARK    5  A    between atoms: N_4  and  C_5
REMARK    6  A    between atoms: C_8  and  C_9
REMARK    7  A    between atoms: C_19  and  O_20
REMARK                            x       y       z     vdW  Elec       q    Type
REMARK                         _______ _______ _______ _____ _____    ______ ____
ROOT
ATOM      1  N   UNL     1       2.823   0.441   2.486  0.00  0.00    +0.000 N 
ATOM      2  H   UNL     1       1.818   0.598   2.608  0.00  0.00    +0.000 HD
ENDROOT
BRANCH   1   3
ATOM      3  C   UNL     1       3.347   0.054   3.732  0.00  0.00    +0.000 A 
ATOM      4  N   UNL     1       4.076  -1.084   3.809  0.00  0.00    +0.000 NA
ATOM      5  C   UNL     1       4.574  -1.448   5.015  0.00  0.00    +0.000 A 
ATOM      6  C   UNL     1       4.414  -0.714   6.178  0.00  0.00    +0.000 A 
ATOM      7  C   UNL     1       3.688   0.475   6.091  0.00  0.00    +0.000 A 
ATOM      8  C   UNL     1       3.143   0.860   4.865  0.00  0.00    +0.000 A 
ATOM      9 CL   UNL     1       2.232   2.327   4.794  0.00  0.00    +0.000 Cl
BRANCH   6  10
ATOM     10  C   UNL     1       4.978  -1.126   7.483  0.00  0.00    +0.000 C 
ATOM     11  N   UNL     1       5.634  -2.323   7.578  0.00  0.00    +0.000 N 
ATOM     12  O   UNL     1       4.856  -0.415   8.474  0.00  0.00    +0.000 OA
ATOM     13  H   UNL     1       5.751  -3.000   6.845  0.00  0.00    +0.000 HD
ATOM     14  H   UNL     1       5.984  -2.566   8.497  0.00  0.00    +0.000 HD
ENDBRANCH   6  10
ENDBRANCH   1   3
BRANCH   1  15
ATOM     15  C   UNL     1       3.025  -0.529   1.420  0.00  0.00    +0.000 C 
BRANCH  15  17
ATOM     16  C   UNL     1       2.796   1.119  -0.543  0.00  0.00    +0.000 C 
ATOM     17  C   UNL     1       2.263  -0.050   0.220  0.00  0.00    +0.000 C 
BRANCH  17  18
ATOM     18  C   UNL     1       0.833  -0.358   0.163  0.00  0.00    +0.000 A 
ATOM     19  C   UNL     1       0.133  -0.457  -1.032  0.00  0.00    +0.000 A 
ATOM     20  C   UNL     1      -1.239  -0.701  -0.981  0.00  0.00    +0.000 A 
ATOM     21  C   UNL     1      -1.866  -0.827   0.255  0.00  0.00    +0.000 A 
ATOM     22  C   UNL     1      -1.085  -0.711   1.389  0.00  0.00    +0.000 A 
ATOM     23  N   UNL     1       0.235  -0.488   1.369  0.00  0.00    +0.000 NA
BRANCH  22  24
ATOM     24  O   UNL     1      -1.616  -0.806   2.639  0.00  0.00    +0.000 OA
ATOM     25  H   UNL     1      -2.580  -0.836   2.553  0.00  0.00    +0.000 HD
ENDBRANCH  22  24
ENDBRANCH  17  18
ENDBRANCH  15  17
ENDBRANCH   1  15
TORSDOF 6
