REMARK  Name = 
REMARK  10 active torsions:
REMARK  status: ('A' for Active; 'I' for Inactive)
REMARK    1  A    between atoms: C_1  and  C_2
REMARK    2  A    between atoms: C_2  and  C_3
REMARK    3  A    between atoms: C_2  and  C_4
REMARK    4  A    between atoms: C_2  and  C_19
REMARK    5  A    between atoms: C_4  and  O_5
REMARK    6  A    between atoms: O_5  and  C_6
REMARK    7  A    between atoms: C_10  and  C_11
REMARK    8  A    between atoms: C_12  and  C_13
REMARK    9  A    between atoms: C_13  and  O_14
REMARK   10  A    between atoms: C_23  and  C_24
REMARK                            x       y       z     vdW  Elec       q    Type
REMARK                         _______ _______ _______ _____ _____    ______ ____
ROOT
ATOM      1  O   UNL     1       2.682  -0.317   2.519  0.00  0.00    +0.000 OA
ENDROOT
BRANCH   1   2
ATOM      2  C   UNL     1       3.087  -1.023   3.621  0.00  0.00    +0.000 A 
ATOM      3  C   UNL     1       3.881  -2.167   3.628  0.00  0.00    +0.000 A 
ATOM      4  N   UNL     1       4.270  -2.825   4.747  0.00  0.00    +0.000 NA
ATOM      5  C   UNL     1       3.841  -2.316   5.924  0.00  0.00    +0.000 A 
ATOM      6  C   UNL     1       3.044  -1.184   6.032  0.00  0.00    +0.000 A 
ATOM      7  C   UNL     1       2.663  -0.533   4.858  0.00  0.00    +0.000 A 
BRANCH   6   8
ATOM      8  C   UNL     1       2.630  -0.709   7.316  0.00  0.00    +0.000 C 
ATOM      9  C   UNL     1       2.282  -0.321   8.400  0.00  0.00    +0.000 C 
BRANCH   9  10
ATOM     10  C   UNL     1       1.836   0.163   9.691  0.00  0.00    +0.000 C 
ATOM     11  C   UNL     1       2.949   0.743  10.610  0.00  0.00    +0.000 C 
ATOM     12  C   UNL     1       2.246   0.055  11.797  0.00  0.00    +0.000 C 
ATOM     13  C   UNL     1       1.630  -0.927  10.781  0.00  0.00    +0.000 C 
BRANCH  10  14
ATOM     14  O   UNL     1       0.702   1.032   9.483  0.00  0.00    +0.000 OA
ATOM     15  H   UNL     1       1.021   1.710   8.863  0.00  0.00    +0.000 HD
ENDBRANCH  10  14
ENDBRANCH   9  10
ENDBRANCH   6   8
ENDBRANCH   1   2
BRANCH   1  16
ATOM     16  C   UNL     1       3.078  -0.855   1.251  0.00  0.00    +0.000 C 
BRANCH  16  18
ATOM     17  C   UNL     1       3.160   1.461   0.190  0.00  0.00    +0.000 C 
ATOM     18  C   UNL     1       2.616   0.020   0.047  0.00  0.00    +0.000 C 
ATOM     19  C   UNL     1       3.291  -0.589  -1.210  0.00  0.00    +0.000 C 
BRANCH  18  20
ATOM     20  C   UNL     1       1.080   0.075  -0.075  0.00  0.00    +0.000 A 
ATOM     21  C   UNL     1       0.380  -0.464  -1.161  0.00  0.00    +0.000 A 
ATOM     22  C   UNL     1      -0.995  -0.285  -1.249  0.00  0.00    +0.000 A 
ATOM     23  N   UNL     1      -1.725   0.399  -0.347  0.00  0.00    +0.000 NA
ATOM     24  C   UNL     1      -1.064   0.925   0.719  0.00  0.00    +0.000 A 
ATOM     25  C   UNL     1       0.315   0.754   0.889  0.00  0.00    +0.000 A 
BRANCH  24  26
ATOM     26  C   UNL     1      -1.817   1.779   1.731  0.00  0.00    +0.000 C 
ATOM     27  F   UNL     1      -3.133   1.979   1.439  0.00  0.00    +0.000 F 
ATOM     28  F   UNL     1      -1.789   1.253   2.991  0.00  0.00    +0.000 F 
ATOM     29  F   UNL     1      -1.275   3.029   1.852  0.00  0.00    +0.000 F 
ENDBRANCH  24  26
ENDBRANCH  18  20
ENDBRANCH  16  18
ENDBRANCH   1  16
TORSDOF 8
