REMARK  Name = 
REMARK  7 active torsions:
REMARK  status: ('A' for Active; 'I' for Inactive)
REMARK    1  A    between atoms: C_2  and  C_4
REMARK    2  A    between atoms: C_7  and  O_8
REMARK    3  A    between atoms: O_8  and  C_9
REMARK    4  A    between atoms: C_9  and  C_10
REMARK    5  A    between atoms: C_10  and  C_13
REMARK    6  A    between atoms: C_18  and  N_19
REMARK    7  A    between atoms: C_22  and  O_23
REMARK                            x       y       z     vdW  Elec       q    Type
REMARK                         _______ _______ _______ _____ _____    ______ ____
ROOT
ATOM      1  C   UNL     1       5.917  -2.223  -6.778  0.00  0.00    +0.000 C 
ATOM      2  F   UNL     1       6.900  -1.465  -6.205  0.00  0.00    +0.000 F 
ATOM      3  F   UNL     1       6.387  -3.506  -6.751  0.00  0.00    +0.000 F 
ENDROOT
BRANCH   1   4
ATOM      4  C   UNL     1       5.608  -1.769  -8.193  0.00  0.00    +0.000 A 
ATOM      5  C   UNL     1       5.189  -2.685  -9.160  0.00  0.00    +0.000 A 
ATOM      6  C   UNL     1       4.896  -2.237 -10.440  0.00  0.00    +0.000 A 
ATOM      7  F   UNL     1       4.492  -3.117 -11.366  0.00  0.00    +0.000 F 
ATOM      8  C   UNL     1       5.003  -0.890 -10.780  0.00  0.00    +0.000 A 
ATOM      9  C   UNL     1       5.410   0.066  -9.841  0.00  0.00    +0.000 A 
ATOM     10  C   UNL     1       5.715  -0.409  -8.550  0.00  0.00    +0.000 A 
BRANCH   9  11
ATOM     11  N   UNL     1       5.527   1.410 -10.154  0.00  0.00    +0.000 N 
ATOM     12  C   UNL     1       5.825   1.871 -11.513  0.00  0.00    +0.000 C 
ATOM     13  C   UNL     1       4.629   2.621 -12.090  0.00  0.00    +0.000 C 
ATOM     14  C   UNL     1       4.152   3.730 -11.152  0.00  0.00    +0.000 C 
ATOM     15  C   UNL     1       3.925   3.216  -9.732  0.00  0.00    +0.000 C 
ATOM     16  C   UNL     1       5.130   2.444  -9.194  0.00  0.00    +0.000 C 
BRANCH  14  17
ATOM     17  O   UNL     1       5.071   4.822 -11.151  0.00  0.00    +0.000 OA
ATOM     18  H   UNL     1       5.929   4.518 -10.809  0.00  0.00    +0.000 HD
ENDBRANCH  14  17
ENDBRANCH   9  11
ENDBRANCH   1   4
BRANCH   1  19
ATOM     19  C   UNL     1       4.658  -2.138  -5.904  0.00  0.00    +0.000 C 
BRANCH  19  20
ATOM     20  O   UNL     1       4.922  -2.606  -4.568  0.00  0.00    +0.000 OA
BRANCH  20  24
ATOM     21  C   UNL     1       1.627  -2.376  -2.108  0.00  0.00    +0.000 A 
ATOM     22  C   UNL     1       2.830  -2.874  -1.603  0.00  0.00    +0.000 A 
ATOM     23  C   UNL     1       3.939  -2.956  -2.448  0.00  0.00    +0.000 A 
ATOM     24  C   UNL     1       3.803  -2.534  -3.762  0.00  0.00    +0.000 A 
ATOM     25  N   UNL     1       2.648  -2.062  -4.279  0.00  0.00    +0.000 NA
ATOM     26  C   UNL     1       1.582  -2.005  -3.444  0.00  0.00    +0.000 A 
BRANCH  21  28
ATOM     27  N   UNL     1       0.547  -2.029   0.041  0.00  0.00    +0.000 N 
ATOM     28  C   UNL     1       0.397  -2.232  -1.301  0.00  0.00    +0.000 C 
ATOM     29  O   UNL     1      -0.710  -2.246  -1.821  0.00  0.00    +0.000 OA
ATOM     30  H   UNL     1      -0.299  -1.809   0.554  0.00  0.00    +0.000 HD
ATOM     31  H   UNL     1       1.426  -1.756   0.457  0.00  0.00    +0.000 HD
ENDBRANCH  21  28
ENDBRANCH  20  24
ENDBRANCH  19  20
ENDBRANCH   1  19
TORSDOF 7
