REMARK  Name = 
REMARK  4 active torsions:
REMARK  status: ('A' for Active; 'I' for Inactive)
REMARK    1  A    between atoms: C_2  and  C_4
REMARK    2  A    between atoms: C_7  and  C_8
REMARK    3  A    between atoms: C_8  and  N_9
REMARK    4  A    between atoms: C_14  and  N_15
REMARK                            x       y       z     vdW  Elec       q    Type
REMARK                         _______ _______ _______ _____ _____    ______ ____
ROOT
ATOM      1  C   UNL     1       6.050  -4.672  -1.333  0.00  0.00    +0.000 C 
ENDROOT
BRANCH   1   2
ATOM      2  N   UNL     1       5.698  -6.068  -1.551  0.00  0.00    +0.000 N 
ATOM      3  C   UNL     1       6.212  -7.102  -0.793  0.00  0.00    +0.000 A 
ATOM      4  C   UNL     1       5.838  -8.294  -1.371  0.00  0.00    +0.000 A 
ATOM      5  C   UNL     1       5.272  -7.979  -2.630  0.00  0.00    +0.000 A 
ATOM      6  C   UNL     1       4.942  -8.733  -3.767  0.00  0.00    +0.000 A 
ATOM      7  C   UNL     1       4.477  -8.022  -4.875  0.00  0.00    +0.000 A 
ATOM      8  C   UNL     1       4.256  -6.652  -4.778  0.00  0.00    +0.000 A 
ATOM      9  N   UNL     1       4.573  -5.883  -3.702  0.00  0.00    +0.000 NA
ATOM     10  C   UNL     1       5.114  -6.591  -2.685  0.00  0.00    +0.000 A 
BRANCH   7  11
ATOM     11  N   UNL     1       4.334  -8.687  -6.162  0.00  0.00    +0.000 N 
ATOM     12  O   UNL     1       4.791  -9.835  -6.269  0.00  0.00    +0.000 OA
ATOM     13  O   UNL     1       3.800  -8.055  -7.083  0.00  0.00    +0.000 OA
ENDBRANCH   7  11
ENDBRANCH   1   2
BRANCH   1  17
ATOM     14  C   UNL     1       3.151  -1.769  -0.150  0.00  0.00    +0.000 A 
ATOM     15  C   UNL     1       3.367  -1.986  -1.509  0.00  0.00    +0.000 A 
ATOM     16  C   UNL     1       4.248  -2.999  -1.915  0.00  0.00    +0.000 A 
ATOM     17  C   UNL     1       4.905  -3.764  -0.950  0.00  0.00    +0.000 A 
ATOM     18  N   UNL     1       4.676  -3.583   0.372  0.00  0.00    +0.000 NA
ATOM     19  C   UNL     1       3.810  -2.598   0.741  0.00  0.00    +0.000 A 
BRANCH  14  21
ATOM     20  N   UNL     1       1.647   0.162  -0.448  0.00  0.00    +0.000 N 
ATOM     21  C   UNL     1       2.311  -0.668   0.415  0.00  0.00    +0.000 C 
ATOM     22  O   UNL     1       2.216  -0.499   1.614  0.00  0.00    +0.000 OA
ATOM     23  H   UNL     1       1.101   0.906  -0.028  0.00  0.00    +0.000 HD
ATOM     24  H   UNL     1       1.646   0.094  -1.452  0.00  0.00    +0.000 HD
ENDBRANCH  14  21
ENDBRANCH   1  17
TORSDOF 4
