REMARK  Name = 
REMARK  6 active torsions:
REMARK  status: ('A' for Active; 'I' for Inactive)
REMARK    1  A    between atoms: C_1  and  C_2
REMARK    2  A    between atoms: C_5  and  C_6
REMARK    3  A    between atoms: C_6  and  N_7
REMARK    4  A    between atoms: N_7  and  C_8
REMARK    5  A    between atoms: C_11  and  C_12
REMARK    6  A    between atoms: C_16  and  C_17
REMARK                            x       y       z     vdW  Elec       q    Type
REMARK                         _______ _______ _______ _____ _____    ______ ____
ROOT
ATOM      1  N   UNL     1      -3.602  -1.273   0.646  0.00  0.00    +0.000 N 
ATOM      2  H   UNL     1      -3.994  -1.113   1.566  0.00  0.00    +0.000 HD
ENDROOT
BRANCH   1   3
ATOM      3  C   UNL     1      -3.782  -2.579   0.153  0.00  0.00    +0.000 A 
ATOM      4  C   UNL     1      -3.679  -2.891  -1.207  0.00  0.00    +0.000 A 
ATOM      5  C   UNL     1      -3.826  -4.206  -1.668  0.00  0.00    +0.000 A 
ATOM      6  C   UNL     1      -4.055  -5.254  -0.771  0.00  0.00    +0.000 A 
ATOM      7  C   UNL     1      -4.117  -4.967   0.593  0.00  0.00    +0.000 A 
ATOM      8  C   UNL     1      -3.975  -3.644   1.064  0.00  0.00    +0.000 A 
ATOM      9  C   UNL     1      -4.000  -3.409   2.553  0.00  0.00    +0.000 C 
BRANCH   6  10
ATOM     10  C   UNL     1      -4.216  -6.631  -1.327  0.00  0.00    +0.000 C 
ATOM     11  N   UNL     1      -4.464  -7.665  -0.466  0.00  0.00    +0.000 N 
ATOM     12  O   UNL     1      -4.137  -6.848  -2.528  0.00  0.00    +0.000 OA
ATOM     13  H   UNL     1      -4.577  -7.585   0.531  0.00  0.00    +0.000 HD
ATOM     14  H   UNL     1      -4.584  -8.579  -0.883  0.00  0.00    +0.000 HD
ENDBRANCH   6  10
ENDBRANCH   1   3
BRANCH   1  15
ATOM     15  C   UNL     1      -3.219  -0.079  -0.119  0.00  0.00    +0.000 C 
ATOM     16  C   UNL     1      -4.105   0.506  -1.202  0.00  0.00    +0.000 C 
ATOM     17  C   UNL     1      -4.089   1.153   0.141  0.00  0.00    +0.000 C 
BRANCH  15  22
ATOM     18  C   UNL     1       2.529   1.027  -0.574  0.00  0.00    +0.000 C 
ATOM     19  C   UNL     1       1.076   0.685  -0.437  0.00  0.00    +0.000 A 
ATOM     20  C   UNL     1       0.427  -0.113  -1.381  0.00  0.00    +0.000 A 
ATOM     21  C   UNL     1      -0.943  -0.374  -1.267  0.00  0.00    +0.000 A 
ATOM     22  C   UNL     1      -1.710   0.149  -0.212  0.00  0.00    +0.000 A 
ATOM     23  C   UNL     1      -1.026   0.913   0.751  0.00  0.00    +0.000 A 
ATOM     24  C   UNL     1       0.340   1.189   0.638  0.00  0.00    +0.000 A 
ENDBRANCH  15  22
ENDBRANCH   1  15
TORSDOF 4
