REMARK  Name = 
REMARK  8 active torsions:
REMARK  status: ('A' for Active; 'I' for Inactive)
REMARK    1  A    between atoms: C_2  and  C_3
REMARK    2  A    between atoms: C_3  and  N_4
REMARK    3  A    between atoms: C_5  and  C_7
REMARK    4  A    between atoms: N_17  and  C_18
REMARK    5  A    between atoms: C_18  and  C_19
REMARK    6  A    between atoms: C_22  and  C_23
REMARK    7  A    between atoms: C_23  and  N_24
REMARK    8  A    between atoms: C_25  and  C_27
REMARK                            x       y       z     vdW  Elec       q    Type
REMARK                         _______ _______ _______ _____ _____    ______ ____
ROOT
ATOM      1  O   UNL     1       6.181  -1.032   0.224  0.00  0.00    +0.000 OA
ATOM      2  C   UNL     1       6.038  -0.409  -0.825  0.00  0.00    +0.000 C 
ATOM      3  N   UNL     1       5.250   0.713  -0.947  0.00  0.00    +0.000 N 
ATOM      4  H   UNL     1       5.067   1.078  -1.876  0.00  0.00    +0.000 HD
ENDROOT
BRANCH   2   5
ATOM      5  C   UNL     1       6.671  -0.874  -2.138  0.00  0.00    +0.000 C 
BRANCH   5   6
ATOM      6  N   UNL     1       5.815  -1.819  -2.824  0.00  0.00    +0.000 N 
ATOM      7  C   UNL     1       4.895  -1.409  -3.754  0.00  0.00    +0.000 C 
ATOM      8  O   UNL     1       4.770  -0.223  -4.058  0.00  0.00    +0.000 OA
ATOM      9  H   UNL     1       5.723  -2.741  -2.404  0.00  0.00    +0.000 HD
BRANCH   7  10
ATOM     10  C   UNL     1       4.108  -2.458  -4.410  0.00  0.00    +0.000 A 
ATOM     11  C   UNL     1       3.630  -2.262  -5.698  0.00  0.00    +0.000 A 
ATOM     12  S   UNL     1       2.749  -3.590  -6.310  0.00  0.00    +0.000 S 
ATOM     13  C   UNL     1       2.940  -4.456  -4.857  0.00  0.00    +0.000 A 
ATOM     14  N   UNL     1       2.385  -5.687  -4.695  0.00  0.00    +0.000 NA
ATOM     15  C   UNL     1       2.578  -6.211  -3.531  0.00  0.00    +0.000 A 
ATOM     16  N   UNL     1       3.288  -5.618  -2.516  0.00  0.00    +0.000 N 
ATOM     17  C   UNL     1       3.909  -4.399  -2.653  0.00  0.00    +0.000 A 
ATOM     18  O   UNL     1       4.610  -3.932  -1.763  0.00  0.00    +0.000 OA
ATOM     19  C   UNL     1       3.690  -3.753  -3.931  0.00  0.00    +0.000 A 
ATOM     20  H   UNL     1       3.423  -6.091  -1.635  0.00  0.00    +0.000 HD
ENDBRANCH   7  10
ENDBRANCH   5   6
ENDBRANCH   2   5
BRANCH   3  21
ATOM     21  C   UNL     1       4.544   1.294   0.172  0.00  0.00    +0.000 C 
BRANCH  21  22
ATOM     22  C   UNL     1       4.949   2.731   0.389  0.00  0.00    +0.000 A 
ATOM     23  C   UNL     1       4.281   3.777  -0.261  0.00  0.00    +0.000 A 
ATOM     24  C   UNL     1       4.671   5.109  -0.064  0.00  0.00    +0.000 A 
ATOM     25  C   UNL     1       5.752   5.422   0.773  0.00  0.00    +0.000 A 
ATOM     26  C   UNL     1       6.417   4.375   1.425  0.00  0.00    +0.000 A 
ATOM     27  C   UNL     1       6.026   3.046   1.229  0.00  0.00    +0.000 A 
BRANCH  25  28
ATOM     28  C   UNL     1       6.207   6.848   0.959  0.00  0.00    +0.000 C 
BRANCH  28  29
ATOM     29  N   UNL     1       5.556   7.496   2.074  0.00  0.00    +0.000 N 
ATOM     30  C   UNL     1       5.870   8.803   2.402  0.00  0.00    +0.000 C 
ATOM     31  O   UNL     1       6.659   9.474   1.741  0.00  0.00    +0.000 OA
ATOM     32  H   UNL     1       5.016   6.928   2.710  0.00  0.00    +0.000 HD
BRANCH  30  33
ATOM     33  C   UNL     1       5.096   9.360   3.596  0.00  0.00    +0.000 C 
ATOM     34  C   UNL     1       5.470  10.799   3.941  0.00  0.00    +0.000 C 
ATOM     35  C   UNL     1       6.525  10.635   5.015  0.00  0.00    +0.000 C 
ATOM     36  N   UNL     1       6.025   9.523   5.830  0.00  0.00    +0.000 NA
ATOM     37  C   UNL     1       5.386   8.591   4.885  0.00  0.00    +0.000 C 
ATOM     38  H   UNL     1       5.318   9.883   6.472  0.00  0.00    +0.000 HD
ENDBRANCH  30  33
ENDBRANCH  28  29
ENDBRANCH  25  28
ENDBRANCH  21  22
ENDBRANCH   3  21
TORSDOF 8
