REMARK  Name = 
REMARK  9 active torsions:
REMARK  status: ('A' for Active; 'I' for Inactive)
REMARK    1  A    between atoms: C_1  and  C_2
REMARK    2  A    between atoms: C_2  and  N_3
REMARK    3  A    between atoms: N_3  and  C_4
REMARK    4  A    between atoms: C_4  and  C_5
REMARK    5  A    between atoms: C_8  and  C_9
REMARK    6  A    between atoms: C_9  and  N_10
REMARK    7  A    between atoms: N_10  and  C_11
REMARK    8  A    between atoms: C_14  and  O_15
REMARK    9  A    between atoms: C_19  and  C_21
REMARK                            x       y       z     vdW  Elec       q    Type
REMARK                         _______ _______ _______ _____ _____    ______ ____
ROOT
ATOM      1  C   UNL     1      -3.895   1.833   7.540  0.00  0.00    +0.000 C 
ENDROOT
BRANCH   1   2
ATOM      2  C   UNL     1      -3.913   1.041   6.264  0.00  0.00    +0.000 A 
ATOM      3  C   UNL     1      -5.132   0.772   5.627  0.00  0.00    +0.000 A 
ATOM      4  C   UNL     1      -5.149   0.274   4.329  0.00  0.00    +0.000 A 
ATOM      5  C   UNL     1      -3.947   0.052   3.644  0.00  0.00    +0.000 A 
ATOM      6  C   UNL     1      -2.732   0.228   4.315  0.00  0.00    +0.000 A 
ATOM      7  C   UNL     1      -2.714   0.714   5.621  0.00  0.00    +0.000 A 
BRANCH   5   8
ATOM      8  C   UNL     1      -3.969  -0.321   2.183  0.00  0.00    +0.000 C 
BRANCH   8   9
ATOM      9  N   UNL     1      -4.679   0.712   1.416  0.00  0.00    +0.000 NA
ATOM     10  H   UNL     1      -4.205   1.603   1.586  0.00  0.00    +0.000 HD
BRANCH   9  11
ATOM     11  C   UNL     1      -4.689   0.441  -0.026  0.00  0.00    +0.000 C 
ATOM     12  C   UNL     1      -5.507  -0.824  -0.352  0.00  0.00    +0.000 C 
ATOM     13  C   UNL     1      -6.706  -0.375  -1.182  0.00  0.00    +0.000 C 
ATOM     14  C   UNL     1      -6.864   1.101  -0.856  0.00  0.00    +0.000 C 
ATOM     15  C   UNL     1      -5.422   1.581  -0.760  0.00  0.00    +0.000 C 
BRANCH  14  16
ATOM     16  O   UNL     1      -7.542   1.264   0.384  0.00  0.00    +0.000 OA
ATOM     17  H   UNL     1      -6.935   0.964   1.091  0.00  0.00    +0.000 HD
ENDBRANCH  14  16
ENDBRANCH   9  11
ENDBRANCH   8   9
ENDBRANCH   5   8
ENDBRANCH   1   2
BRANCH   1  18
ATOM     18  N   UNL     1      -3.732   1.150   8.816  0.00  0.00    +0.000 N 
ATOM     19  C   UNL     1      -3.369   1.828   9.994  0.00  0.00    +0.000 C 
ATOM     20  O   UNL     1      -3.286   1.243  11.072  0.00  0.00    +0.000 OA
BRANCH  19  21
ATOM     21  C   UNL     1      -3.115   3.276   9.949  0.00  0.00    +0.000 A 
ATOM     22  C   UNL     1      -3.963   4.218   9.388  0.00  0.00    +0.000 A 
ATOM     23  S   UNL     1      -3.415   5.826   9.569  0.00  0.00    +0.000 S 
ATOM     24  C   UNL     1      -2.101   5.325  10.526  0.00  0.00    +0.000 A 
ATOM     25  N   UNL     1      -1.278   6.230  11.111  0.00  0.00    +0.000 NA
ATOM     26  C   UNL     1      -0.362   5.701  11.858  0.00  0.00    +0.000 A 
ATOM     27  N   UNL     1      -0.177   4.352  12.032  0.00  0.00    +0.000 N 
ATOM     28  C   UNL     1      -0.903   3.400  11.351  0.00  0.00    +0.000 A 
ATOM     29  O   UNL     1      -0.562   2.223  11.348  0.00  0.00    +0.000 OA
ATOM     30  C   UNL     1      -2.023   3.947  10.609  0.00  0.00    +0.000 A 
ATOM     31  H   UNL     1       0.600   4.005  12.574  0.00  0.00    +0.000 HD
ENDBRANCH  19  21
BRANCH  18  33
ATOM     32  C   UNL     1      -2.889  -1.169   9.038  0.00  0.00    +0.000 C 
ATOM     33  C   UNL     1      -4.107  -0.260   8.950  0.00  0.00    +0.000 C 
ENDBRANCH  18  33
ENDBRANCH   1  18
TORSDOF 8
