REMARK  Name = 
REMARK  7 active torsions:
REMARK  status: ('A' for Active; 'I' for Inactive)
REMARK    1  A    between atoms: C_2  and  C_19
REMARK    2  A    between atoms: N_3  and  C_4
REMARK    3  A    between atoms: C_4  and  C_5
REMARK    4  A    between atoms: C_8  and  C_9
REMARK    5  A    between atoms: C_9  and  N_10
REMARK    6  A    between atoms: C_13  and  C_14
REMARK    7  A    between atoms: C_14  and  O_15
REMARK                            x       y       z     vdW  Elec       q    Type
REMARK                         _______ _______ _______ _____ _____    ______ ____
ROOT
ATOM      1  C   UNL     1       2.384   2.379   0.086  0.00  0.00    +0.000 C 
ENDROOT
BRANCH   1   2
ATOM      2  C   UNL     1       3.306   3.576   0.020  0.00  0.00    +0.000 A 
ATOM      3  C   UNL     1       2.782   4.864  -0.043  0.00  0.00    +0.000 A 
ATOM      4  C   UNL     1       3.657   5.952  -0.061  0.00  0.00    +0.000 A 
ATOM      5  C   UNL     1       5.038   5.746  -0.026  0.00  0.00    +0.000 A 
ATOM      6  C   UNL     1       5.463   4.419  -0.012  0.00  0.00    +0.000 A 
ATOM      7  N   UNL     1       4.641   3.341   0.023  0.00  0.00    +0.000 NA
BRANCH   5   8
ATOM      8  C   UNL     1       6.031   6.884  -0.082  0.00  0.00    +0.000 C 
BRANCH   8   9
ATOM      9  N   UNL     1       6.491   7.457   1.182  0.00  0.00    +0.000 NA
ATOM     10  C   UNL     1       7.127   6.566   2.143  0.00  0.00    +0.000 C 
ATOM     11  C   UNL     1       6.340   6.730   3.432  0.00  0.00    +0.000 C 
ATOM     12  C   UNL     1       5.807   8.158   3.365  0.00  0.00    +0.000 C 
ATOM     13  C   UNL     1       5.582   8.372   1.867  0.00  0.00    +0.000 C 
BRANCH  12  14
ATOM     14  C   UNL     1       6.781   9.171   3.973  0.00  0.00    +0.000 C 
BRANCH  14  15
ATOM     15  O   UNL     1       6.970   8.911   5.361  0.00  0.00    +0.000 OA
ATOM     16  H   UNL     1       6.094   8.890   5.783  0.00  0.00    +0.000 HD
ENDBRANCH  14  15
ENDBRANCH  12  14
ENDBRANCH   8   9
ENDBRANCH   5   8
ENDBRANCH   1   2
BRANCH   1  19
ATOM     17  O   UNL     1       0.069   3.071  -1.351  0.00  0.00    +0.000 OA
ATOM     18  C   UNL     1       0.885   2.319  -1.878  0.00  0.00    +0.000 C 
ATOM     19  N   UNL     1       2.014   1.895  -1.225  0.00  0.00    +0.000 N 
ATOM     20  H   UNL     1       2.755   1.437  -1.742  0.00  0.00    +0.000 HD
BRANCH  18  21
ATOM     21  C   UNL     1       0.674   1.784  -3.231  0.00  0.00    +0.000 A 
ATOM     22  C   UNL     1      -0.604   1.757  -3.770  0.00  0.00    +0.000 A 
ATOM     23  S   UNL     1      -0.668   1.100  -5.344  0.00  0.00    +0.000 S 
ATOM     24  C   UNL     1       1.015   0.865  -5.375  0.00  0.00    +0.000 A 
ATOM     25  N   UNL     1       1.630   0.358  -6.477  0.00  0.00    +0.000 NA
ATOM     26  C   UNL     1       2.917   0.271  -6.380  0.00  0.00    +0.000 A 
ATOM     27  N   UNL     1       3.641   0.638  -5.273  0.00  0.00    +0.000 N 
ATOM     28  C   UNL     1       3.059   1.092  -4.116  0.00  0.00    +0.000 A 
ATOM     29  O   UNL     1       3.722   1.291  -3.107  0.00  0.00    +0.000 OA
ATOM     30  C   UNL     1       1.617   1.255  -4.189  0.00  0.00    +0.000 A 
ATOM     31  H   UNL     1       4.642   0.520  -5.247  0.00  0.00    +0.000 HD
ENDBRANCH  18  21
ENDBRANCH   1  19
TORSDOF 7
