REMARK  Name = 
REMARK  8 active torsions:
REMARK  status: ('A' for Active; 'I' for Inactive)
REMARK    1  A    between atoms: C_2  and  C_20
REMARK    2  A    between atoms: N_3  and  C_4
REMARK    3  A    between atoms: C_4  and  C_5
REMARK    4  A    between atoms: C_8  and  C_9
REMARK    5  A    between atoms: C_9  and  O_10
REMARK    6  A    between atoms: C_9  and  C_11
REMARK    7  A    between atoms: C_11  and  C_12
REMARK    8  A    between atoms: C_12  and  C_13
REMARK                            x       y       z     vdW  Elec       q    Type
REMARK                         _______ _______ _______ _____ _____    ______ ____
ROOT
ATOM      1  C   UNL     1      10.007   3.718   4.476  0.00  0.00    +0.000 A 
ATOM      2  C   UNL     1       9.064   2.718   4.241  0.00  0.00    +0.000 A 
ATOM      3  C   UNL     1       7.719   2.949   4.532  0.00  0.00    +0.000 A 
ATOM      4  C   UNL     1       7.338   4.189   5.041  0.00  0.00    +0.000 A 
ATOM      5  N   UNL     1       8.227   5.204   5.208  0.00  0.00    +0.000 NA
ATOM      6  C   UNL     1       9.529   4.943   4.929  0.00  0.00    +0.000 A 
ENDROOT
BRANCH   1   7
ATOM      7  C   UNL     1      11.474   3.481   4.259  0.00  0.00    +0.000 C 
BRANCH   7  10
ATOM      8  O   UNL     1      11.727   1.609   2.169  0.00  0.00    +0.000 OA
ATOM      9  C   UNL     1      11.948   2.792   1.938  0.00  0.00    +0.000 C 
ATOM     10  N   UNL     1      11.882   3.759   2.907  0.00  0.00    +0.000 N 
ATOM     11  H   UNL     1      11.924   4.736   2.639  0.00  0.00    +0.000 HD
BRANCH   9  12
ATOM     12  C   UNL     1      12.344   3.250   0.600  0.00  0.00    +0.000 A 
ATOM     13  C   UNL     1      12.953   2.371  -0.286  0.00  0.00    +0.000 A 
ATOM     14  S   UNL     1      13.316   3.070  -1.799  0.00  0.00    +0.000 S 
ATOM     15  C   UNL     1      12.643   4.564  -1.333  0.00  0.00    +0.000 A 
ATOM     16  N   UNL     1      12.593   5.611  -2.198  0.00  0.00    +0.000 NA
ATOM     17  C   UNL     1      12.020   6.666  -1.723  0.00  0.00    +0.000 A 
ATOM     18  N   UNL     1      11.511   6.775  -0.454  0.00  0.00    +0.000 N 
ATOM     19  C   UNL     1      11.619   5.772   0.476  0.00  0.00    +0.000 A 
ATOM     20  O   UNL     1      11.303   5.963   1.651  0.00  0.00    +0.000 OA
ATOM     21  C   UNL     1      12.189   4.541  -0.027  0.00  0.00    +0.000 A 
ATOM     22  H   UNL     1      11.111   7.647  -0.130  0.00  0.00    +0.000 HD
ENDBRANCH   9  12
ENDBRANCH   7  10
ENDBRANCH   1   7
BRANCH   4  23
ATOM     23  C   UNL     1       5.889   4.459   5.423  0.00  0.00    +0.000 C 
BRANCH  23  24
ATOM     24  O   UNL     1       5.375   5.516   4.606  0.00  0.00    +0.000 OA
ATOM     25  H   UNL     1       6.063   6.209   4.632  0.00  0.00    +0.000 HD
ENDBRANCH  23  24
BRANCH  23  26
ATOM     26  C   UNL     1       5.764   4.876   6.895  0.00  0.00    +0.000 C 
BRANCH  26  27
ATOM     27  C   UNL     1       4.305   5.101   7.300  0.00  0.00    +0.000 C 
BRANCH  27  28
ATOM     28  C   UNL     1       4.177   5.538   8.719  0.00  0.00    +0.000 A 
ATOM     29  C   UNL     1       4.166   6.817   9.235  0.00  0.00    +0.000 A 
ATOM     30  N   UNL     1       4.008   6.663  10.584  0.00  0.00    +0.000 N 
ATOM     31  C   UNL     1       3.927   5.323  10.835  0.00  0.00    +0.000 A 
ATOM     32  N   UNL     1       4.031   4.618   9.732  0.00  0.00    +0.000 NA
ATOM     33  H   UNL     1       3.953   7.400  11.273  0.00  0.00    +0.000 HD
ENDBRANCH  27  28
ENDBRANCH  26  27
ENDBRANCH  23  26
ENDBRANCH   4  23
TORSDOF 8
