REMARK  Name = 
REMARK  10 active torsions:
REMARK  status: ('A' for Active; 'I' for Inactive)
REMARK    1  A    between atoms: C_1  and  C_2
REMARK    2  A    between atoms: C_2  and  O_3
REMARK    3  A    between atoms: O_3  and  C_4
REMARK    4  A    between atoms: C_6  and  C_7
REMARK    5  A    between atoms: C_7  and  N_8
REMARK    6  A    between atoms: C_9  and  C_11
REMARK    7  A    between atoms: C_23  and  C_24
REMARK    8  A    between atoms: C_24  and  N_25
REMARK    9  A    between atoms: N_25  and  C_26
REMARK   10  A    between atoms: C_26  and  C_27
REMARK                            x       y       z     vdW  Elec       q    Type
REMARK                         _______ _______ _______ _____ _____    ______ ____
ROOT
ATOM      1  C   UNL     1       4.383  -1.040   1.270  0.00  0.00    +0.000 A 
ATOM      2  C   UNL     1       5.242   0.072   1.365  0.00  0.00    +0.000 A 
ATOM      3  C   UNL     1       6.603  -0.062   1.671  0.00  0.00    +0.000 A 
ATOM      4  C   UNL     1       7.118  -1.341   1.860  0.00  0.00    +0.000 A 
ATOM      5  C   UNL     1       6.285  -2.460   1.746  0.00  0.00    +0.000 A 
ATOM      6  C   UNL     1       4.910  -2.334   1.447  0.00  0.00    +0.000 A 
ENDROOT
BRANCH   1   7
ATOM      7  O   UNL     1       3.035  -0.918   1.012  0.00  0.00    +0.000 OA
BRANCH   7   9
ATOM      8  C   UNL     1       1.036   0.423   0.745  0.00  0.00    +0.000 C 
ATOM      9  C   UNL     1       2.538   0.425   0.939  0.00  0.00    +0.000 C 
ENDBRANCH   7   9
ENDBRANCH   1   7
BRANCH   3  10
ATOM     10  C   UNL     1       7.466   1.172   1.749  0.00  0.00    +0.000 C 
BRANCH  10  11
ATOM     11  N   UNL     1       8.007   1.517   0.456  0.00  0.00    +0.000 N 
ATOM     12  C   UNL     1       8.899   2.551   0.315  0.00  0.00    +0.000 C 
ATOM     13  O   UNL     1       9.285   3.212   1.274  0.00  0.00    +0.000 OA
ATOM     14  H   UNL     1       7.530   1.153  -0.361  0.00  0.00    +0.000 HD
BRANCH  12  15
ATOM     15  C   UNL     1       9.426   2.780  -1.038  0.00  0.00    +0.000 A 
ATOM     16  C   UNL     1      10.650   3.420  -1.195  0.00  0.00    +0.000 A 
ATOM     17  S   UNL     1      11.152   3.552  -2.819  0.00  0.00    +0.000 S 
ATOM     18  C   UNL     1       9.728   2.807  -3.378  0.00  0.00    +0.000 A 
ATOM     19  N   UNL     1       9.509   2.629  -4.708  0.00  0.00    +0.000 NA
ATOM     20  C   UNL     1       8.377   2.074  -4.992  0.00  0.00    +0.000 A 
ATOM     21  N   UNL     1       7.449   1.679  -4.065  0.00  0.00    +0.000 N 
ATOM     22  C   UNL     1       7.636   1.819  -2.709  0.00  0.00    +0.000 A 
ATOM     23  O   UNL     1       6.800   1.426  -1.905  0.00  0.00    +0.000 OA
ATOM     24  C   UNL     1       8.890   2.446  -2.336  0.00  0.00    +0.000 A 
ATOM     25  H   UNL     1       6.584   1.243  -4.355  0.00  0.00    +0.000 HD
ENDBRANCH  12  15
ENDBRANCH  10  11
ENDBRANCH   3  10
BRANCH   6  26
ATOM     26  C   UNL     1       4.088  -3.602   1.287  0.00  0.00    +0.000 C 
BRANCH  26  27
ATOM     27  N   UNL     1       4.114  -4.429   2.505  0.00  0.00    +0.000 NA
ATOM     28  H   UNL     1       3.681  -3.892   3.254  0.00  0.00    +0.000 HD
BRANCH  27  29
ATOM     29  C   UNL     1       3.387  -5.685   2.330  0.00  0.00    +0.000 C 
BRANCH  29  30
ATOM     30  C   UNL     1       3.378  -6.505   3.606  0.00  0.00    +0.000 A 
ATOM     31  C   UNL     1       2.172  -6.830   4.248  0.00  0.00    +0.000 A 
ATOM     32  C   UNL     1       2.172  -7.609   5.409  0.00  0.00    +0.000 A 
ATOM     33 CL   UNL     1       0.680  -7.990   6.180  0.00  0.00    +0.000 Cl
ATOM     34  C   UNL     1       3.364  -8.085   5.949  0.00  0.00    +0.000 A 
ATOM     35  C   UNL     1       4.563  -7.765   5.319  0.00  0.00    +0.000 A 
ATOM     36 CL   UNL     1       6.045  -8.351   5.972  0.00  0.00    +0.000 Cl
ATOM     37  C   UNL     1       4.577  -6.981   4.162  0.00  0.00    +0.000 A 
ENDBRANCH  29  30
ENDBRANCH  27  29
ENDBRANCH  26  27
ENDBRANCH   6  26
TORSDOF 9
