REMARK  Name = 
REMARK  5 active torsions:
REMARK  status: ('A' for Active; 'I' for Inactive)
REMARK    1  A    between atoms: N_1  and  C_2
REMARK    2  A    between atoms: C_2  and  C_3
REMARK    3  A    between atoms: C_6  and  O_7
REMARK    4  A    between atoms: O_7  and  C_8
REMARK    5  A    between atoms: C_8  and  C_9
REMARK                            x       y       z     vdW  Elec       q    Type
REMARK                         _______ _______ _______ _____ _____    ______ ____
ROOT
ATOM      1  C   UNL     1       2.943   1.100  -0.859  0.00  0.00    +0.000 A 
ATOM      2  C   UNL     1       2.424   2.383  -0.633  0.00  0.00    +0.000 A 
ATOM      3  C   UNL     1       2.891   3.479  -1.364  0.00  0.00    +0.000 A 
ATOM      4  C   UNL     1       3.890   3.309  -2.322  0.00  0.00    +0.000 A 
ATOM      5  C   UNL     1       4.374   2.026  -2.588  0.00  0.00    +0.000 A 
ATOM      6  C   UNL     1       3.914   0.933  -1.853  0.00  0.00    +0.000 A 
ENDROOT
BRANCH   1   7
ATOM      7  C   UNL     1       2.488  -0.078  -0.038  0.00  0.00    +0.000 C 
BRANCH   7   8
ATOM      8  N   UNL     1       1.062  -0.327  -0.199  0.00  0.00    +0.000 NA
ATOM      9  H   UNL     1       0.821  -1.194   0.277  0.00  0.00    +0.000 HD
ATOM     10  H   UNL     1       0.867  -0.476  -1.188  0.00  0.00    +0.000 HD
ENDBRANCH   7   8
ENDBRANCH   1   7
BRANCH   4  11
ATOM     11  O   UNL     1       4.330   4.452  -2.938  0.00  0.00    +0.000 OA
BRANCH  11  12
ATOM     12  C   UNL     1       5.653   4.361  -3.484  0.00  0.00    +0.000 C 
BRANCH  12  13
ATOM     13  C   UNL     1       6.268   5.729  -3.678  0.00  0.00    +0.000 A 
ATOM     14  C   UNL     1       5.462   6.825  -4.027  0.00  0.00    +0.000 A 
ATOM     15  C   UNL     1       6.018   8.092  -4.218  0.00  0.00    +0.000 A 
ATOM     16  C   UNL     1       7.390   8.283  -4.076  0.00  0.00    +0.000 A 
ATOM     17  C   UNL     1       8.210   7.202  -3.760  0.00  0.00    +0.000 A 
ATOM     18  C   UNL     1       7.657   5.931  -3.575  0.00  0.00    +0.000 A 
ATOM     19 CL   UNL     1       8.756   4.637  -3.242  0.00  0.00    +0.000 Cl
ENDBRANCH  12  13
ENDBRANCH  11  12
ENDBRANCH   4  11
TORSDOF 5
