REMARK  Name = 
REMARK  10 active torsions:
REMARK  status: ('A' for Active; 'I' for Inactive)
REMARK    1  A    between atoms: C_1  and  C_2
REMARK    2  A    between atoms: C_2  and  C_3
REMARK    3  A    between atoms: C_2  and  N_4
REMARK    4  A    between atoms: C_5  and  C_7
REMARK    5  A    between atoms: C_10  and  N_11
REMARK    6  A    between atoms: N_11  and  C_12
REMARK    7  A    between atoms: C_12  and  C_13
REMARK    8  A    between atoms: C_13  and  C_14
REMARK    9  A    between atoms: C_13  and  C_15
REMARK   10  A    between atoms: C_17  and  C_18
REMARK                            x       y       z     vdW  Elec       q    Type
REMARK                         _______ _______ _______ _____ _____    ______ ____
ROOT
ATOM      1  N   UNL     1       6.791  -3.472   5.927  0.00  0.00    +0.000 N 
ATOM      2  H   UNL     1       7.305  -2.798   6.494  0.00  0.00    +0.000 HD
ENDROOT
BRANCH   1   6
ATOM      3  C   UNL     1       4.722  -1.561   2.786  0.00  0.00    +0.000 A 
ATOM      4  C   UNL     1       4.027  -1.905   3.950  0.00  0.00    +0.000 A 
ATOM      5  C   UNL     1       4.703  -2.512   5.020  0.00  0.00    +0.000 A 
ATOM      6  C   UNL     1       6.067  -2.810   4.931  0.00  0.00    +0.000 A 
ATOM      7  C   UNL     1       6.769  -2.371   3.805  0.00  0.00    +0.000 A 
ATOM      8  C   UNL     1       6.103  -1.776   2.731  0.00  0.00    +0.000 A 
BRANCH   3  10
ATOM      9  N   UNL     1       2.814  -0.452   1.714  0.00  0.00    +0.000 N 
ATOM     10  C   UNL     1       4.042  -1.063   1.556  0.00  0.00    +0.000 C 
ATOM     11  O   UNL     1       4.577  -1.216   0.462  0.00  0.00    +0.000 OA
ATOM     12  H   UNL     1       2.527  -0.153   2.635  0.00  0.00    +0.000 HD
BRANCH   9  14
ATOM     13  C   UNL     1       0.572   0.055   0.880  0.00  0.00    +0.000 C 
ATOM     14  C   UNL     1       2.063   0.036   0.564  0.00  0.00    +0.000 C 
ATOM     15  C   UNL     1       2.542   1.421   0.133  0.00  0.00    +0.000 C 
ENDBRANCH   9  14
ENDBRANCH   3  10
ENDBRANCH   1   6
BRANCH   1  16
ATOM     16  C   UNL     1       6.089  -4.466   6.750  0.00  0.00    +0.000 C 
BRANCH  16  17
ATOM     17  C   UNL     1       7.068  -5.566   7.205  0.00  0.00    +0.000 C 
ATOM     18  C   UNL     1       8.177  -5.020   8.110  0.00  0.00    +0.000 C 
BRANCH  17  19
ATOM     19  C   UNL     1       6.307  -6.667   7.918  0.00  0.00    +0.000 A 
ATOM     20  C   UNL     1       6.333  -7.973   7.435  0.00  0.00    +0.000 A 
ATOM     21  C   UNL     1       5.634  -8.970   8.124  0.00  0.00    +0.000 A 
ATOM     22  C   UNL     1       4.930  -8.631   9.277  0.00  0.00    +0.000 A 
ATOM     23  C   UNL     1       4.955  -7.311   9.686  0.00  0.00    +0.000 A 
ATOM     24  N   UNL     1       5.619  -6.332   9.036  0.00  0.00    +0.000 NA
BRANCH  21  25
ATOM     25  C   UNL     1       5.687 -10.355   7.579  0.00  0.00    +0.000 C 
ATOM     26  N   UNL     1       5.020 -11.349   8.236  0.00  0.00    +0.000 N 
ATOM     27  O   UNL     1       6.316 -10.612   6.558  0.00  0.00    +0.000 OA
ATOM     28  H   UNL     1       4.477 -11.244   9.075  0.00  0.00    +0.000 HD
ATOM     29  H   UNL     1       5.081 -12.276   7.828  0.00  0.00    +0.000 HD
ENDBRANCH  21  25
ENDBRANCH  17  19
ENDBRANCH  16  17
ENDBRANCH   1  16
TORSDOF 7
