REMARK  Name = 
REMARK  6 active torsions:
REMARK  status: ('A' for Active; 'I' for Inactive)
REMARK    1  A    between atoms: C_1  and  C_2
REMARK    2  A    between atoms: C_2  and  C_3
REMARK    3  A    between atoms: C_2  and  C_4
REMARK    4  A    between atoms: C_2  and  C_5
REMARK    5  A    between atoms: C_8  and  C_9
REMARK    6  A    between atoms: C_9  and  N_10
REMARK                            x       y       z     vdW  Elec       q    Type
REMARK                         _______ _______ _______ _____ _____    ______ ____
ROOT
ATOM      1  C   UNL     1       2.909   1.339  -0.019  0.00  0.00    +0.000 A 
ATOM      2  C   UNL     1       2.057   2.401  -0.360  0.00  0.00    +0.000 A 
ATOM      3  C   UNL     1       2.499   3.729  -0.346  0.00  0.00    +0.000 A 
ATOM      4  C   UNL     1       3.814   4.044   0.009  0.00  0.00    +0.000 A 
ATOM      5  C   UNL     1       4.685   2.993   0.317  0.00  0.00    +0.000 A 
ATOM      6  C   UNL     1       4.240   1.666   0.300  0.00  0.00    +0.000 A 
ENDROOT
BRANCH   1   8
ATOM      7  C   UNL     1       0.939  -0.298  -0.338  0.00  0.00    +0.000 C 
ATOM      8  C   UNL     1       2.430  -0.123   0.029  0.00  0.00    +0.000 C 
ATOM      9  C   UNL     1       2.611  -0.687   1.456  0.00  0.00    +0.000 C 
ATOM     10  C   UNL     1       3.252  -0.975  -0.961  0.00  0.00    +0.000 C 
ENDBRANCH   1   8
BRANCH   4  11
ATOM     11  C   UNL     1       4.278   5.476   0.065  0.00  0.00    +0.000 C 
BRANCH  11  12
ATOM     12  N   UNL     1       4.096   6.076   1.386  0.00  0.00    +0.000 N 
ATOM     13  C   UNL     1       5.033   6.019   2.392  0.00  0.00    +0.000 A 
ATOM     14  C   UNL     1       4.596   6.809   3.431  0.00  0.00    +0.000 A 
ATOM     15  C   UNL     1       3.352   7.381   3.046  0.00  0.00    +0.000 A 
ATOM     16  C   UNL     1       2.461   8.270   3.662  0.00  0.00    +0.000 A 
ATOM     17  N   UNL     1       1.326   8.659   3.032  0.00  0.00    +0.000 NA
ATOM     18  C   UNL     1       1.064   8.163   1.805  0.00  0.00    +0.000 A 
ATOM     19  C   UNL     1       1.874   7.276   1.114  0.00  0.00    +0.000 A 
ATOM     20  C   UNL     1       3.051   6.896   1.769  0.00  0.00    +0.000 A 
ENDBRANCH  11  12
ENDBRANCH   4  11
TORSDOF 3
