REMARK  Name = 
REMARK  9 active torsions:
REMARK  status: ('A' for Active; 'I' for Inactive)
REMARK    1  A    between atoms: C_1  and  C_2
REMARK    2  A    between atoms: N_4  and  C_5
REMARK    3  A    between atoms: C_7  and  C_8
REMARK    4  A    between atoms: C_8  and  C_9
REMARK    5  A    between atoms: C_9  and  N_10
REMARK    6  A    between atoms: N_10  and  C_11
REMARK    7  A    between atoms: C_14  and  C_15
REMARK    8  A    between atoms: C_21  and  C_22
REMARK    9  A    between atoms: C_28  and  C_29
REMARK                            x       y       z     vdW  Elec       q    Type
REMARK                         _______ _______ _______ _____ _____    ______ ____
ROOT
ATOM      1  C   UNL     1       1.774   1.352  -3.214  0.00  0.00    +0.000 A 
ATOM      2  C   UNL     1       2.176   2.632  -3.632  0.00  0.00    +0.000 A 
ATOM      3  C   UNL     1       1.422   3.407  -4.530  0.00  0.00    +0.000 A 
ATOM      4  C   UNL     1       0.229   2.884  -5.032  0.00  0.00    +0.000 A 
ATOM      5  C   UNL     1      -0.215   1.618  -4.632  0.00  0.00    +0.000 A 
ATOM      6  C   UNL     1       0.553   0.880  -3.714  0.00  0.00    +0.000 A 
ENDROOT
BRANCH   1  10
ATOM      7  C   UNL     1       1.860  -2.408  -3.056  0.00  0.00    +0.000 C 
ATOM      8  C   UNL     1       2.560  -1.822  -1.831  0.00  0.00    +0.000 C 
ATOM      9  C   UNL     1       2.046  -0.418  -1.448  0.00  0.00    +0.000 C 
ATOM     10  N   UNL     1       2.567   0.615  -2.358  0.00  0.00    +0.000 N 
ATOM     11  C   UNL     1       4.028   0.562  -2.544  0.00  0.00    +0.000 C 
ATOM     12  C   UNL     1       4.470  -0.868  -2.927  0.00  0.00    +0.000 C 
ATOM     13  C   UNL     1       5.990  -0.962  -2.958  0.00  0.00    +0.000 C 
ATOM     14  O   UNL     1       3.993  -1.845  -1.984  0.00  0.00    +0.000 OA
ENDBRANCH   1  10
BRANCH   5  15
ATOM     15  C   UNL     1      -1.471   1.012  -5.209  0.00  0.00    +0.000 C 
ATOM     16  F   UNL     1      -2.095   1.811  -6.120  0.00  0.00    +0.000 F 
ATOM     17  F   UNL     1      -1.230  -0.164  -5.853  0.00  0.00    +0.000 F 
ATOM     18  F   UNL     1      -2.403   0.732  -4.257  0.00  0.00    +0.000 F 
ENDBRANCH   5  15
BRANCH   3  19
ATOM     19  C   UNL     1       1.944   4.739  -5.016  0.00  0.00    +0.000 C 
BRANCH  19  20
ATOM     20  C   UNL     1       2.778   4.543  -6.285  0.00  0.00    +0.000 C 
BRANCH  20  21
ATOM     21  N   UNL     1       3.290   5.817  -6.804  0.00  0.00    +0.000 N 
ATOM     22  H   UNL     1       3.744   6.378  -6.086  0.00  0.00    +0.000 HD
BRANCH  21  23
ATOM     23  C   UNL     1       4.065   5.748  -7.976  0.00  0.00    +0.000 A 
ATOM     24  C   UNL     1       3.860   4.779  -8.966  0.00  0.00    +0.000 A 
ATOM     25  C   UNL     1       4.611   4.783 -10.138  0.00  0.00    +0.000 A 
ATOM     26  C   UNL     1       5.543   5.790 -10.316  0.00  0.00    +0.000 A 
ATOM     27  N   UNL     1       5.762   6.785  -9.414  0.00  0.00    +0.000 NA
ATOM     28  C   UNL     1       5.004   6.740  -8.286  0.00  0.00    +0.000 A 
BRANCH  26  29
ATOM     29  C   UNL     1       6.354   5.813 -11.575  0.00  0.00    +0.000 C 
ATOM     30  N   UNL     1       7.255   6.838 -11.673  0.00  0.00    +0.000 N 
ATOM     31  O   UNL     1       6.228   4.978 -12.464  0.00  0.00    +0.000 OA
ATOM     32  H   UNL     1       7.312   7.527 -10.930  0.00  0.00    +0.000 HD
ATOM     33  H   UNL     1       7.809   6.931 -12.511  0.00  0.00    +0.000 HD
ENDBRANCH  26  29
ENDBRANCH  21  23
ENDBRANCH  20  21
ENDBRANCH  19  20
ENDBRANCH   3  19
TORSDOF 7
