REMARK  Name = 
REMARK  4 active torsions:
REMARK  status: ('A' for Active; 'I' for Inactive)
REMARK    1  A    between atoms: C_2  and  C_4
REMARK    2  A    between atoms: C_7  and  N_8
REMARK    3  A    between atoms: N_8  and  C_9
REMARK    4  A    between atoms: C_9  and  C_10
REMARK                            x       y       z     vdW  Elec       q    Type
REMARK                         _______ _______ _______ _____ _____    ______ ____
ROOT
ATOM      1  C   UNL     1       3.467  -1.033   0.728  0.00  0.00    +0.000 A 
ATOM      2  C   UNL     1       2.911  -1.984   1.587  0.00  0.00    +0.000 A 
ATOM      3  C   UNL     1       3.574  -2.329   2.770  0.00  0.00    +0.000 A 
ATOM      4  C   UNL     1       4.778  -1.720   3.138  0.00  0.00    +0.000 A 
ATOM      5  C   UNL     1       5.328  -0.777   2.257  0.00  0.00    +0.000 A 
ATOM      6  C   UNL     1       4.685  -0.438   1.060  0.00  0.00    +0.000 A 
ENDROOT
BRANCH   1   8
ATOM      7  N   UNL     1       1.461  -0.809  -0.634  0.00  0.00    +0.000 N 
ATOM      8  C   UNL     1       2.820  -0.678  -0.561  0.00  0.00    +0.000 C 
ATOM      9  O   UNL     1       3.465  -0.255  -1.512  0.00  0.00    +0.000 OA
ATOM     10  H   UNL     1       1.023  -0.479  -1.485  0.00  0.00    +0.000 HD
ATOM     11  H   UNL     1       0.882  -0.908   0.186  0.00  0.00    +0.000 HD
ENDBRANCH   1   8
BRANCH   4  12
ATOM     12  N   UNL     1       5.520  -2.095   4.256  0.00  0.00    +0.000 N 
ATOM     13  H   UNL     1       5.990  -1.317   4.710  0.00  0.00    +0.000 HD
BRANCH  12  14
ATOM     14  C   UNL     1       5.054  -3.153   5.142  0.00  0.00    +0.000 C 
BRANCH  14  15
ATOM     15  C   UNL     1       6.062  -3.420   6.273  0.00  0.00    +0.000 C 
ATOM     16  C   UNL     1       7.440  -3.827   5.722  0.00  0.00    +0.000 C 
ATOM     17  C   UNL     1       8.416  -4.186   6.840  0.00  0.00    +0.000 C 
ATOM     18  C   UNL     1       7.854  -5.276   7.745  0.00  0.00    +0.000 C 
ATOM     19  C   UNL     1       6.495  -4.879   8.312  0.00  0.00    +0.000 C 
ATOM     20  C   UNL     1       5.510  -4.511   7.207  0.00  0.00    +0.000 C 
ENDBRANCH  14  15
ENDBRANCH  12  14
ENDBRANCH   4  12
TORSDOF 4
