REMARK  Name = 
REMARK  4 active torsions:
REMARK  status: ('A' for Active; 'I' for Inactive)
REMARK    1  A    between atoms: C_2  and  C_4
REMARK    2  A    between atoms: N_8  and  C_9
REMARK    3  A    between atoms: C_9  and  C_10
REMARK    4  A    between atoms: C_15  and  C_16
REMARK                            x       y       z     vdW  Elec       q    Type
REMARK                         _______ _______ _______ _____ _____    ______ ____
ROOT
ATOM      1  C   UNL     1       6.290   1.081   4.954  0.00  0.00    +0.000 C 
ENDROOT
BRANCH   1   6
ATOM      2  C   UNL     1       3.960  -1.134   1.237  0.00  0.00    +0.000 A 
ATOM      3  C   UNL     1       5.259  -1.114   1.676  0.00  0.00    +0.000 A 
ATOM      4  N   UNL     1       5.631  -0.601   2.863  0.00  0.00    +0.000 NA
ATOM      5  C   UNL     1       4.671  -0.074   3.640  0.00  0.00    +0.000 A 
ATOM      6  N   UNL     1       5.001   0.421   4.888  0.00  0.00    +0.000 N 
ATOM      7  N   UNL     1       3.379  -0.024   3.291  0.00  0.00    +0.000 NA
ATOM      8  C   UNL     1       3.048  -0.554   2.088  0.00  0.00    +0.000 A 
ATOM      9  H   UNL     1       4.217   0.975   5.216  0.00  0.00    +0.000 HD
BRANCH   2  11
ATOM     10  N   UNL     1       4.342  -2.670  -0.600  0.00  0.00    +0.000 N 
ATOM     11  C   UNL     1       3.555  -1.691  -0.059  0.00  0.00    +0.000 C 
ATOM     12  O   UNL     1       2.536  -1.310  -0.618  0.00  0.00    +0.000 OA
ATOM     13  H   UNL     1       4.002  -3.097  -1.456  0.00  0.00    +0.000 HD
ATOM     14  H   UNL     1       5.040  -3.183  -0.081  0.00  0.00    +0.000 HD
ENDBRANCH   2  11
ENDBRANCH   1   6
BRANCH   1  15
ATOM     15  C   UNL     1       6.806   1.033   6.372  0.00  0.00    +0.000 A 
ATOM     16  C   UNL     1       7.116   2.201   7.068  0.00  0.00    +0.000 A 
ATOM     17  C   UNL     1       7.623   2.110   8.357  0.00  0.00    +0.000 A 
ATOM     18  F   UNL     1       7.927   3.233   9.021  0.00  0.00    +0.000 F 
ATOM     19  C   UNL     1       7.828   0.877   8.974  0.00  0.00    +0.000 A 
ATOM     20  C   UNL     1       7.544  -0.323   8.303  0.00  0.00    +0.000 A 
ATOM     21  C   UNL     1       7.037  -0.213   6.993  0.00  0.00    +0.000 A 
BRANCH  20  22
ATOM     22  C   UNL     1       7.775  -1.643   8.933  0.00  0.00    +0.000 A 
ATOM     23  C   UNL     1       6.984  -2.766   8.639  0.00  0.00    +0.000 A 
ATOM     24  C   UNL     1       7.238  -3.999   9.241  0.00  0.00    +0.000 A 
ATOM     25  C   UNL     1       8.280  -4.087  10.145  0.00  0.00    +0.000 A 
ATOM     26  N   UNL     1       9.069  -3.045  10.471  0.00  0.00    +0.000 NA
ATOM     27  C   UNL     1       8.800  -1.864   9.859  0.00  0.00    +0.000 A 
ENDBRANCH  20  22
ENDBRANCH   1  15
TORSDOF 4
