REMARK  Name = 
REMARK  4 active torsions:
REMARK  status: ('A' for Active; 'I' for Inactive)
REMARK    1  A    between atoms: C_2  and  C_3
REMARK    2  A    between atoms: C_6  and  N_7
REMARK    3  A    between atoms: N_7  and  C_8
REMARK    4  A    between atoms: C_8  and  C_9
REMARK                            x       y       z     vdW  Elec       q    Type
REMARK                         _______ _______ _______ _____ _____    ______ ____
ROOT
ATOM      1  N   UNL     1       3.431  -0.166  -0.102  0.00  0.00    +0.000 N 
ATOM      2  H   UNL     1       2.522  -0.531   0.170  0.00  0.00    +0.000 HD
ENDROOT
BRANCH   1   6
ATOM      3  C   UNL     1       3.184   1.902  -3.802  0.00  0.00    +0.000 A 
ATOM      4  C   UNL     1       2.037   1.676  -3.035  0.00  0.00    +0.000 A 
ATOM      5  C   UNL     1       2.133   1.005  -1.802  0.00  0.00    +0.000 A 
ATOM      6  C   UNL     1       3.365   0.531  -1.338  0.00  0.00    +0.000 A 
ATOM      7  C   UNL     1       4.511   0.827  -2.091  0.00  0.00    +0.000 A 
ATOM      8  C   UNL     1       4.423   1.490  -3.321  0.00  0.00    +0.000 A 
BRANCH   3  10
ATOM      9  N   UNL     1       3.010   3.067  -6.112  0.00  0.00    +0.000 NA
ATOM     10  C   UNL     1       3.087   2.553  -5.080  0.00  0.00    +0.000 C 
ENDBRANCH   3  10
ENDBRANCH   1   6
BRANCH   1  11
ATOM     11  C   UNL     1       4.580  -1.080   0.156  0.00  0.00    +0.000 C 
ATOM     12  C   UNL     1       4.793  -2.194  -0.864  0.00  0.00    +0.000 C 
ATOM     13  C   UNL     1       4.374  -2.553   0.518  0.00  0.00    +0.000 C 
BRANCH  11  14
ATOM     14  C   UNL     1       5.759  -0.482   0.937  0.00  0.00    +0.000 A 
ATOM     15  C   UNL     1       5.638  -0.301   2.320  0.00  0.00    +0.000 A 
ATOM     16  C   UNL     1       6.780  -0.123   3.095  0.00  0.00    +0.000 A 
ATOM     17  C   UNL     1       8.015  -0.070   2.468  0.00  0.00    +0.000 A 
ATOM     18  C   UNL     1       8.051  -0.147   1.087  0.00  0.00    +0.000 A 
ATOM     19  N   UNL     1       6.963  -0.353   0.316  0.00  0.00    +0.000 NA
ENDBRANCH  11  14
ENDBRANCH   1  11
TORSDOF 4
