REMARK  Name = 
REMARK  7 active torsions:
REMARK  status: ('A' for Active; 'I' for Inactive)
REMARK    1  A    between atoms: C_2  and  C_3
REMARK    2  A    between atoms: C_7  and  C_8
REMARK    3  A    between atoms: N_10  and  C_11
REMARK    4  A    between atoms: C_11  and  C_12
REMARK    5  A    between atoms: C_15  and  C_16
REMARK    6  A    between atoms: C_16  and  N_17
REMARK    7  A    between atoms: C_18  and  C_20
REMARK                            x       y       z     vdW  Elec       q    Type
REMARK                         _______ _______ _______ _____ _____    ______ ____
ROOT
ATOM      1  C   UNL     1       3.982   6.076   1.186  0.00  0.00    +0.000 A 
ATOM      2  C   UNL     1       5.128   6.697   1.700  0.00  0.00    +0.000 A 
ATOM      3  C   UNL     1       5.022   7.773   2.593  0.00  0.00    +0.000 A 
ATOM      4  C   UNL     1       3.767   8.239   3.009  0.00  0.00    +0.000 A 
ATOM      5  C   UNL     1       2.622   7.635   2.473  0.00  0.00    +0.000 A 
ATOM      6  C   UNL     1       2.728   6.557   1.585  0.00  0.00    +0.000 A 
ENDROOT
BRANCH   1   7
ATOM      7  C   UNL     1       4.090   4.929   0.212  0.00  0.00    +0.000 C 
BRANCH   7  10
ATOM      8  C   UNL     1       2.995   2.887   1.047  0.00  0.00    +0.000 C 
ATOM      9  O   UNL     1       1.880   3.283   0.721  0.00  0.00    +0.000 OA
ATOM     10  N   UNL     1       4.135   3.634   0.861  0.00  0.00    +0.000 N 
ATOM     11  H   UNL     1       5.013   3.331   1.262  0.00  0.00    +0.000 HD
BRANCH   8  16
ATOM     12  C   UNL     1       1.901   0.723   1.766  0.00  0.00    +0.000 C 
ATOM     13  C   UNL     1       2.344  -0.736   1.866  0.00  0.00    +0.000 C 
ATOM     14  C   UNL     1       3.742  -0.801   1.255  0.00  0.00    +0.000 C 
ATOM     15  C   UNL     1       4.091   0.616   0.817  0.00  0.00    +0.000 C 
ATOM     16  C   UNL     1       3.214   1.520   1.677  0.00  0.00    +0.000 C 
BRANCH  12  18
ATOM     17  N   UNL     1       0.450   1.509   4.004  0.00  0.00    +0.000 NA
ATOM     18  C   UNL     1       1.108   1.153   2.989  0.00  0.00    +0.000 C 
ENDBRANCH  12  18
ENDBRANCH   8  16
ENDBRANCH   7  10
ENDBRANCH   1   7
BRANCH   4  19
ATOM     19  C   UNL     1       3.638   9.363   4.011  0.00  0.00    +0.000 C 
BRANCH  19  20
ATOM     20  N   UNL     1       3.596  10.652   3.371  0.00  0.00    +0.000 N 
ATOM     21  C   UNL     1       3.509  11.815   4.096  0.00  0.00    +0.000 C 
ATOM     22  O   UNL     1       3.507  11.831   5.323  0.00  0.00    +0.000 OA
ATOM     23  H   UNL     1       3.312  10.661   2.398  0.00  0.00    +0.000 HD
BRANCH  21  24
ATOM     24  C   UNL     1       3.475  13.061   3.313  0.00  0.00    +0.000 A 
ATOM     25  C   UNL     1       3.930  14.249   3.868  0.00  0.00    +0.000 A 
ATOM     26  S   UNL     1       3.867  15.574   2.792  0.00  0.00    +0.000 S 
ATOM     27  C   UNL     1       3.180  14.613   1.565  0.00  0.00    +0.000 A 
ATOM     28  N   UNL     1       2.849  15.149   0.359  0.00  0.00    +0.000 NA
ATOM     29  C   UNL     1       2.315  14.312  -0.466  0.00  0.00    +0.000 A 
ATOM     30  N   UNL     1       2.090  12.987  -0.196  0.00  0.00    +0.000 N 
ATOM     31  C   UNL     1       2.434  12.397   0.993  0.00  0.00    +0.000 A 
ATOM     32  O   UNL     1       2.267  11.200   1.177  0.00  0.00    +0.000 OA
ATOM     33  C   UNL     1       3.023  13.299   1.963  0.00  0.00    +0.000 A 
ATOM     34  H   UNL     1       1.681  12.378  -0.892  0.00  0.00    +0.000 HD
ENDBRANCH  21  24
ENDBRANCH  19  20
ENDBRANCH   4  19
TORSDOF 7
