REMARK  Name = 
REMARK  6 active torsions:
REMARK  status: ('A' for Active; 'I' for Inactive)
REMARK    1  A    between atoms: C_1  and  C_2
REMARK    2  A    between atoms: C_2  and  N_3
REMARK    3  A    between atoms: C_2  and  C_16
REMARK    4  A    between atoms: C_4  and  C_6
REMARK    5  A    between atoms: C_19  and  O_20
REMARK    6  A    between atoms: O_20  and  C_21
REMARK                            x       y       z     vdW  Elec       q    Type
REMARK                         _______ _______ _______ _____ _____    ______ ____
ROOT
ATOM      1  C   UNL     1       3.228  -0.496   1.438  0.00  0.00    +0.000 C 
ATOM      2  C   UNL     1       2.559  -0.053   0.132  0.00  0.00    +0.000 C 
ENDROOT
BRANCH   2   3
ATOM      3  C   UNL     1       3.034  -0.836  -1.081  0.00  0.00    +0.000 A 
ATOM      4  C   UNL     1       3.082  -0.200  -2.332  0.00  0.00    +0.000 A 
ATOM      5  C   UNL     1       3.491  -0.896  -3.473  0.00  0.00    +0.000 A 
ATOM      6  C   UNL     1       3.904  -2.225  -3.368  0.00  0.00    +0.000 A 
ATOM      7  C   UNL     1       3.800  -2.884  -2.145  0.00  0.00    +0.000 A 
ATOM      8  C   UNL     1       3.359  -2.199  -1.012  0.00  0.00    +0.000 A 
BRANCH   6   9
ATOM      9  O   UNL     1       4.338  -2.992  -4.422  0.00  0.00    +0.000 OA
BRANCH   9  10
ATOM     10  C   UNL     1       5.130  -2.446  -5.405  0.00  0.00    +0.000 A 
ATOM     11  C   UNL     1       5.981  -1.357  -5.243  0.00  0.00    +0.000 A 
ATOM     12  C   UNL     1       6.696  -0.922  -6.345  0.00  0.00    +0.000 A 
ATOM     13  N   UNL     1       6.654  -1.521  -7.554  0.00  0.00    +0.000 NA
ATOM     14  C   UNL     1       5.866  -2.612  -7.664  0.00  0.00    +0.000 A 
ATOM     15  C   UNL     1       5.094  -3.107  -6.629  0.00  0.00    +0.000 A 
ENDBRANCH   9  10
ENDBRANCH   6   9
ENDBRANCH   2   3
BRANCH   2  16
ATOM     16  N   UNL     1       1.116  -0.160   0.219  0.00  0.00    +0.000 N 
ATOM     17  C   UNL     1       0.327   0.787   0.813  0.00  0.00    +0.000 C 
ATOM     18  O   UNL     1       0.804   1.813   1.293  0.00  0.00    +0.000 OA
ATOM     19  H   UNL     1       0.702  -1.001  -0.171  0.00  0.00    +0.000 HD
BRANCH  17  20
ATOM     20  C   UNL     1      -1.122   0.523   0.861  0.00  0.00    +0.000 A 
ATOM     21  C   UNL     1      -1.968   1.486   1.399  0.00  0.00    +0.000 A 
ATOM     22  S   UNL     1      -3.608   1.027   1.432  0.00  0.00    +0.000 S 
ATOM     23  C   UNL     1      -3.256  -0.481   0.731  0.00  0.00    +0.000 A 
ATOM     24  N   UNL     1      -4.245  -1.390   0.512  0.00  0.00    +0.000 NA
ATOM     25  C   UNL     1      -3.846  -2.494  -0.024  0.00  0.00    +0.000 A 
ATOM     26  N   UNL     1      -2.551  -2.764  -0.378  0.00  0.00    +0.000 N 
ATOM     27  C   UNL     1      -1.521  -1.874  -0.187  0.00  0.00    +0.000 A 
ATOM     28  O   UNL     1      -0.381  -2.144  -0.546  0.00  0.00    +0.000 OA
ATOM     29  C   UNL     1      -1.907  -0.622   0.448  0.00  0.00    +0.000 A 
ATOM     30  H   UNL     1      -2.305  -3.644  -0.808  0.00  0.00    +0.000 HD
ENDBRANCH  17  20
ENDBRANCH   2  16
TORSDOF 5
