REMARK  Name = 
REMARK  9 active torsions:
REMARK  status: ('A' for Active; 'I' for Inactive)
REMARK    1  A    between atoms: C_1  and  C_2
REMARK    2  A    between atoms: C_2  and  O_3
REMARK    3  A    between atoms: C_2  and  C_13
REMARK    4  A    between atoms: O_3  and  C_4
REMARK    5  A    between atoms: C_8  and  C_9
REMARK    6  A    between atoms: C_17  and  C_18
REMARK    7  A    between atoms: C_18  and  C_19
REMARK    8  A    between atoms: C_18  and  C_20
REMARK    9  A    between atoms: C_18  and  C_21
REMARK                            x       y       z     vdW  Elec       q    Type
REMARK                         _______ _______ _______ _____ _____    ______ ____
ROOT
ATOM      1  C   UNL     1       3.631  -0.683  -0.768  0.00  0.00    +0.000 C 
ATOM      2  C   UNL     1       2.440  -0.063  -0.025  0.00  0.00    +0.000 C 
ENDROOT
BRANCH   2   3
ATOM      3  C   UNL     1       2.934   0.436   1.325  0.00  0.00    +0.000 A 
ATOM      4  C   UNL     1       2.874   1.792   1.613  0.00  0.00    +0.000 A 
ATOM      5  C   UNL     1       3.245   2.211   2.878  0.00  0.00    +0.000 A 
ATOM      6  C   UNL     1       3.688   1.278   3.811  0.00  0.00    +0.000 A 
ATOM      7  C   UNL     1       3.772  -0.068   3.458  0.00  0.00    +0.000 A 
ATOM      8  N   UNL     1       3.388  -0.481   2.224  0.00  0.00    +0.000 NA
BRANCH   7   9
ATOM      9  C   UNL     1       4.239  -1.142   4.451  0.00  0.00    +0.000 C 
ATOM     10  C   UNL     1       3.028  -1.696   5.226  0.00  0.00    +0.000 C 
ATOM     11  C   UNL     1       4.914  -2.300   3.685  0.00  0.00    +0.000 C 
ATOM     12  C   UNL     1       5.259  -0.610   5.481  0.00  0.00    +0.000 C 
ENDBRANCH   7   9
ENDBRANCH   2   3
BRANCH   2  13
ATOM     13  O   UNL     1       1.377  -1.027   0.174  0.00  0.00    +0.000 OA
BRANCH  13  14
ATOM     14  C   UNL     1       0.123  -0.449   0.297  0.00  0.00    +0.000 A 
ATOM     15  C   UNL     1      -0.861  -1.093   1.054  0.00  0.00    +0.000 A 
ATOM     16  N   UNL     1      -2.121  -0.594   1.199  0.00  0.00    +0.000 NA
ATOM     17  C   UNL     1      -2.343   0.596   0.586  0.00  0.00    +0.000 A 
ATOM     18  C   UNL     1      -1.357   1.247  -0.152  0.00  0.00    +0.000 A 
ATOM     19  N   UNL     1      -0.115   0.725  -0.341  0.00  0.00    +0.000 NA
BRANCH  18  20
ATOM     20  C   UNL     1      -1.617   2.610  -0.699  0.00  0.00    +0.000 C 
ATOM     21  N   UNL     1      -0.632   3.247  -1.396  0.00  0.00    +0.000 N 
ATOM     22  O   UNL     1      -2.697   3.168  -0.507  0.00  0.00    +0.000 OA
ATOM     23  H   UNL     1       0.274   2.829  -1.602  0.00  0.00    +0.000 HD
ATOM     24  H   UNL     1      -0.832   4.170  -1.771  0.00  0.00    +0.000 HD
ENDBRANCH  18  20
ENDBRANCH  13  14
ENDBRANCH   2  13
TORSDOF 5
