REMARK  Name = 
REMARK  5 active torsions:
REMARK  status: ('A' for Active; 'I' for Inactive)
REMARK    1  A    between atoms: C_2  and  C_3
REMARK    2  A    between atoms: C_6  and  C_7
REMARK    3  A    between atoms: C_7  and  N_8
REMARK    4  A    between atoms: N_8  and  C_9
REMARK    5  A    between atoms: C_12  and  C_13
REMARK                            x       y       z     vdW  Elec       q    Type
REMARK                         _______ _______ _______ _____ _____    ______ ____
ROOT
ATOM      1  N   UNL     1      -4.425   1.274   0.022  0.00  0.00    +0.000 N 
ATOM      2  H   UNL     1      -3.979   1.914  -0.635  0.00  0.00    +0.000 HD
ENDROOT
BRANCH   1   3
ATOM      3  C   UNL     1      -5.820   1.331  -0.093  0.00  0.00    +0.000 A 
ATOM      4  C   UNL     1      -6.706   0.358   0.352  0.00  0.00    +0.000 A 
ATOM      5  N   UNL     1      -8.055   0.454   0.307  0.00  0.00    +0.000 NA
ATOM      6  C   UNL     1      -8.534   1.619  -0.186  0.00  0.00    +0.000 A 
ATOM      7  N   UNL     1      -7.790   2.652  -0.621  0.00  0.00    +0.000 NA
ATOM      8  C   UNL     1      -6.454   2.480  -0.547  0.00  0.00    +0.000 A 
BRANCH   6   9
ATOM      9  C   UNL     1     -10.037   1.774  -0.219  0.00  0.00    +0.000 C 
ATOM     10  N   UNL     1     -10.757   0.703   0.260  0.00  0.00    +0.000 N 
ATOM     11  O   UNL     1     -10.614   2.773  -0.631  0.00  0.00    +0.000 OA
ATOM     12  H   UNL     1     -10.279  -0.115   0.619  0.00  0.00    +0.000 HD
ATOM     13  H   UNL     1     -11.765   0.762   0.275  0.00  0.00    +0.000 HD
ENDBRANCH   6   9
ENDBRANCH   1   3
BRANCH   1  14
ATOM     14  C   UNL     1      -3.797  -0.046  -0.006  0.00  0.00    +0.000 C 
BRANCH  14  18
ATOM     15  C   UNL     1       0.458   0.015   0.228  0.00  0.00    +0.000 A 
ATOM     16  C   UNL     1      -0.227   1.028   0.889  0.00  0.00    +0.000 A 
ATOM     17  C   UNL     1      -1.624   1.033   0.836  0.00  0.00    +0.000 A 
ATOM     18  C   UNL     1      -2.295   0.047   0.102  0.00  0.00    +0.000 A 
ATOM     19  C   UNL     1      -1.514  -0.931  -0.509  0.00  0.00    +0.000 A 
ATOM     20  N   UNL     1      -0.162  -0.967  -0.466  0.00  0.00    +0.000 NA
BRANCH  15  22
ATOM     21  N   UNL     1       3.058  -0.038   0.307  0.00  0.00    +0.000 NA
ATOM     22  C   UNL     1       1.895  -0.033   0.255  0.00  0.00    +0.000 C 
ENDBRANCH  15  22
ENDBRANCH  14  18
ENDBRANCH   1  14
TORSDOF 5
