REMARK  Name = 
REMARK  8 active torsions:
REMARK  status: ('A' for Active; 'I' for Inactive)
REMARK    1  A    between atoms: C_1  and  O_2
REMARK    2  A    between atoms: O_2  and  C_3
REMARK    3  A    between atoms: C_3  and  C_5
REMARK    4  A    between atoms: N_9  and  C_10
REMARK    5  A    between atoms: C_10  and  C_11
REMARK    6  A    between atoms: C_11  and  C_12
REMARK    7  A    between atoms: C_11  and  C_13
REMARK    8  A    between atoms: C_11  and  C_14
REMARK                            x       y       z     vdW  Elec       q    Type
REMARK                         _______ _______ _______ _____ _____    ______ ____
ROOT
ATOM      1  C   UNL     1       4.688  -0.804  -0.373  0.00  0.00    +0.000 A 
ATOM      2  C   UNL     1       5.230  -1.454  -1.479  0.00  0.00    +0.000 A 
ATOM      3  C   UNL     1       6.618  -1.504  -1.627  0.00  0.00    +0.000 A 
ATOM      4  C   UNL     1       7.446  -0.943  -0.653  0.00  0.00    +0.000 A 
ATOM      5  N   UNL     1       8.831  -0.924  -0.873  0.00  0.00    +0.000 N 
ATOM      6  N   UNL     1       6.930  -0.323   0.427  0.00  0.00    +0.000 NA
ATOM      7  C   UNL     1       5.576  -0.254   0.539  0.00  0.00    +0.000 A 
ATOM      8  H   UNL     1       9.106  -1.613  -1.560  0.00  0.00    +0.000 HD
ENDROOT
BRANCH   1   9
ATOM      9  C   UNL     1       3.237  -0.667  -0.125  0.00  0.00    +0.000 C 
ATOM     10  O   UNL     1       2.771  -0.064   0.821  0.00  0.00    +0.000 OA
BRANCH   9  12
ATOM     11  C   UNL     1       1.114  -1.245  -0.922  0.00  0.00    +0.000 C 
ATOM     12  O   UNL     1       2.531  -1.309  -1.091  0.00  0.00    +0.000 OA
ENDBRANCH   9  12
ENDBRANCH   1   9
BRANCH   5  13
ATOM     13  C   UNL     1       9.645  -0.960   0.354  0.00  0.00    +0.000 C 
BRANCH  13  14
ATOM     14  C   UNL     1      11.171  -1.071   0.047  0.00  0.00    +0.000 C 
ATOM     15  C   UNL     1      11.465  -2.392  -0.711  0.00  0.00    +0.000 C 
ATOM     16  C   UNL     1      11.626   0.095  -0.854  0.00  0.00    +0.000 C 
BRANCH  14  17
ATOM     17  C   UNL     1      11.957  -1.041   1.373  0.00  0.00    +0.000 A 
ATOM     18  C   UNL     1      11.885   0.054   2.240  0.00  0.00    +0.000 A 
ATOM     19  C   UNL     1      12.614   0.038   3.429  0.00  0.00    +0.000 A 
ATOM     20  C   UNL     1      13.405  -1.060   3.732  0.00  0.00    +0.000 A 
ATOM     21  C   UNL     1      13.428  -2.105   2.828  0.00  0.00    +0.000 A 
ATOM     22  N   UNL     1      12.728  -2.117   1.673  0.00  0.00    +0.000 NA
ENDBRANCH  14  17
ENDBRANCH  13  14
ENDBRANCH   5  13
TORSDOF 5
