REMARK  Name = 
REMARK  7 active torsions:
REMARK  status: ('A' for Active; 'I' for Inactive)
REMARK    1  A    between atoms: C_2  and  C_4
REMARK    2  A    between atoms: C_7  and  N_8
REMARK    3  A    between atoms: N_8  and  C_9
REMARK    4  A    between atoms: C_9  and  C_10
REMARK    5  A    between atoms: C_10  and  C_13
REMARK    6  A    between atoms: C_18  and  O_19
REMARK    7  A    between atoms: O_19  and  C_20
REMARK                            x       y       z     vdW  Elec       q    Type
REMARK                         _______ _______ _______ _____ _____    ______ ____
ROOT
ATOM      1  C   UNL     1       6.148  -6.451  -2.845  0.00  0.00    +0.000 C 
ATOM      2  F   UNL     1       7.416  -5.967  -3.012  0.00  0.00    +0.000 F 
ATOM      3  F   UNL     1       6.175  -7.112  -1.647  0.00  0.00    +0.000 F 
ENDROOT
BRANCH   1   4
ATOM      4  C   UNL     1       5.747  -7.364  -3.990  0.00  0.00    +0.000 A 
ATOM      5  C   UNL     1       6.234  -7.146  -5.286  0.00  0.00    +0.000 A 
ATOM      6  C   UNL     1       5.876  -8.004  -6.329  0.00  0.00    +0.000 A 
ATOM      7  C   UNL     1       5.027  -9.082  -6.086  0.00  0.00    +0.000 A 
ATOM      8  F   UNL     1       4.737  -9.896  -7.110  0.00  0.00    +0.000 F 
ATOM      9  C   UNL     1       4.520  -9.310  -4.807  0.00  0.00    +0.000 A 
ATOM     10  C   UNL     1       4.886  -8.452  -3.765  0.00  0.00    +0.000 A 
BRANCH   9  11
ATOM     11  O   UNL     1       3.711 -10.352  -4.430  0.00  0.00    +0.000 OA
BRANCH  11  12
ATOM     12  C   UNL     1       2.892 -11.018  -5.415  0.00  0.00    +0.000 C 
ATOM     13  C   UNL     1       1.716 -10.209  -6.012  0.00  0.00    +0.000 C 
ATOM     14  C   UNL     1       0.772 -11.378  -5.705  0.00  0.00    +0.000 C 
ATOM     15  C   UNL     1       1.849 -11.980  -4.798  0.00  0.00    +0.000 C 
ENDBRANCH  11  12
ENDBRANCH   9  11
ENDBRANCH   1   4
BRANCH   1  16
ATOM     16  C   UNL     1       5.169  -5.255  -2.708  0.00  0.00    +0.000 C 
BRANCH  16  17
ATOM     17  N   UNL     1       5.536  -4.344  -1.611  0.00  0.00    +0.000 N 
ATOM     18  H   UNL     1       5.957  -4.801  -0.803  0.00  0.00    +0.000 HD
BRANCH  17  22
ATOM     19  C   UNL     1       3.470  -0.777  -0.729  0.00  0.00    +0.000 A 
ATOM     20  C   UNL     1       3.015  -1.596  -1.764  0.00  0.00    +0.000 A 
ATOM     21  C   UNL     1       3.679  -2.796  -2.054  0.00  0.00    +0.000 A 
ATOM     22  C   UNL     1       4.783  -3.217  -1.305  0.00  0.00    +0.000 A 
ATOM     23  C   UNL     1       5.236  -2.372  -0.281  0.00  0.00    +0.000 A 
ATOM     24  C   UNL     1       4.592  -1.161   0.005  0.00  0.00    +0.000 A 
BRANCH  19  26
ATOM     25  N   UNL     1       1.492   0.645  -0.717  0.00  0.00    +0.000 N 
ATOM     26  C   UNL     1       2.820   0.522  -0.417  0.00  0.00    +0.000 C 
ATOM     27  O   UNL     1       3.432   1.438   0.117  0.00  0.00    +0.000 OA
ATOM     28  H   UNL     1       1.041   1.495  -0.403  0.00  0.00    +0.000 HD
ATOM     29  H   UNL     1       0.906  -0.154  -0.909  0.00  0.00    +0.000 HD
ENDBRANCH  19  26
ENDBRANCH  17  22
ENDBRANCH  16  17
ENDBRANCH   1  16
TORSDOF 7
