REMARK  Name = 
REMARK  4 active torsions:
REMARK  status: ('A' for Active; 'I' for Inactive)
REMARK    1  A    between atoms: N_1  and  C_2
REMARK    2  A    between atoms: C_2  and  C_3
REMARK    3  A    between atoms: C_6  and  C_7
REMARK    4  A    between atoms: C_7  and  N_8
REMARK                            x       y       z     vdW  Elec       q    Type
REMARK                         _______ _______ _______ _____ _____    ______ ____
ROOT
ATOM      1  C   UNL     1       2.877  -1.138  -0.746  0.00  0.00    +0.000 A 
ATOM      2  C   UNL     1       1.901  -1.235  -1.746  0.00  0.00    +0.000 A 
ATOM      3  C   UNL     1       2.156  -1.937  -2.929  0.00  0.00    +0.000 A 
ATOM      4  C   UNL     1       3.398  -2.554  -3.139  0.00  0.00    +0.000 A 
ATOM      5  C   UNL     1       4.380  -2.412  -2.156  0.00  0.00    +0.000 A 
ATOM      6  F   UNL     1       5.596  -2.942  -2.346  0.00  0.00    +0.000 F 
ATOM      7  C   UNL     1       4.131  -1.720  -0.974  0.00  0.00    +0.000 A 
ENDROOT
BRANCH   1   8
ATOM      8  C   UNL     1       2.573  -0.469   0.570  0.00  0.00    +0.000 C 
BRANCH   8   9
ATOM      9  N   UNL     1       3.455   0.660   0.825  0.00  0.00    +0.000 NA
ATOM     10  H   UNL     1       3.169   1.116   1.689  0.00  0.00    +0.000 HD
ATOM     11  H   UNL     1       3.334   1.349   0.083  0.00  0.00    +0.000 HD
ENDBRANCH   8   9
ENDBRANCH   1   8
BRANCH   4  12
ATOM     12  C   UNL     1       3.665  -3.363  -4.377  0.00  0.00    +0.000 C 
BRANCH  12  13
ATOM     13  N   UNL     1       3.288  -4.767  -4.216  0.00  0.00    +0.000 N 
ATOM     14  C   UNL     1       2.021  -5.258  -4.440  0.00  0.00    +0.000 A 
ATOM     15  C   UNL     1       2.071  -6.632  -4.353  0.00  0.00    +0.000 A 
ATOM     16  C   UNL     1       3.408  -6.989  -4.071  0.00  0.00    +0.000 A 
ATOM     17  N   UNL     1       3.940  -8.227  -3.926  0.00  0.00    +0.000 NA
ATOM     18  C   UNL     1       5.262  -8.248  -3.663  0.00  0.00    +0.000 A 
ATOM     19  C   UNL     1       6.074  -7.133  -3.519  0.00  0.00    +0.000 A 
ATOM     20  C   UNL     1       5.520  -5.865  -3.670  0.00  0.00    +0.000 A 
ATOM     21  C   UNL     1       4.154  -5.812  -3.964  0.00  0.00    +0.000 A 
ENDBRANCH  12  13
ENDBRANCH   4  12
TORSDOF 4
