REMARK  Name = 
REMARK  10 active torsions:
REMARK  status: ('A' for Active; 'I' for Inactive)
REMARK    1  A    between atoms: C_1  and  C_2
REMARK    2  A    between atoms: C_2  and  N_3
REMARK    3  A    between atoms: C_6  and  C_7
REMARK    4  A    between atoms: C_11  and  C_12
REMARK    5  A    between atoms: C_12  and  C_13
REMARK    6  A    between atoms: C_12  and  C_14
REMARK    7  A    between atoms: C_12  and  C_15
REMARK    8  A    between atoms: C_15  and  N_16
REMARK    9  A    between atoms: N_16  and  C_17
REMARK   10  A    between atoms: C_20  and  C_21
REMARK                            x       y       z     vdW  Elec       q    Type
REMARK                         _______ _______ _______ _____ _____    ______ ____
ROOT
ATOM      1  C   UNL     1       8.482   5.509   2.018  0.00  0.00    +0.000 C 
ATOM      2  C   UNL     1       9.990   5.211   1.833  0.00  0.00    +0.000 C 
ATOM      3  C   UNL     1       8.121   6.761   1.184  0.00  0.00    +0.000 C 
ENDROOT
BRANCH   1   8
ATOM      4  C   UNL     1       5.853   2.682   1.870  0.00  0.00    +0.000 A 
ATOM      5  C   UNL     1       5.958   2.315   0.524  0.00  0.00    +0.000 A 
ATOM      6  C   UNL     1       6.908   2.902  -0.308  0.00  0.00    +0.000 A 
ATOM      7  C   UNL     1       7.743   3.901   0.181  0.00  0.00    +0.000 A 
ATOM      8  C   UNL     1       7.670   4.303   1.522  0.00  0.00    +0.000 A 
ATOM      9  C   UNL     1       6.789   3.601   2.360  0.00  0.00    +0.000 A 
BRANCH   4  13
ATOM     10  N   UNL     1       2.071   2.969   1.928  0.00  0.00    +0.000 NA
ATOM     11  C   UNL     1       2.785   1.841   1.315  0.00  0.00    +0.000 C 
ATOM     12  C   UNL     1       3.799   1.157   2.230  0.00  0.00    +0.000 C 
ATOM     13  C   UNL     1       4.796   2.144   2.834  0.00  0.00    +0.000 C 
ATOM     14  C   UNL     1       3.971   3.251   3.523  0.00  0.00    +0.000 C 
ATOM     15  C   UNL     1       2.976   3.928   2.578  0.00  0.00    +0.000 C 
BRANCH  10  17
ATOM     16  C   UNL     1       0.167   2.774   0.326  0.00  0.00    +0.000 C 
ATOM     17  C   UNL     1       1.252   3.669   0.917  0.00  0.00    +0.000 C 
ENDBRANCH  10  17
ENDBRANCH   4  13
ENDBRANCH   1   8
BRANCH   1  18
ATOM     18  C   UNL     1       8.278   5.853   3.522  0.00  0.00    +0.000 C 
BRANCH  18  19
ATOM     19  N   UNL     1       6.909   6.271   3.885  0.00  0.00    +0.000 N 
ATOM     20  H   UNL     1       6.181   5.741   3.406  0.00  0.00    +0.000 HD
BRANCH  19  21
ATOM     21  C   UNL     1       6.659   6.426   5.262  0.00  0.00    +0.000 A 
ATOM     22  C   UNL     1       7.614   6.977   6.115  0.00  0.00    +0.000 A 
ATOM     23  C   UNL     1       7.324   7.204   7.451  0.00  0.00    +0.000 A 
ATOM     24  C   UNL     1       6.066   6.880   7.918  0.00  0.00    +0.000 A 
ATOM     25  N   UNL     1       5.085   6.345   7.136  0.00  0.00    +0.000 NA
ATOM     26  C   UNL     1       5.406   6.160   5.827  0.00  0.00    +0.000 A 
BRANCH  24  27
ATOM     27  C   UNL     1       5.724   7.152   9.349  0.00  0.00    +0.000 C 
ATOM     28  N   UNL     1       4.458   6.811   9.726  0.00  0.00    +0.000 N 
ATOM     29  O   UNL     1       6.512   7.668  10.125  0.00  0.00    +0.000 OA
ATOM     30  H   UNL     1       3.815   6.431   9.037  0.00  0.00    +0.000 HD
ATOM     31  H   UNL     1       4.146   7.028  10.660  0.00  0.00    +0.000 HD
ENDBRANCH  24  27
ENDBRANCH  19  21
ENDBRANCH  18  19
ENDBRANCH   1  18
TORSDOF 7
