REMARK  Name = 
REMARK  5 active torsions:
REMARK  status: ('A' for Active; 'I' for Inactive)
REMARK    1  A    between atoms: C_1  and  C_2
REMARK    2  A    between atoms: C_4  and  O_5
REMARK    3  A    between atoms: O_5  and  C_6
REMARK    4  A    between atoms: C_6  and  C_7
REMARK    5  A    between atoms: C_11  and  C_12
REMARK                            x       y       z     vdW  Elec       q    Type
REMARK                         _______ _______ _______ _____ _____    ______ ____
ROOT
ATOM      1  C   UNL     1       5.807  -4.700   0.048  0.00  0.00    +0.000 A 
ATOM      2  C   UNL     1       5.351  -6.017   0.051  0.00  0.00    +0.000 A 
ATOM      3  C   UNL     1       6.278  -7.052   0.044  0.00  0.00    +0.000 A 
ATOM      4  C   UNL     1       7.636  -6.753   0.050  0.00  0.00    +0.000 A 
ATOM      5  C   UNL     1       8.040  -5.418   0.058  0.00  0.00    +0.000 A 
ATOM      6  N   UNL     1       7.136  -4.400   0.058  0.00  0.00    +0.000 NA
ENDROOT
BRANCH   5   7
ATOM      7  C   UNL     1       9.461  -5.027   0.091  0.00  0.00    +0.000 A 
ATOM      8  C   UNL     1      10.469  -5.802  -0.501  0.00  0.00    +0.000 A 
ATOM      9  N   UNL     1      11.798  -5.521  -0.472  0.00  0.00    +0.000 NA
ATOM     10  C   UNL     1      12.154  -4.391   0.178  0.00  0.00    +0.000 A 
ATOM     11  C   UNL     1      11.243  -3.544   0.782  0.00  0.00    +0.000 A 
ATOM     12  F   UNL     1      11.660  -2.438   1.412  0.00  0.00    +0.000 F 
ATOM     13  C   UNL     1       9.891  -3.859   0.737  0.00  0.00    +0.000 A 
ENDBRANCH   5   7
BRANCH   1  14
ATOM     14  C   UNL     1       4.810  -3.552   0.055  0.00  0.00    +0.000 C 
BRANCH  14  15
ATOM     15  O   UNL     1       4.461  -3.258   1.403  0.00  0.00    +0.000 OA
BRANCH  15  19
ATOM     16  C   UNL     1       1.536   0.121  -0.440  0.00  0.00    +0.000 C 
ATOM     17  C   UNL     1       2.154  -0.605   0.719  0.00  0.00    +0.000 A 
ATOM     18  N   UNL     1       3.040  -1.604   0.465  0.00  0.00    +0.000 NA
ATOM     19  C   UNL     1       3.567  -2.221   1.542  0.00  0.00    +0.000 A 
ATOM     20  N   UNL     1       3.273  -1.933   2.824  0.00  0.00    +0.000 NA
ATOM     21  C   UNL     1       2.389  -0.936   3.024  0.00  0.00    +0.000 A 
ATOM     22  C   UNL     1       1.797  -0.238   2.003  0.00  0.00    +0.000 A 
ATOM     23  F   UNL     1       0.919   0.743   2.248  0.00  0.00    +0.000 F 
ENDBRANCH  15  19
ENDBRANCH  14  15
ENDBRANCH   1  14
TORSDOF 4
