REMARK  Name = 
REMARK  6 active torsions:
REMARK  status: ('A' for Active; 'I' for Inactive)
REMARK    1  A    between atoms: N_1  and  C_2
REMARK    2  A    between atoms: C_2  and  C_3
REMARK    3  A    between atoms: C_3  and  C_4
REMARK    4  A    between atoms: C_7  and  C_8
REMARK    5  A    between atoms: C_8  and  N_9
REMARK    6  A    between atoms: C_14  and  C_15
REMARK                            x       y       z     vdW  Elec       q    Type
REMARK                         _______ _______ _______ _____ _____    ______ ____
ROOT
ATOM      1  N   UNL     1       9.734  -0.352   0.394  0.00  0.00    +0.000 N 
ATOM      2  C   UNL     1       9.942   0.867   0.985  0.00  0.00    +0.000 A 
ATOM      3  N   UNL     1      10.523   1.710   0.165  0.00  0.00    +0.000 NA
ATOM      4  C   UNL     1      10.679   1.018  -1.006  0.00  0.00    +0.000 A 
ATOM      5  C   UNL     1      11.124   1.491  -2.235  0.00  0.00    +0.000 A 
ATOM      6  C   UNL     1      11.128   0.564  -3.264  0.00  0.00    +0.000 A 
ATOM      7  N   UNL     1      10.832  -0.764  -3.123  0.00  0.00    +0.000 NA
ATOM      8  C   UNL     1      10.424  -1.221  -1.910  0.00  0.00    +0.000 A 
ATOM      9  C   UNL     1      10.282  -0.307  -0.869  0.00  0.00    +0.000 A 
ENDROOT
BRANCH   6  10
ATOM     10  C   UNL     1      11.392   1.076  -4.647  0.00  0.00    +0.000 C 
ATOM     11  N   UNL     1      11.383   0.156  -5.657  0.00  0.00    +0.000 N 
ATOM     12  O   UNL     1      11.571   2.265  -4.886  0.00  0.00    +0.000 OA
ATOM     13  H   UNL     1      11.181  -0.819  -5.457  0.00  0.00    +0.000 HD
ATOM     14  H   UNL     1      11.483   0.481  -6.606  0.00  0.00    +0.000 HD
ENDBRANCH   6  10
BRANCH   1  15
ATOM     15  C   UNL     1       8.879  -1.383   0.966  0.00  0.00    +0.000 C 
BRANCH  15  19
ATOM     16  C   UNL     1       4.906   0.167   0.654  0.00  0.00    +0.000 A 
ATOM     17  C   UNL     1       5.338  -0.781  -0.274  0.00  0.00    +0.000 A 
ATOM     18  C   UNL     1       6.615  -1.335  -0.163  0.00  0.00    +0.000 A 
ATOM     19  C   UNL     1       7.432  -0.941   0.894  0.00  0.00    +0.000 A 
ATOM     20  N   UNL     1       7.008  -0.064   1.839  0.00  0.00    +0.000 NA
ATOM     21  C   UNL     1       5.774   0.476   1.693  0.00  0.00    +0.000 A 
BRANCH  16  22
ATOM     22  C   UNL     1       3.565   0.842   0.531  0.00  0.00    +0.000 C 
BRANCH  22  23
ATOM     23  C   UNL     1       2.460   0.105   1.296  0.00  0.00    +0.000 C 
BRANCH  23  24
ATOM     24  N   UNL     1       1.181   0.801   1.169  0.00  0.00    +0.000 NA
ATOM     25  H   UNL     1       0.466   0.300   1.695  0.00  0.00    +0.000 HD
ATOM     26  H   UNL     1       0.874   0.794   0.197  0.00  0.00    +0.000 HD
ENDBRANCH  23  24
ENDBRANCH  22  23
ENDBRANCH  16  22
ENDBRANCH  15  19
ENDBRANCH   1  15
TORSDOF 6
