REMARK  Name = 
REMARK  6 active torsions:
REMARK  status: ('A' for Active; 'I' for Inactive)
REMARK    1  A    between atoms: C_2  and  C_20
REMARK    2  A    between atoms: N_3  and  C_4
REMARK    3  A    between atoms: C_4  and  C_5
REMARK    4  A    between atoms: C_8  and  C_9
REMARK    5  A    between atoms: C_9  and  N_10
REMARK    6  A    between atoms: C_11  and  C_13
REMARK                            x       y       z     vdW  Elec       q    Type
REMARK                         _______ _______ _______ _____ _____    ______ ____
ROOT
ATOM      1  C   UNL     1       3.233  -0.198   3.727  0.00  0.00    +0.000 A 
ATOM      2  C   UNL     1       3.681   1.020   4.257  0.00  0.00    +0.000 A 
ATOM      3  C   UNL     1       4.530   1.046   5.369  0.00  0.00    +0.000 A 
ATOM      4  C   UNL     1       4.969  -0.145   5.961  0.00  0.00    +0.000 A 
ATOM      5  C   UNL     1       4.531  -1.363   5.424  0.00  0.00    +0.000 A 
ATOM      6  C   UNL     1       3.681  -1.389   4.311  0.00  0.00    +0.000 A 
ENDROOT
BRANCH   1   7
ATOM      7  C   UNL     1       2.294  -0.221   2.548  0.00  0.00    +0.000 C 
BRANCH   7  10
ATOM      8  O   UNL     1       1.087  -0.488   0.076  0.00  0.00    +0.000 OA
ATOM      9  C   UNL     1       2.306  -0.331   0.108  0.00  0.00    +0.000 C 
ATOM     10  N   UNL     1       2.999  -0.261   1.292  0.00  0.00    +0.000 N 
ATOM     11  H   UNL     1       3.956   0.078   1.289  0.00  0.00    +0.000 HD
BRANCH   9  12
ATOM     12  C   UNL     1       3.095  -0.252  -1.127  0.00  0.00    +0.000 A 
ATOM     13  C   UNL     1       2.604  -0.812  -2.299  0.00  0.00    +0.000 A 
ATOM     14  S   UNL     1       3.653  -0.639  -3.632  0.00  0.00    +0.000 S 
ATOM     15  C   UNL     1       4.778   0.237  -2.703  0.00  0.00    +0.000 A 
ATOM     16  N   UNL     1       5.916   0.728  -3.262  0.00  0.00    +0.000 NA
ATOM     17  C   UNL     1       6.657   1.409  -2.451  0.00  0.00    +0.000 A 
ATOM     18  N   UNL     1       6.367   1.632  -1.130  0.00  0.00    +0.000 N 
ATOM     19  C   UNL     1       5.250   1.122  -0.514  0.00  0.00    +0.000 A 
ATOM     20  O   UNL     1       5.050   1.293   0.685  0.00  0.00    +0.000 OA
ATOM     21  C   UNL     1       4.371   0.368  -1.387  0.00  0.00    +0.000 A 
ATOM     22  H   UNL     1       6.997   2.162  -0.544  0.00  0.00    +0.000 HD
ENDBRANCH   9  12
ENDBRANCH   7  10
ENDBRANCH   1   7
BRANCH   4  23
ATOM     23  C   UNL     1       5.914  -0.118   7.134  0.00  0.00    +0.000 C 
BRANCH  23  24
ATOM     24  N   UNL     1       5.244  -0.152   8.409  0.00  0.00    +0.000 N 
ATOM     25  C   UNL     1       5.974  -0.162   9.577  0.00  0.00    +0.000 C 
ATOM     26  O   UNL     1       7.202  -0.233   9.596  0.00  0.00    +0.000 OA
ATOM     27  H   UNL     1       4.254   0.061   8.495  0.00  0.00    +0.000 HD
BRANCH  25  28
ATOM     28  C   UNL     1       5.152  -0.157  10.869  0.00  0.00    +0.000 C 
ATOM     29  C   UNL     1       4.845  -1.560  11.355  0.00  0.00    +0.000 C 
ATOM     30  C   UNL     1       3.702  -1.331  12.324  0.00  0.00    +0.000 C 
ATOM     31  C   UNL     1       2.982  -0.100  11.786  0.00  0.00    +0.000 C 
ATOM     32  N   UNL     1       3.796   0.415  10.676  0.00  0.00    +0.000 NA
ATOM     33  H   UNL     1       3.847   1.433  10.724  0.00  0.00    +0.000 HD
ENDBRANCH  25  28
ENDBRANCH  23  24
ENDBRANCH   4  23
TORSDOF 6
