REMARK  Name = 
REMARK  7 active torsions:
REMARK  status: ('A' for Active; 'I' for Inactive)
REMARK    1  A    between atoms: C_1  and  O_2
REMARK    2  A    between atoms: O_2  and  C_3
REMARK    3  A    between atoms: C_5  and  C_6
REMARK    4  A    between atoms: C_6  and  N_7
REMARK    5  A    between atoms: C_8  and  C_10
REMARK    6  A    between atoms: C_22  and  C_23
REMARK    7  A    between atoms: C_23  and  C_24
REMARK                            x       y       z     vdW  Elec       q    Type
REMARK                         _______ _______ _______ _____ _____    ______ ____
ROOT
ATOM      1  C   UNL     1       3.029   2.460   4.382  0.00  0.00    +0.000 C 
ENDROOT
BRANCH   1   4
ATOM      2  C   UNL     1       3.114   0.863   0.940  0.00  0.00    +0.000 A 
ATOM      3  C   UNL     1       2.731   1.186   2.244  0.00  0.00    +0.000 A 
ATOM      4  C   UNL     1       3.455   2.116   2.990  0.00  0.00    +0.000 A 
ATOM      5  C   UNL     1       4.549   2.710   2.382  0.00  0.00    +0.000 A 
ATOM      6  N   UNL     1       4.966   2.419   1.128  0.00  0.00    +0.000 NA
ATOM      7  C   UNL     1       4.250   1.496   0.418  0.00  0.00    +0.000 A 
BRANCH   2   9
ATOM      8  C   UNL     1       1.113  -0.341   0.557  0.00  0.00    +0.000 C 
ATOM      9  O   UNL     1       2.457  -0.057   0.170  0.00  0.00    +0.000 OA
ENDBRANCH   2   9
BRANCH   7  10
ATOM     10  C   UNL     1       4.718   1.259  -1.004  0.00  0.00    +0.000 C 
BRANCH  10  11
ATOM     11  C   UNL     1       4.030   2.159  -2.007  0.00  0.00    +0.000 A 
ATOM     12  C   UNL     1       4.184   3.545  -1.936  0.00  0.00    +0.000 A 
ATOM     13  C   UNL     1       3.429   4.353  -2.781  0.00  0.00    +0.000 A 
ATOM     14  C   UNL     1       2.568   3.762  -3.695  0.00  0.00    +0.000 A 
ATOM     15  C   UNL     1       2.523   2.380  -3.750  0.00  0.00    +0.000 A 
ATOM     16  N   UNL     1       3.231   1.570  -2.933  0.00  0.00    +0.000 NA
ENDBRANCH  10  11
ENDBRANCH   7  10
ENDBRANCH   1   4
BRANCH   1  17
ATOM     17  N   UNL     1       2.087   3.549   4.401  0.00  0.00    +0.000 N 
ATOM     18  C   UNL     1       0.730   3.369   4.499  0.00  0.00    +0.000 C 
ATOM     19  O   UNL     1       0.220   2.257   4.534  0.00  0.00    +0.000 OA
ATOM     20  H   UNL     1       2.454   4.468   4.181  0.00  0.00    +0.000 HD
BRANCH  18  21
ATOM     21  C   UNL     1      -0.077   4.592   4.641  0.00  0.00    +0.000 A 
ATOM     22  C   UNL     1      -1.346   4.512   5.199  0.00  0.00    +0.000 A 
ATOM     23  S   UNL     1      -2.125   6.021   5.350  0.00  0.00    +0.000 S 
ATOM     24  C   UNL     1      -0.817   6.831   4.625  0.00  0.00    +0.000 A 
ATOM     25  N   UNL     1      -0.853   8.176   4.423  0.00  0.00    +0.000 NA
ATOM     26  C   UNL     1       0.187   8.655   3.828  0.00  0.00    +0.000 A 
ATOM     27  N   UNL     1       1.268   7.913   3.428  0.00  0.00    +0.000 N 
ATOM     28  C   UNL     1       1.376   6.563   3.669  0.00  0.00    +0.000 A 
ATOM     29  O   UNL     1       2.403   5.950   3.396  0.00  0.00    +0.000 OA
ATOM     30  C   UNL     1       0.212   5.966   4.296  0.00  0.00    +0.000 A 
ATOM     31  H   UNL     1       2.063   8.354   2.990  0.00  0.00    +0.000 HD
ENDBRANCH  18  21
ENDBRANCH   1  17
TORSDOF 6
