REMARK  Name = 
REMARK  9 active torsions:
REMARK  status: ('A' for Active; 'I' for Inactive)
REMARK    1  A    between atoms: C_1  and  C_2
REMARK    2  A    between atoms: C_5  and  C_6
REMARK    3  A    between atoms: C_6  and  N_7
REMARK    4  A    between atoms: N_7  and  C_8
REMARK    5  A    between atoms: C_8  and  C_9
REMARK    6  A    between atoms: C_8  and  C_10
REMARK    7  A    between atoms: C_13  and  C_14
REMARK    8  A    between atoms: C_14  and  N_15
REMARK    9  A    between atoms: C_16  and  C_18
REMARK                            x       y       z     vdW  Elec       q    Type
REMARK                         _______ _______ _______ _____ _____    ______ ____
ROOT
ATOM      1  C   UNL     1      -6.007  -2.465  -0.044  0.00  0.00    +0.000 A 
ATOM      2  C   UNL     1      -5.209  -3.606  -0.114  0.00  0.00    +0.000 A 
ATOM      3  C   UNL     1      -5.812  -4.863  -0.130  0.00  0.00    +0.000 A 
ATOM      4  C   UNL     1      -7.202  -4.965  -0.122  0.00  0.00    +0.000 A 
ATOM      5  C   UNL     1      -7.923  -3.780  -0.058  0.00  0.00    +0.000 A 
ATOM      6  N   UNL     1      -7.365  -2.547  -0.015  0.00  0.00    +0.000 NA
ENDROOT
BRANCH   1   7
ATOM      7  C   UNL     1      -5.415  -1.056  -0.028  0.00  0.00    +0.000 C 
ATOM      8  C   UNL     1      -4.115  -0.981   0.788  0.00  0.00    +0.000 C 
BRANCH   7   9
ATOM      9  N   UNL     1      -5.135  -0.511  -1.374  0.00  0.00    +0.000 NA
ATOM     10  H   UNL     1      -4.732   0.420  -1.265  0.00  0.00    +0.000 HD
BRANCH   9  11
ATOM     11  C   UNL     1      -6.352  -0.375  -2.185  0.00  0.00    +0.000 C 
BRANCH  11  16
ATOM     12  C   UNL     1      -5.292   2.088  -7.291  0.00  0.00    +0.000 C 
ATOM     13  C   UNL     1      -5.537   1.412  -5.976  0.00  0.00    +0.000 A 
ATOM     14  C   UNL     1      -4.888   0.226  -5.650  0.00  0.00    +0.000 A 
ATOM     15  C   UNL     1      -5.145  -0.363  -4.414  0.00  0.00    +0.000 A 
ATOM     16  C   UNL     1      -6.038   0.240  -3.525  0.00  0.00    +0.000 A 
ATOM     17  C   UNL     1      -6.647   1.416  -3.945  0.00  0.00    +0.000 A 
ATOM     18  N   UNL     1      -6.416   2.012  -5.139  0.00  0.00    +0.000 NA
ENDBRANCH  11  16
ENDBRANCH   9  11
ENDBRANCH   7   9
ENDBRANCH   1   7
BRANCH   4  19
ATOM     19  C   UNL     1      -7.895  -6.294  -0.134  0.00  0.00    +0.000 C 
BRANCH  19  20
ATOM     20  N   UNL     1      -8.133  -6.764   1.205  0.00  0.00    +0.000 N 
ATOM     21  C   UNL     1      -8.673  -8.006   1.440  0.00  0.00    +0.000 C 
ATOM     22  O   UNL     1      -8.936  -8.781   0.526  0.00  0.00    +0.000 OA
ATOM     23  H   UNL     1      -8.133  -6.077   1.951  0.00  0.00    +0.000 HD
BRANCH  21  24
ATOM     24  C   UNL     1      -8.859  -8.381   2.847  0.00  0.00    +0.000 A 
ATOM     25  C   UNL     1      -8.919  -9.724   3.197  0.00  0.00    +0.000 A 
ATOM     26  S   UNL     1      -9.092  -9.989   4.872  0.00  0.00    +0.000 S 
ATOM     27  C   UNL     1      -9.144  -8.316   5.183  0.00  0.00    +0.000 A 
ATOM     28  N   UNL     1      -9.308  -7.848   6.452  0.00  0.00    +0.000 NA
ATOM     29  C   UNL     1      -9.359  -6.559   6.539  0.00  0.00    +0.000 A 
ATOM     30  N   UNL     1      -9.256  -5.696   5.480  0.00  0.00    +0.000 N 
ATOM     31  C   UNL     1      -9.059  -6.126   4.188  0.00  0.00    +0.000 A 
ATOM     32  O   UNL     1      -8.925  -5.330   3.264  0.00  0.00    +0.000 OA
ATOM     33  C   UNL     1      -9.012  -7.568   4.030  0.00  0.00    +0.000 A 
ATOM     34  H   UNL     1      -9.295  -4.698   5.619  0.00  0.00    +0.000 HD
ENDBRANCH  21  24
ENDBRANCH  19  20
ENDBRANCH   4  19
TORSDOF 7
