REMARK  Name = 
REMARK  9 active torsions:
REMARK  status: ('A' for Active; 'I' for Inactive)
REMARK    1  A    between atoms: N_1  and  C_2
REMARK    2  A    between atoms: C_2  and  C_3
REMARK    3  A    between atoms: C_6  and  O_7
REMARK    4  A    between atoms: O_7  and  C_8
REMARK    5  A    between atoms: C_8  and  C_9
REMARK    6  A    between atoms: C_9  and  O_10
REMARK    7  A    between atoms: C_9  and  C_11
REMARK    8  A    between atoms: CA_15  and  C_16
REMARK    9  A    between atoms: C_16  and  OXT_18
REMARK                            x       y       z     vdW  Elec       q    Type
REMARK                         _______ _______ _______ _____ _____    ______ ____
ROOT
ATOM      1  C   UNL     1       4.334  -0.725  -6.295  0.00  0.00    +0.000 C 
ENDROOT
BRANCH   1   2
ATOM      2  O   UNL     1       4.147  -1.702  -5.261  0.00  0.00    +0.000 OA
BRANCH   2   6
ATOM      3  C   UNL     1       3.180  -0.449  -1.368  0.00  0.00    +0.000 A 
ATOM      4  C   UNL     1       3.241  -1.803  -1.737  0.00  0.00    +0.000 A 
ATOM      5  C   UNL     1       3.560  -2.180  -3.047  0.00  0.00    +0.000 A 
ATOM      6  C   UNL     1       3.837  -1.215  -4.016  0.00  0.00    +0.000 A 
ATOM      7  C   UNL     1       3.793   0.132  -3.657  0.00  0.00    +0.000 A 
ATOM      8  C   UNL     1       3.474   0.511  -2.346  0.00  0.00    +0.000 A 
ATOM      9 CL   UNL     1       3.475   2.205  -1.992  0.00  0.00    +0.000 Cl
BRANCH   3  10
ATOM     10  C   UNL     1       2.841  -0.090   0.056  0.00  0.00    +0.000 C 
BRANCH  10  11
ATOM     11  N   UNL     1       4.035  -0.038   0.890  0.00  0.00    +0.000 NA
ATOM     12  H   UNL     1       3.770   0.251   1.831  0.00  0.00    +0.000 HD
ATOM     13  H   UNL     1       4.650   0.695   0.537  0.00  0.00    +0.000 HD
ENDBRANCH  10  11
ENDBRANCH   3  10
ENDBRANCH   2   6
ENDBRANCH   1   2
BRANCH   1  14
ATOM     14  C   UNL     1       4.614  -1.393  -7.657  0.00  0.00    +0.000 C 
BRANCH  14  15
ATOM     15  C   UNL     1       3.474  -2.215  -8.215  0.00  0.00    +0.000 A 
ATOM     16  C   UNL     1       2.849  -1.843  -9.413  0.00  0.00    +0.000 A 
ATOM     17  C   UNL     1       1.826  -2.633  -9.923  0.00  0.00    +0.000 A 
ATOM     18  N   UNL     1       1.380  -3.764  -9.333  0.00  0.00    +0.000 NA
ATOM     19  CA  UNL     1       2.006  -4.108  -8.171  0.00  0.00    +0.000 A 
ATOM     20  C   UNL     1       3.034  -3.383  -7.584  0.00  0.00    +0.000 A 
BRANCH  19  21
ATOM     21  C   UNL     1       1.523  -5.363  -7.527  0.00  0.00    +0.000 C 
ATOM     22  O   UNL     1       1.946  -5.819  -6.481  0.00  0.00    +0.000 OA
BRANCH  21  23
ATOM     23  OXT UNL     1       0.544  -5.929  -8.271  0.00  0.00    +0.000 OA
ATOM     24  HXT UNL     1       0.391  -5.366  -9.065  0.00  0.00    +0.000 HD
ENDBRANCH  21  23
ENDBRANCH  19  21
ENDBRANCH  14  15
BRANCH  14  25
ATOM     25  O   UNL     1       5.785  -2.206  -7.606  0.00  0.00    +0.000 OA
ATOM     26  H   UNL     1       5.661  -2.838  -6.875  0.00  0.00    +0.000 HD
ENDBRANCH  14  25
ENDBRANCH   1  14
TORSDOF 9
