REMARK  Name = 
REMARK  8 active torsions:
REMARK  status: ('A' for Active; 'I' for Inactive)
REMARK    1  A    between atoms: C_1  and  C_2
REMARK    2  A    between atoms: C_4  and  O_5
REMARK    3  A    between atoms: O_5  and  C_6
REMARK    4  A    between atoms: C_6  and  C_7
REMARK    5  A    between atoms: C_7  and  C_10
REMARK    6  A    between atoms: C_14  and  C_15
REMARK    7  A    between atoms: C_15  and  C_16
REMARK    8  A    between atoms: C_23  and  C_24
REMARK                            x       y       z     vdW  Elec       q    Type
REMARK                         _______ _______ _______ _____ _____    ______ ____
ROOT
ATOM      1  C   UNL     1       2.121  -4.683  -0.087  0.00  0.00    +0.000 C 
ATOM      2  F   UNL     1       2.865  -4.599  -1.230  0.00  0.00    +0.000 F 
ATOM      3  F   UNL     1       3.013  -4.555   0.940  0.00  0.00    +0.000 F 
ENDROOT
BRANCH   1   4
ATOM      4  C   UNL     1       1.346  -5.990  -0.008  0.00  0.00    +0.000 A 
ATOM      5  C   UNL     1       1.109  -6.594   1.236  0.00  0.00    +0.000 A 
ATOM      6  C   UNL     1       0.359  -7.766   1.321  0.00  0.00    +0.000 A 
ATOM      7  C   UNL     1      -0.169  -8.347   0.168  0.00  0.00    +0.000 A 
ATOM      8  C   UNL     1       0.055  -7.768  -1.088  0.00  0.00    +0.000 A 
ATOM      9  C   UNL     1       0.815  -6.589  -1.165  0.00  0.00    +0.000 A 
BRANCH   8  10
ATOM     10  C   UNL     1      -0.515  -8.407  -2.332  0.00  0.00    +0.000 C 
BRANCH  10  11
ATOM     11  C   UNL     1      -1.821  -7.741  -2.741  0.00  0.00    +0.000 C 
ATOM     12  C   UNL     1      -3.088  -7.981  -1.890  0.00  0.00    +0.000 C 
ATOM     13  N   UNL     1      -3.859  -8.169  -3.138  0.00  0.00    +0.000 NA
ATOM     14  C   UNL     1      -2.603  -8.478  -3.851  0.00  0.00    +0.000 C 
ATOM     15  H   UNL     1      -4.309  -7.315  -3.467  0.00  0.00    +0.000 HD
ENDBRANCH  10  11
ENDBRANCH   8  10
ENDBRANCH   1   4
BRANCH   1  16
ATOM     16  C   UNL     1       1.141  -3.501  -0.043  0.00  0.00    +0.000 C 
BRANCH  16  17
ATOM     17  O   UNL     1       1.823  -2.232  -0.030  0.00  0.00    +0.000 OA
BRANCH  17  21
ATOM     18  C   UNL     1       1.142   2.598   0.199  0.00  0.00    +0.000 C 
ATOM     19  C   UNL     1       0.577   1.206   0.138  0.00  0.00    +0.000 A 
ATOM     20  C   UNL     1       1.456   0.108   0.077  0.00  0.00    +0.000 A 
ATOM     21  C   UNL     1       0.931  -1.177   0.026  0.00  0.00    +0.000 A 
ATOM     22  N   UNL     1      -0.390  -1.437   0.025  0.00  0.00    +0.000 NA
ATOM     23  C   UNL     1      -1.222  -0.370   0.072  0.00  0.00    +0.000 A 
ATOM     24  C   UNL     1      -0.807   0.954   0.147  0.00  0.00    +0.000 A 
BRANCH  24  25
ATOM     25  C   UNL     1      -1.831   2.033   0.189  0.00  0.00    +0.000 C 
ATOM     26  N   UNL     1      -3.039   1.734   0.761  0.00  0.00    +0.000 N 
ATOM     27  O   UNL     1      -1.624   3.154  -0.254  0.00  0.00    +0.000 OA
ATOM     28  H   UNL     1      -3.217   0.914   1.320  0.00  0.00    +0.000 HD
ATOM     29  H   UNL     1      -3.698   2.502   0.839  0.00  0.00    +0.000 HD
ENDBRANCH  24  25
ENDBRANCH  17  21
ENDBRANCH  16  17
ENDBRANCH   1  16
TORSDOF 7
