REMARK  Name = 
REMARK  5 active torsions:
REMARK  status: ('A' for Active; 'I' for Inactive)
REMARK    1  A    between atoms: C_1  and  N_2
REMARK    2  A    between atoms: C_4  and  C_5
REMARK    3  A    between atoms: C_5  and  C_6
REMARK    4  A    between atoms: C_15  and  C_16
REMARK    5  A    between atoms: C_16  and  O_18
REMARK                            x       y       z     vdW  Elec       q    Type
REMARK                         _______ _______ _______ _____ _____    ______ ____
ROOT
ATOM      1  C   UNL     1       2.051   1.781  -0.050  0.00  0.00    +0.000 C 
ATOM      2  N   UNL     1       1.222   0.598   0.008  0.00  0.00    +0.000 N 
ATOM      3  C   UNL     1       1.689  -0.673   0.178  0.00  0.00    +0.000 A 
ATOM      4  C   UNL     1       0.640  -1.558   0.004  0.00  0.00    +0.000 A 
ATOM      5  C   UNL     1      -0.550  -0.752  -0.090  0.00  0.00    +0.000 A 
ATOM      6  C   UNL     1      -1.935  -1.027  -0.152  0.00  0.00    +0.000 A 
ATOM      7  C   UNL     1      -2.865   0.030  -0.152  0.00  0.00    +0.000 A 
ATOM      8  C   UNL     1      -2.432   1.360  -0.137  0.00  0.00    +0.000 A 
ATOM      9  C   UNL     1      -1.064   1.654  -0.118  0.00  0.00    +0.000 A 
ATOM     10  C   UNL     1      -0.150   0.589  -0.077  0.00  0.00    +0.000 A 
ENDROOT
BRANCH   8  11
ATOM     11  C   UNL     1      -3.365   2.516  -0.054  0.00  0.00    +0.000 C 
ATOM     12  O   UNL     1      -3.073   3.571   0.489  0.00  0.00    +0.000 OA
BRANCH  11  13
ATOM     13  O   UNL     1      -4.555   2.318  -0.664  0.00  0.00    +0.000 OA
ATOM     14  H   UNL     1      -4.604   1.514  -1.210  0.00  0.00    +0.000 HD
ENDBRANCH  11  13
ENDBRANCH   8  11
BRANCH   4  15
ATOM     15  C   UNL     1       0.767  -3.052   0.057  0.00  0.00    +0.000 C 
BRANCH  15  16
ATOM     16  C   UNL     1       1.246  -3.817  -1.203  0.00  0.00    +0.000 C 
ATOM     17  C   UNL     1       2.585  -3.369  -1.810  0.00  0.00    +0.000 C 
ATOM     18  C   UNL     1       2.461  -2.173  -2.750  0.00  0.00    +0.000 C 
ATOM     19  C   UNL     1       1.276  -2.273  -3.710  0.00  0.00    +0.000 C 
ATOM     20  N   UNL     1       0.023  -2.713  -3.097  0.00  0.00    +0.000 NA
ATOM     21  C   UNL     1       0.195  -3.933  -2.314  0.00  0.00    +0.000 C 
ATOM     22  H   UNL     1      -0.326  -1.972  -2.490  0.00  0.00    +0.000 HD
ENDBRANCH  15  16
ENDBRANCH   4  15
TORSDOF 4
