REMARK  Name = 
REMARK  6 active torsions:
REMARK  status: ('A' for Active; 'I' for Inactive)
REMARK    1  A    between atoms: C_2  and  C_4
REMARK    2  A    between atoms: C_7  and  N_8
REMARK    3  A    between atoms: N_8  and  C_9
REMARK    4  A    between atoms: C_9  and  C_10
REMARK    5  A    between atoms: C_10  and  C_13
REMARK    6  A    between atoms: C_15  and  C_16
REMARK                            x       y       z     vdW  Elec       q    Type
REMARK                         _______ _______ _______ _____ _____    ______ ____
ROOT
ATOM      1  C   UNL     1       5.796  -4.626  -5.702  0.00  0.00    +0.000 C 
ATOM      2  F   UNL     1       7.122  -4.305  -5.600  0.00  0.00    +0.000 F 
ATOM      3  F   UNL     1       5.662  -5.802  -5.010  0.00  0.00    +0.000 F 
ENDROOT
BRANCH   1   4
ATOM      4  C   UNL     1       5.371  -4.783  -7.161  0.00  0.00    +0.000 A 
ATOM      5  C   UNL     1       6.026  -5.722  -7.962  0.00  0.00    +0.000 A 
ATOM      6  C   UNL     1       5.654  -5.889  -9.306  0.00  0.00    +0.000 A 
ATOM      7  C   UNL     1       4.615  -5.077  -9.783  0.00  0.00    +0.000 A 
ATOM      8  C   UNL     1       4.017  -4.163  -8.935  0.00  0.00    +0.000 A 
ATOM      9  N   UNL     1       4.367  -4.003  -7.645  0.00  0.00    +0.000 NA
BRANCH   6  10
ATOM     10  C   UNL     1       6.318  -6.872 -10.181  0.00  0.00    +0.000 A 
ATOM     11  C   UNL     1       6.823  -8.085  -9.733  0.00  0.00    +0.000 A 
ATOM     12  N   UNL     1       7.431  -9.007 -10.513  0.00  0.00    +0.000 NA
ATOM     13  C   UNL     1       7.532  -8.695 -11.812  0.00  0.00    +0.000 A 
ATOM     14  N   UNL     1       7.090  -7.567 -12.380  0.00  0.00    +0.000 NA
ATOM     15  C   UNL     1       6.499  -6.684 -11.544  0.00  0.00    +0.000 A 
ENDBRANCH   6  10
ENDBRANCH   1   4
BRANCH   1  16
ATOM     16  C   UNL     1       4.953  -3.546  -4.985  0.00  0.00    +0.000 C 
BRANCH  16  17
ATOM     17  N   UNL     1       5.324  -3.335  -3.572  0.00  0.00    +0.000 N 
ATOM     18  H   UNL     1       5.572  -4.186  -3.070  0.00  0.00    +0.000 HD
BRANCH  17  22
ATOM     19  C   UNL     1       3.400  -0.443  -1.174  0.00  0.00    +0.000 A 
ATOM     20  C   UNL     1       3.003  -0.606  -2.503  0.00  0.00    +0.000 A 
ATOM     21  C   UNL     1       3.620  -1.573  -3.304  0.00  0.00    +0.000 A 
ATOM     22  C   UNL     1       4.618  -2.416  -2.796  0.00  0.00    +0.000 A 
ATOM     23  C   UNL     1       5.020  -2.221  -1.468  0.00  0.00    +0.000 A 
ATOM     24  C   UNL     1       4.424  -1.243  -0.663  0.00  0.00    +0.000 A 
BRANCH  19  26
ATOM     25  N   UNL     1       1.500   0.947  -0.564  0.00  0.00    +0.000 N 
ATOM     26  C   UNL     1       2.792   0.588  -0.297  0.00  0.00    +0.000 C 
ATOM     27  O   UNL     1       3.398   1.071   0.649  0.00  0.00    +0.000 OA
ATOM     28  H   UNL     1       1.061   1.562   0.109  0.00  0.00    +0.000 HD
ATOM     29  H   UNL     1       0.898   0.395  -1.158  0.00  0.00    +0.000 HD
ENDBRANCH  19  26
ENDBRANCH  17  22
ENDBRANCH  16  17
ENDBRANCH   1  16
TORSDOF 6
