REMARK  Name = 
REMARK  5 active torsions:
REMARK  status: ('A' for Active; 'I' for Inactive)
REMARK    1  A    between atoms: N_1  and  C_2
REMARK    2  A    between atoms: C_2  and  C_3
REMARK    3  A    between atoms: C_6  and  C_7
REMARK    4  A    between atoms: C_7  and  N_8
REMARK    5  A    between atoms: C_13  and  C_14
REMARK                            x       y       z     vdW  Elec       q    Type
REMARK                         _______ _______ _______ _____ _____    ______ ____
ROOT
ATOM      1  N   UNL     1       2.812   6.627   0.931  0.00  0.00    +0.000 N 
ATOM      2  C   UNL     1       3.610   7.079  -0.093  0.00  0.00    +0.000 A 
ATOM      3  C   UNL     1       2.957   8.120  -0.711  0.00  0.00    +0.000 A 
ATOM      4  C   UNL     1       1.740   8.338  -0.012  0.00  0.00    +0.000 A 
ATOM      5  C   UNL     1       0.650   9.214  -0.164  0.00  0.00    +0.000 A 
ATOM      6  C   UNL     1      -0.396   9.117   0.757  0.00  0.00    +0.000 A 
ATOM      7  C   UNL     1      -0.285   8.186   1.791  0.00  0.00    +0.000 A 
ATOM      8  N   UNL     1       0.737   7.309   1.974  0.00  0.00    +0.000 NA
ATOM      9  C   UNL     1       1.701   7.424   1.039  0.00  0.00    +0.000 A 
ENDROOT
BRANCH   6  10
ATOM     10  C   UNL     1      -1.637   9.927   0.678  0.00  0.00    +0.000 C 
ATOM     11  N   UNL     1      -1.789  10.799  -0.363  0.00  0.00    +0.000 N 
ATOM     12  O   UNL     1      -2.527   9.811   1.514  0.00  0.00    +0.000 OA
ATOM     13  H   UNL     1      -1.128  10.941  -1.110  0.00  0.00    +0.000 HD
ATOM     14  H   UNL     1      -2.666  11.303  -0.410  0.00  0.00    +0.000 HD
ENDBRANCH   6  10
BRANCH   1  15
ATOM     15  C   UNL     1       3.096   5.460   1.749  0.00  0.00    +0.000 C 
BRANCH  15  19
ATOM     16  C   UNL     1       3.021   1.360   0.241  0.00  0.00    +0.000 C 
ATOM     17  C   UNL     1       2.461   1.620   1.648  0.00  0.00    +0.000 C 
ATOM     18  C   UNL     1       2.834   3.001   2.183  0.00  0.00    +0.000 C 
ATOM     19  C   UNL     1       2.455   4.151   1.231  0.00  0.00    +0.000 C 
ATOM     20  C   UNL     1       2.852   3.858  -0.230  0.00  0.00    +0.000 C 
ATOM     21  C   UNL     1       2.485   2.451  -0.697  0.00  0.00    +0.000 C 
BRANCH  16  22
ATOM     22  C   UNL     1       4.561   1.289   0.177  0.00  0.00    +0.000 C 
BRANCH  22  23
ATOM     23  N   UNL     1       5.109   0.228   1.014  0.00  0.00    +0.000 NA
ATOM     24  H   UNL     1       6.124   0.213   0.919  0.00  0.00    +0.000 HD
ATOM     25  H   UNL     1       4.780  -0.678   0.679  0.00  0.00    +0.000 HD
ENDBRANCH  22  23
ENDBRANCH  16  22
ENDBRANCH  15  19
ENDBRANCH   1  15
TORSDOF 5
