REMARK  Name = 
REMARK  6 active torsions:
REMARK  status: ('A' for Active; 'I' for Inactive)
REMARK    1  A    between atoms: C_2  and  C_3
REMARK    2  A    between atoms: C_7  and  C_8
REMARK    3  A    between atoms: C_8  and  C_9
REMARK    4  A    between atoms: C_13  and  C_14
REMARK    5  A    between atoms: C_18  and  O_19
REMARK    6  A    between atoms: O_19  and  C_20
REMARK                            x       y       z     vdW  Elec       q    Type
REMARK                         _______ _______ _______ _____ _____    ______ ____
ROOT
ATOM      1  C   UNL     1       4.839   3.018   0.002  0.00  0.00    +0.000 A 
ATOM      2  C   UNL     1       4.112   3.136  -1.190  0.00  0.00    +0.000 A 
ATOM      3  C   UNL     1       2.737   3.354  -1.164  0.00  0.00    +0.000 A 
ATOM      4  C   UNL     1       2.075   3.501   0.057  0.00  0.00    +0.000 A 
ATOM      5  C   UNL     1       2.773   3.483   1.275  0.00  0.00    +0.000 A 
ATOM      6  C   UNL     1       4.159   3.263   1.214  0.00  0.00    +0.000 A 
ENDROOT
BRANCH   5   7
ATOM      7  C   UNL     1       2.077   3.609   2.569  0.00  0.00    +0.000 A 
ATOM      8  C   UNL     1       0.839   3.007   2.803  0.00  0.00    +0.000 A 
ATOM      9  N   UNL     1       0.143   3.071   3.970  0.00  0.00    +0.000 NA
ATOM     10  C   UNL     1       0.709   3.773   4.969  0.00  0.00    +0.000 A 
ATOM     11  C   UNL     1       1.926   4.436   4.859  0.00  0.00    +0.000 A 
ATOM     12  C   UNL     1       2.617   4.323   3.649  0.00  0.00    +0.000 A 
BRANCH  11  13
ATOM     13  O   UNL     1       2.532   5.175   5.827  0.00  0.00    +0.000 OA
BRANCH  13  14
ATOM     14  C   UNL     1       1.655   5.748   6.788  0.00  0.00    +0.000 C 
ATOM     15  F   UNL     1       1.347   4.806   7.714  0.00  0.00    +0.000 F 
ATOM     16  F   UNL     1       2.345   6.719   7.433  0.00  0.00    +0.000 F 
ENDBRANCH  13  14
ENDBRANCH  11  13
ENDBRANCH   5   7
BRANCH   1  17
ATOM     17  C   UNL     1       6.254   2.441   0.038  0.00  0.00    +0.000 C 
ATOM     18  C   UNL     1       6.245   0.964   0.470  0.00  0.00    +0.000 C 
ATOM     19  C   UNL     1       6.654   1.319  -0.919  0.00  0.00    +0.000 C 
BRANCH  17  24
ATOM     20  C   UNL     1       8.984   3.837   2.161  0.00  0.00    +0.000 A 
ATOM     21  C   UNL     1       9.385   4.948   1.442  0.00  0.00    +0.000 A 
ATOM     22  N   UNL     1       8.802   5.295   0.270  0.00  0.00    +0.000 NA
ATOM     23  C   UNL     1       7.802   4.472  -0.145  0.00  0.00    +0.000 A 
ATOM     24  C   UNL     1       7.374   3.342   0.560  0.00  0.00    +0.000 A 
ATOM     25  N   UNL     1       7.980   3.026   1.740  0.00  0.00    +0.000 NA
BRANCH  20  27
ATOM     26  N   UNL     1      10.160   3.222   4.387  0.00  0.00    +0.000 NA
ATOM     27  C   UNL     1       9.621   3.484   3.393  0.00  0.00    +0.000 C 
ENDBRANCH  20  27
ENDBRANCH  17  24
ENDBRANCH   1  17
TORSDOF 6
