REMARK  Name = 
REMARK  4 active torsions:
REMARK  status: ('A' for Active; 'I' for Inactive)
REMARK    1  A    between atoms: C_2  and  C_4
REMARK    2  A    between atoms: N_8  and  C_9
REMARK    3  A    between atoms: C_9  and  C_10
REMARK    4  A    between atoms: C_14  and  C_15
REMARK                            x       y       z     vdW  Elec       q    Type
REMARK                         _______ _______ _______ _____ _____    ______ ____
ROOT
ATOM      1  C   UNL     1       4.942  -3.355  -4.883  0.00  0.00    +0.000 C 
ATOM      2  C   UNL     1       5.102  -2.236  -5.909  0.00  0.00    +0.000 C 
ATOM      3  C   UNL     1       3.756  -2.827  -5.674  0.00  0.00    +0.000 C 
ENDROOT
BRANCH   1   8
ATOM      4  C   UNL     1       2.981  -3.807  -0.095  0.00  0.00    +0.000 A 
ATOM      5  C   UNL     1       2.313  -3.664  -1.306  0.00  0.00    +0.000 A 
ATOM      6  C   UNL     1       3.048  -3.402  -2.461  0.00  0.00    +0.000 A 
ATOM      7  C   UNL     1       4.432  -3.281  -2.393  0.00  0.00    +0.000 A 
ATOM      8  N   UNL     1       5.227  -2.965  -3.494  0.00  0.00    +0.000 N 
ATOM      9  N   UNL     1       5.087  -3.395  -1.215  0.00  0.00    +0.000 NA
ATOM     10  C   UNL     1       4.357  -3.648  -0.096  0.00  0.00    +0.000 A 
ATOM     11  H   UNL     1       6.193  -3.016  -3.182  0.00  0.00    +0.000 HD
BRANCH   4  13
ATOM     12  N   UNL     1       1.069  -4.717   1.093  0.00  0.00    +0.000 N 
ATOM     13  C   UNL     1       2.281  -4.088   1.174  0.00  0.00    +0.000 C 
ATOM     14  O   UNL     1       2.775  -3.799   2.254  0.00  0.00    +0.000 OA
ATOM     15  H   UNL     1       0.639  -4.980   1.970  0.00  0.00    +0.000 HD
ATOM     16  H   UNL     1       0.744  -5.180   0.256  0.00  0.00    +0.000 HD
ENDBRANCH   4  13
ENDBRANCH   1   8
BRANCH   1  17
ATOM     17  C   UNL     1       5.430  -4.752  -5.269  0.00  0.00    +0.000 A 
ATOM     18  C   UNL     1       4.664  -5.894  -4.993  0.00  0.00    +0.000 A 
ATOM     19  C   UNL     1       5.037  -7.148  -5.474  0.00  0.00    +0.000 A 
ATOM     20  C   UNL     1       6.184  -7.282  -6.258  0.00  0.00    +0.000 A 
ATOM     21  C   UNL     1       6.991  -6.174  -6.559  0.00  0.00    +0.000 A 
ATOM     22  C   UNL     1       6.616  -4.934  -6.009  0.00  0.00    +0.000 A 
BRANCH  21  23
ATOM     23  C   UNL     1       8.129  -6.273  -7.496  0.00  0.00    +0.000 A 
ATOM     24  C   UNL     1       9.304  -5.524  -7.345  0.00  0.00    +0.000 A 
ATOM     25  C   UNL     1      10.317  -5.599  -8.303  0.00  0.00    +0.000 A 
ATOM     26  C   UNL     1      10.136  -6.435  -9.388  0.00  0.00    +0.000 A 
ATOM     27  F   UNL     1      11.105  -6.506 -10.311  0.00  0.00    +0.000 F 
ATOM     28  N   UNL     1       9.035  -7.183  -9.582  0.00  0.00    +0.000 NA
ATOM     29  C   UNL     1       8.066  -7.077  -8.641  0.00  0.00    +0.000 A 
ENDBRANCH  21  23
ENDBRANCH   1  17
TORSDOF 4
