REMARK  Name = 
REMARK  4 active torsions:
REMARK  status: ('A' for Active; 'I' for Inactive)
REMARK    1  A    between atoms: C_2  and  C_4
REMARK    2  A    between atoms: C_7  and  C_8
REMARK    3  A    between atoms: C_8  and  C_9
REMARK    4  A    between atoms: C_9  and  C_10
REMARK                            x       y       z     vdW  Elec       q    Type
REMARK                         _______ _______ _______ _____ _____    ______ ____
ROOT
ATOM      1  C   UNL     1       4.266   2.402   0.988  0.00  0.00    +0.000 A 
ATOM      2  C   UNL     1       3.198   2.455   0.086  0.00  0.00    +0.000 A 
ATOM      3  C   UNL     1       3.433   2.803  -1.245  0.00  0.00    +0.000 A 
ATOM      4  C   UNL     1       4.725   3.126  -1.682  0.00  0.00    +0.000 A 
ATOM      5  C   UNL     1       5.779   3.123  -0.756  0.00  0.00    +0.000 A 
ATOM      6  C   UNL     1       5.550   2.762   0.572  0.00  0.00    +0.000 A 
ENDROOT
BRANCH   1   8
ATOM      7  N   UNL     1       3.047   1.071   2.616  0.00  0.00    +0.000 N 
ATOM      8  C   UNL     1       4.070   1.948   2.388  0.00  0.00    +0.000 C 
ATOM      9  O   UNL     1       4.823   2.296   3.289  0.00  0.00    +0.000 OA
ATOM     10  H   UNL     1       3.009   0.666   3.541  0.00  0.00    +0.000 HD
ATOM     11  H   UNL     1       2.603   0.565   1.866  0.00  0.00    +0.000 HD
ENDBRANCH   1   8
BRANCH   4  12
ATOM     12  C   UNL     1       5.003   3.336  -3.149  0.00  0.00    +0.000 C 
BRANCH  12  13
ATOM     13  C   UNL     1       4.639   4.677  -3.786  0.00  0.00    +0.000 C 
ATOM     14  C   UNL     1       4.588   5.923  -2.912  0.00  0.00    +0.000 C 
ATOM     15  C   UNL     1       3.319   5.378  -3.497  0.00  0.00    +0.000 C 
BRANCH  13  16
ATOM     16  C   UNL     1       5.106   4.811  -5.251  0.00  0.00    +0.000 C 
ATOM     17  C   UNL     1       4.697   3.596  -6.099  0.00  0.00    +0.000 C 
ATOM     18  C   UNL     1       5.173   3.752  -7.534  0.00  0.00    +0.000 C 
ATOM     19  O   UNL     1       6.585   3.949  -7.567  0.00  0.00    +0.000 OA
ATOM     20  C   UNL     1       6.988   5.127  -6.867  0.00  0.00    +0.000 C 
ATOM     21  C   UNL     1       6.615   5.042  -5.389  0.00  0.00    +0.000 C 
ENDBRANCH  13  16
ENDBRANCH  12  13
ENDBRANCH   4  12
TORSDOF 4
