REMARK  Name = 
REMARK  7 active torsions:
REMARK  status: ('A' for Active; 'I' for Inactive)
REMARK    1  A    between atoms: C_1  and  C_2
REMARK    2  A    between atoms: C_2  and  N_3
REMARK    3  A    between atoms: C_2  and  C_16
REMARK    4  A    between atoms: C_4  and  C_6
REMARK    5  A    between atoms: C_19  and  C_20
REMARK    6  A    between atoms: C_20  and  N_21
REMARK    7  A    between atoms: C_22  and  C_24
REMARK                            x       y       z     vdW  Elec       q    Type
REMARK                         _______ _______ _______ _____ _____    ______ ____
ROOT
ATOM      1  C   UNL     1       3.545  -1.106   0.382  0.00  0.00    +0.000 C 
ATOM      2  C   UNL     1       2.591   0.023  -0.020  0.00  0.00    +0.000 C 
ENDROOT
BRANCH   2   3
ATOM      3  C   UNL     1       3.074   0.886  -1.175  0.00  0.00    +0.000 A 
ATOM      4  C   UNL     1       2.706   2.242  -1.210  0.00  0.00    +0.000 A 
ATOM      5  C   UNL     1       3.073   3.067  -2.279  0.00  0.00    +0.000 A 
ATOM      6  C   UNL     1       3.804   2.552  -3.356  0.00  0.00    +0.000 A 
ATOM      7  C   UNL     1       4.195   1.208  -3.317  0.00  0.00    +0.000 A 
ATOM      8  C   UNL     1       3.824   0.382  -2.247  0.00  0.00    +0.000 A 
BRANCH   6   9
ATOM      9  C   UNL     1       4.130   3.416  -4.546  0.00  0.00    +0.000 C 
BRANCH   9  10
ATOM     10  N   UNL     1       5.379   4.111  -4.413  0.00  0.00    +0.000 N 
ATOM     11  C   UNL     1       5.879   4.879  -5.443  0.00  0.00    +0.000 C 
ATOM     12  O   UNL     1       5.310   5.008  -6.524  0.00  0.00    +0.000 OA
ATOM     13  H   UNL     1       5.900   4.120  -3.541  0.00  0.00    +0.000 HD
BRANCH  11  14
ATOM     14  C   UNL     1       7.161   5.532  -5.136  0.00  0.00    +0.000 A 
ATOM     15  C   UNL     1       7.897   6.403  -5.985  0.00  0.00    +0.000 A 
ATOM     16  C   UNL     1       9.024   6.738  -5.275  0.00  0.00    +0.000 A 
ATOM     17  N   UNL     1       8.923   6.085  -4.085  0.00  0.00    +0.000 N 
ATOM     18  N   UNL     1       7.801   5.354  -3.960  0.00  0.00    +0.000 NA
ATOM     19  H   UNL     1       9.581   6.091  -3.312  0.00  0.00    +0.000 HD
ENDBRANCH  11  14
ENDBRANCH   9  10
ENDBRANCH   6   9
ENDBRANCH   2   3
BRANCH   2  20
ATOM     20  N   UNL     1       1.278  -0.515  -0.336  0.00  0.00    +0.000 N 
ATOM     21  C   UNL     1       0.348  -0.786   0.636  0.00  0.00    +0.000 C 
ATOM     22  O   UNL     1       0.536  -0.515   1.819  0.00  0.00    +0.000 OA
ATOM     23  H   UNL     1       1.156  -0.903  -1.265  0.00  0.00    +0.000 HD
BRANCH  21  24
ATOM     24  C   UNL     1      -0.921  -1.364   0.184  0.00  0.00    +0.000 A 
ATOM     25  C   UNL     1      -2.078  -1.148   0.923  0.00  0.00    +0.000 A 
ATOM     26  S   UNL     1      -3.464  -1.881   0.253  0.00  0.00    +0.000 S 
ATOM     27  C   UNL     1      -2.558  -2.558  -1.018  0.00  0.00    +0.000 A 
ATOM     28  N   UNL     1      -3.150  -3.354  -1.950  0.00  0.00    +0.000 NA
ATOM     29  C   UNL     1      -2.338  -3.836  -2.829  0.00  0.00    +0.000 A 
ATOM     30  N   UNL     1      -0.991  -3.582  -2.871  0.00  0.00    +0.000 N 
ATOM     31  C   UNL     1      -0.359  -2.738  -1.985  0.00  0.00    +0.000 A 
ATOM     32  O   UNL     1       0.831  -2.466  -2.100  0.00  0.00    +0.000 OA
ATOM     33  C   UNL     1      -1.223  -2.203  -0.951  0.00  0.00    +0.000 A 
ATOM     34  H   UNL     1      -0.415  -3.976  -3.602  0.00  0.00    +0.000 HD
ENDBRANCH  21  24
ENDBRANCH   2  20
TORSDOF 6
