REMARK  Name = 
REMARK  7 active torsions:
REMARK  status: ('A' for Active; 'I' for Inactive)
REMARK    1  A    between atoms: C_1  and  C_2
REMARK    2  A    between atoms: C_2  and  N_3
REMARK    3  A    between atoms: C_2  and  C_26
REMARK    4  A    between atoms: C_4  and  C_6
REMARK    5  A    between atoms: C_9  and  C_10
REMARK    6  A    between atoms: C_10  and  N_11
REMARK    7  A    between atoms: C_12  and  C_14
REMARK                            x       y       z     vdW  Elec       q    Type
REMARK                         _______ _______ _______ _____ _____    ______ ____
ROOT
ATOM      1  C   UNL     1       3.248   3.511   1.739  0.00  0.00    +0.000 C 
ATOM      2  C   UNL     1       2.392   3.245   2.990  0.00  0.00    +0.000 C 
ATOM      3  C   UNL     1       2.450   4.372   4.023  0.00  0.00    +0.000 C 
ATOM      4  C   UNL     1       2.147   5.759   3.433  0.00  0.00    +0.000 C 
ATOM      5  C   UNL     1       3.057   6.017   2.225  0.00  0.00    +0.000 C 
ATOM      6  C   UNL     1       2.974   4.913   1.171  0.00  0.00    +0.000 C 
ENDROOT
BRANCH   1   8
ATOM      7  N   UNL     1       5.538   3.482   0.887  0.00  0.00    +0.000 N 
ATOM      8  C   UNL     1       4.741   3.243   1.980  0.00  0.00    +0.000 C 
ATOM      9  O   UNL     1       5.186   2.812   3.039  0.00  0.00    +0.000 OA
ATOM     10  H   UNL     1       5.123   3.662  -0.023  0.00  0.00    +0.000 HD
BRANCH   7  12
ATOM     11  C   UNL     1       7.701   4.184   1.855  0.00  0.00    +0.000 C 
ATOM     12  C   UNL     1       6.986   3.280   0.847  0.00  0.00    +0.000 C 
BRANCH  12  13
ATOM     13  C   UNL     1       7.503   3.540  -0.574  0.00  0.00    +0.000 A 
ATOM     14  C   UNL     1       8.845   3.332  -0.895  0.00  0.00    +0.000 A 
ATOM     15  C   UNL     1       9.284   3.607  -2.189  0.00  0.00    +0.000 A 
ATOM     16  C   UNL     1       8.378   4.071  -3.134  0.00  0.00    +0.000 A 
ATOM     17  C   UNL     1       7.061   4.242  -2.745  0.00  0.00    +0.000 A 
ATOM     18  N   UNL     1       6.603   3.989  -1.498  0.00  0.00    +0.000 NA
ENDBRANCH  12  13
ENDBRANCH   7  12
ENDBRANCH   1   8
BRANCH   4  19
ATOM     19  C   UNL     1       0.667   5.959   3.054  0.00  0.00    +0.000 C 
BRANCH  19  20
ATOM     20  N   UNL     1      -0.201   5.892   4.209  0.00  0.00    +0.000 N 
ATOM     21  C   UNL     1      -1.164   4.927   4.364  0.00  0.00    +0.000 C 
ATOM     22  O   UNL     1      -1.358   4.050   3.527  0.00  0.00    +0.000 OA
ATOM     23  H   UNL     1      -0.161   6.669   4.862  0.00  0.00    +0.000 HD
BRANCH  21  24
ATOM     24  C   UNL     1      -1.922   4.958   5.621  0.00  0.00    +0.000 A 
ATOM     25  C   UNL     1      -2.539   3.799   6.073  0.00  0.00    +0.000 A 
ATOM     26  S   UNL     1      -3.365   3.994   7.550  0.00  0.00    +0.000 S 
ATOM     27  C   UNL     1      -2.967   5.646   7.616  0.00  0.00    +0.000 A 
ATOM     28  N   UNL     1      -3.400   6.427   8.643  0.00  0.00    +0.000 NA
ATOM     29  C   UNL     1      -3.052   7.667   8.552  0.00  0.00    +0.000 A 
ATOM     30  N   UNL     1      -2.296   8.195   7.538  0.00  0.00    +0.000 N 
ATOM     31  C   UNL     1      -1.785   7.433   6.513  0.00  0.00    +0.000 A 
ATOM     32  O   UNL     1      -1.029   7.918   5.677  0.00  0.00    +0.000 OA
ATOM     33  C   UNL     1      -2.183   6.038   6.545  0.00  0.00    +0.000 A 
ATOM     34  H   UNL     1      -2.036   9.170   7.541  0.00  0.00    +0.000 HD
ENDBRANCH  21  24
ENDBRANCH  19  20
ENDBRANCH   4  19
TORSDOF 6
