REMARK  Name = 
REMARK  6 active torsions:
REMARK  status: ('A' for Active; 'I' for Inactive)
REMARK    1  A    between atoms: C_2  and  C_18
REMARK    2  A    between atoms: N_3  and  C_4
REMARK    3  A    between atoms: C_4  and  C_5
REMARK    4  A    between atoms: C_8  and  C_9
REMARK    5  A    between atoms: C_9  and  C_10
REMARK    6  A    between atoms: C_13  and  O_14
REMARK                            x       y       z     vdW  Elec       q    Type
REMARK                         _______ _______ _______ _____ _____    ______ ____
ROOT
ATOM      1  O   UNL     1       8.416   6.758   7.546  0.00  0.00    +0.000 OA
ATOM      2  C   UNL     1       9.467   7.313   7.239  0.00  0.00    +0.000 C 
ATOM      3  N   UNL     1       9.525   8.620   6.836  0.00  0.00    +0.000 N 
ATOM      4  H   UNL     1      10.376   8.969   6.408  0.00  0.00    +0.000 HD
ENDROOT
BRANCH   2   5
ATOM      5  C   UNL     1      10.757   6.620   7.344  0.00  0.00    +0.000 A 
ATOM      6  C   UNL     1      10.891   5.532   8.196  0.00  0.00    +0.000 A 
ATOM      7  S   UNL     1      12.458   4.858   8.198  0.00  0.00    +0.000 S 
ATOM      8  C   UNL     1      12.999   5.972   7.031  0.00  0.00    +0.000 A 
ATOM      9  N   UNL     1      14.274   5.924   6.555  0.00  0.00    +0.000 NA
ATOM     10  C   UNL     1      14.537   6.806   5.648  0.00  0.00    +0.000 A 
ATOM     11  N   UNL     1      13.648   7.739   5.183  0.00  0.00    +0.000 N 
ATOM     12  C   UNL     1      12.376   7.873   5.688  0.00  0.00    +0.000 A 
ATOM     13  O   UNL     1      11.660   8.805   5.348  0.00  0.00    +0.000 OA
ATOM     14  C   UNL     1      12.010   6.869   6.671  0.00  0.00    +0.000 A 
ATOM     15  H   UNL     1      13.926   8.425   4.498  0.00  0.00    +0.000 HD
ENDBRANCH   2   5
BRANCH   3  16
ATOM     16  C   UNL     1       8.354   9.434   6.648  0.00  0.00    +0.000 C 
BRANCH  16  17
ATOM     17  C   UNL     1       7.870   9.387   5.224  0.00  0.00    +0.000 A 
ATOM     18  C   UNL     1       6.988   8.377   4.821  0.00  0.00    +0.000 A 
ATOM     19  C   UNL     1       6.503   8.335   3.513  0.00  0.00    +0.000 A 
ATOM     20  C   UNL     1       6.895   9.300   2.579  0.00  0.00    +0.000 A 
ATOM     21  C   UNL     1       7.816  10.283   2.969  0.00  0.00    +0.000 A 
ATOM     22  C   UNL     1       8.304  10.323   4.278  0.00  0.00    +0.000 A 
BRANCH  20  23
ATOM     23  C   UNL     1       6.359   9.274   1.168  0.00  0.00    +0.000 C 
BRANCH  23  24
ATOM     24  C   UNL     1       4.828   9.430   1.060  0.00  0.00    +0.000 C 
ATOM     25  C   UNL     1       4.296  10.744   1.667  0.00  0.00    +0.000 C 
ATOM     26  C   UNL     1       3.475  11.425   0.572  0.00  0.00    +0.000 C 
ATOM     27  C   UNL     1       4.075  10.908  -0.725  0.00  0.00    +0.000 C 
ATOM     28  C   UNL     1       4.373   9.448  -0.412  0.00  0.00    +0.000 C 
BRANCH  27  29
ATOM     29  O   UNL     1       5.270  11.602  -1.058  0.00  0.00    +0.000 OA
ATOM     30  H   UNL     1       5.756  11.804  -0.242  0.00  0.00    +0.000 HD
ENDBRANCH  27  29
ENDBRANCH  23  24
ENDBRANCH  20  23
ENDBRANCH  16  17
ENDBRANCH   3  16
TORSDOF 6
