REMARK  Name = 
REMARK  10 active torsions:
REMARK  status: ('A' for Active; 'I' for Inactive)
REMARK    1  A    between atoms: C_1  and  O_2
REMARK    2  A    between atoms: O_2  and  C_3
REMARK    3  A    between atoms: C_10  and  C_11
REMARK    4  A    between atoms: N_13  and  C_14
REMARK    5  A    between atoms: C_14  and  C_15
REMARK    6  A    between atoms: C_18  and  N_19
REMARK    7  A    between atoms: N_19  and  C_20
REMARK    8  A    between atoms: C_20  and  C_21
REMARK    9  A    between atoms: C_21  and  C_22
REMARK   10  A    between atoms: C_25  and  C_26
REMARK                            x       y       z     vdW  Elec       q    Type
REMARK                         _______ _______ _______ _____ _____    ______ ____
ROOT
ATOM      1  C   UNL     1       2.245  -2.730   2.018  0.00  0.00    +0.000 A 
ATOM      2  C   UNL     1       1.418  -3.711   2.577  0.00  0.00    +0.000 A 
ATOM      3  C   UNL     1       0.502  -3.387   3.586  0.00  0.00    +0.000 A 
ATOM      4  C   UNL     1       0.392  -2.080   4.070  0.00  0.00    +0.000 A 
ATOM      5  C   UNL     1       1.162  -1.088   3.454  0.00  0.00    +0.000 A 
ATOM      6  C   UNL     1       2.096  -1.408   2.459  0.00  0.00    +0.000 A 
ENDROOT
BRANCH   4   7
ATOM      7  N   UNL     1      -0.463  -1.700   5.112  0.00  0.00    +0.000 N 
ATOM      8  H   UNL     1      -1.291  -1.230   4.753  0.00  0.00    +0.000 HD
BRANCH   7   9
ATOM      9  C   UNL     1      -0.763  -2.678   6.160  0.00  0.00    +0.000 C 
BRANCH   9  10
ATOM     10  C   UNL     1       0.511  -3.038   6.941  0.00  0.00    +0.000 C 
BRANCH  10  11
ATOM     11  C   UNL     1       0.253  -4.030   8.034  0.00  0.00    +0.000 A 
ATOM     12  C   UNL     1       0.315  -5.405   7.795  0.00  0.00    +0.000 A 
ATOM     13  C   UNL     1       0.056  -6.297   8.832  0.00  0.00    +0.000 A 
ATOM     14  C   UNL     1      -0.266  -5.790  10.086  0.00  0.00    +0.000 A 
ATOM     15  C   UNL     1      -0.566  -6.703  11.235  0.00  0.00    +0.000 C 
ATOM     16  N   UNL     1      -0.333  -4.462  10.341  0.00  0.00    +0.000 NA
ATOM     17  C   UNL     1      -0.070  -3.617   9.320  0.00  0.00    +0.000 A 
ENDBRANCH  10  11
ENDBRANCH   9  10
ENDBRANCH   7   9
ENDBRANCH   4   7
BRANCH   1  18
ATOM     18  C   UNL     1       3.238  -3.096   0.942  0.00  0.00    +0.000 C 
BRANCH  18  21
ATOM     19  C   UNL     1       3.319  -3.315  -1.521  0.00  0.00    +0.000 C 
ATOM     20  O   UNL     1       4.496  -3.674  -1.495  0.00  0.00    +0.000 OA
ATOM     21  N   UNL     1       2.640  -3.019  -0.366  0.00  0.00    +0.000 N 
ATOM     22  H   UNL     1       1.657  -2.786  -0.411  0.00  0.00    +0.000 HD
BRANCH  19  30
ATOM     23  C   UNL     1       0.096  -2.390  -2.298  0.00  0.00    +0.000 A 
ATOM     24  N   UNL     1      -1.059  -2.000  -2.875  0.00  0.00    +0.000 NA
ATOM     25  C   UNL     1      -1.121  -1.979  -4.206  0.00  0.00    +0.000 A 
ATOM     26  N   UNL     1      -0.158  -2.318  -5.059  0.00  0.00    +0.000 NA
ATOM     27  C   UNL     1       0.978  -2.695  -4.445  0.00  0.00    +0.000 A 
ATOM     28  S   UNL     1       2.313  -3.171  -5.377  0.00  0.00    +0.000 S 
ATOM     29  C   UNL     1       3.253  -3.437  -3.983  0.00  0.00    +0.000 A 
ATOM     30  C   UNL     1       2.586  -3.169  -2.792  0.00  0.00    +0.000 A 
ATOM     31  C   UNL     1       1.211  -2.751  -3.073  0.00  0.00    +0.000 A 
BRANCH  23  33
ATOM     32  C   UNL     1      -1.035  -1.985  -0.276  0.00  0.00    +0.000 C 
ATOM     33  O   UNL     1       0.147  -2.454  -0.921  0.00  0.00    +0.000 OA
ENDBRANCH  23  33
ENDBRANCH  19  30
ENDBRANCH  18  21
ENDBRANCH   1  18
TORSDOF 8
