REMARK  Name = 
REMARK  8 active torsions:
REMARK  status: ('A' for Active; 'I' for Inactive)
REMARK    1  A    between atoms: C_2  and  C_3
REMARK    2  A    between atoms: C_7  and  C_8
REMARK    3  A    between atoms: C_8  and  O_9
REMARK    4  A    between atoms: O_9  and  C_10
REMARK    5  A    between atoms: C_10  and  C_11
REMARK    6  A    between atoms: C_14  and  C_15
REMARK    7  A    between atoms: C_15  and  N_16
REMARK    8  A    between atoms: C_17  and  C_19
REMARK                            x       y       z     vdW  Elec       q    Type
REMARK                         _______ _______ _______ _____ _____    ______ ____
ROOT
ATOM      1  C   UNL     1      -5.720  -3.439  -0.015  0.00  0.00    +0.000 A 
ATOM      2  C   UNL     1      -6.562  -4.560   0.022  0.00  0.00    +0.000 A 
ATOM      3  C   UNL     1      -7.953  -4.412   0.054  0.00  0.00    +0.000 A 
ATOM      4  C   UNL     1      -8.531  -3.136   0.037  0.00  0.00    +0.000 A 
ATOM      5  C   UNL     1      -7.689  -2.016   0.031  0.00  0.00    +0.000 A 
ATOM      6  C   UNL     1      -6.299  -2.165  -0.002  0.00  0.00    +0.000 A 
ENDROOT
BRANCH   1   7
ATOM      7  C   UNL     1      -4.224  -3.615  -0.054  0.00  0.00    +0.000 C 
BRANCH   7   8
ATOM      8  O   UNL     1      -3.888  -4.364  -1.218  0.00  0.00    +0.000 OA
BRANCH   8   9
ATOM      9  C   UNL     1      -2.483  -4.601  -1.312  0.00  0.00    +0.000 C 
BRANCH   9  14
ATOM     10  C   UNL     1      -0.760  -6.936  -3.597  0.00  0.00    +0.000 A 
ATOM     11  C   UNL     1      -1.488  -6.880  -4.780  0.00  0.00    +0.000 A 
ATOM     12  C   UNL     1      -2.590  -6.037  -4.831  0.00  0.00    +0.000 A 
ATOM     13  C   UNL     1      -2.928  -5.287  -3.708  0.00  0.00    +0.000 A 
ATOM     14  C   UNL     1      -2.159  -5.409  -2.550  0.00  0.00    +0.000 A 
ATOM     15  N   UNL     1      -1.068  -6.214  -2.492  0.00  0.00    +0.000 NA
BRANCH  10  17
ATOM     16  N   UNL     1       1.319  -8.483  -3.446  0.00  0.00    +0.000 NA
ATOM     17  C   UNL     1       0.393  -7.786  -3.493  0.00  0.00    +0.000 C 
ENDBRANCH  10  17
ENDBRANCH   9  14
ENDBRANCH   8   9
ENDBRANCH   7   8
ENDBRANCH   1   7
BRANCH   4  18
ATOM     18  C   UNL     1     -10.029  -2.959   0.050  0.00  0.00    +0.000 C 
BRANCH  18  19
ATOM     19  N   UNL     1     -10.535  -2.868   1.394  0.00  0.00    +0.000 N 
ATOM     20  C   UNL     1     -11.877  -2.746   1.650  0.00  0.00    +0.000 C 
ATOM     21  O   UNL     1     -12.716  -2.732   0.754  0.00  0.00    +0.000 OA
ATOM     22  H   UNL     1      -9.869  -2.615   2.116  0.00  0.00    +0.000 HD
BRANCH  20  23
ATOM     23  C   UNL     1     -12.264  -2.698   3.066  0.00  0.00    +0.000 A 
ATOM     24  C   UNL     1     -13.532  -3.109   3.452  0.00  0.00    +0.000 A 
ATOM     25  S   UNL     1     -13.790  -3.033   5.137  0.00  0.00    +0.000 S 
ATOM     26  C   UNL     1     -12.233  -2.400   5.403  0.00  0.00    +0.000 A 
ATOM     27  N   UNL     1     -11.812  -2.076   6.655  0.00  0.00    +0.000 NA
ATOM     28  C   UNL     1     -10.619  -1.581   6.705  0.00  0.00    +0.000 A 
ATOM     29  N   UNL     1      -9.807  -1.389   5.619  0.00  0.00    +0.000 N 
ATOM     30  C   UNL     1     -10.178  -1.731   4.341  0.00  0.00    +0.000 A 
ATOM     31  O   UNL     1      -9.406  -1.593   3.397  0.00  0.00    +0.000 OA
ATOM     32  C   UNL     1     -11.518  -2.272   4.226  0.00  0.00    +0.000 A 
ATOM     33  H   UNL     1      -8.877  -1.012   5.725  0.00  0.00    +0.000 HD
ENDBRANCH  20  23
ENDBRANCH  18  19
ENDBRANCH   4  18
TORSDOF 8
