REMARK  Name = 
REMARK  8 active torsions:
REMARK  status: ('A' for Active; 'I' for Inactive)
REMARK    1  A    between atoms: C_1  and  N_2
REMARK    2  A    between atoms: C_3  and  C_5
REMARK    3  A    between atoms: C_8  and  O_9
REMARK    4  A    between atoms: O_9  and  C_10
REMARK    5  A    between atoms: C_10  and  C_11
REMARK    6  A    between atoms: C_11  and  C_12
REMARK    7  A    between atoms: C_11  and  C_13
REMARK    8  A    between atoms: C_11  and  C_14
REMARK                            x       y       z     vdW  Elec       q    Type
REMARK                         _______ _______ _______ _____ _____    ______ ____
ROOT
ATOM      1  C   UNL     1       4.594   0.746  -1.355  0.00  0.00    +0.000 A 
ATOM      2  C   UNL     1       5.266  -0.467  -1.174  0.00  0.00    +0.000 A 
ATOM      3  C   UNL     1       6.665  -0.501  -1.148  0.00  0.00    +0.000 A 
ATOM      4  C   UNL     1       7.404   0.673  -1.310  0.00  0.00    +0.000 A 
ATOM      5  C   UNL     1       6.731   1.882  -1.502  0.00  0.00    +0.000 A 
ATOM      6  C   UNL     1       5.332   1.921  -1.530  0.00  0.00    +0.000 A 
ENDROOT
BRANCH   1   9
ATOM      7  C   UNL     1       0.984  -0.155  -0.670  0.00  0.00    +0.000 C 
ATOM      8  N   UNL     1       2.422  -0.143  -0.686  0.00  0.00    +0.000 N 
ATOM      9  C   UNL     1       3.111   0.813  -1.412  0.00  0.00    +0.000 C 
ATOM     10  O   UNL     1       2.554   1.694  -2.059  0.00  0.00    +0.000 OA
ATOM     11  H   UNL     1       2.919  -0.723  -0.026  0.00  0.00    +0.000 HD
ENDBRANCH   1   9
BRANCH   4  12
ATOM     12  O   UNL     1       8.770   0.755  -1.307  0.00  0.00    +0.000 OA
BRANCH  12  13
ATOM     13  C   UNL     1       9.495  -0.468  -1.114  0.00  0.00    +0.000 C 
BRANCH  13  14
ATOM     14  C   UNL     1      11.030  -0.214  -1.116  0.00  0.00    +0.000 C 
ATOM     15  C   UNL     1      11.453   0.392  -2.475  0.00  0.00    +0.000 C 
ATOM     16  C   UNL     1      11.346   0.843  -0.029  0.00  0.00    +0.000 C 
BRANCH  14  17
ATOM     17  C   UNL     1      11.789  -1.542  -0.896  0.00  0.00    +0.000 A 
ATOM     18  C   UNL     1      11.642  -2.614  -1.799  0.00  0.00    +0.000 A 
ATOM     19  C   UNL     1      12.370  -3.800  -1.649  0.00  0.00    +0.000 A 
ATOM     20  C   UNL     1      13.259  -3.946  -0.589  0.00  0.00    +0.000 A 
ATOM     21  C   UNL     1      13.403  -2.916   0.331  0.00  0.00    +0.000 A 
ATOM     22  C   UNL     1      12.674  -1.732   0.181  0.00  0.00    +0.000 A 
ENDBRANCH  14  17
ENDBRANCH  13  14
ENDBRANCH  12  13
ENDBRANCH   4  12
TORSDOF 5
