REMARK  Name = 
REMARK  4 active torsions:
REMARK  status: ('A' for Active; 'I' for Inactive)
REMARK    1  A    between atoms: N_1  and  C_2
REMARK    2  A    between atoms: C_2  and  C_3
REMARK    3  A    between atoms: C_6  and  C_7
REMARK    4  A    between atoms: C_7  and  N_8
REMARK                            x       y       z     vdW  Elec       q    Type
REMARK                         _______ _______ _______ _____ _____    ______ ____
ROOT
ATOM      1  C   UNL     1       2.786   0.511  -1.244  0.00  0.00    +0.000 A 
ATOM      2  C   UNL     1       1.956   0.456  -2.373  0.00  0.00    +0.000 A 
ATOM      3  C   UNL     1       2.446   0.781  -3.639  0.00  0.00    +0.000 A 
ATOM      4  C   UNL     1       3.779   1.180  -3.807  0.00  0.00    +0.000 A 
ATOM      5  C   UNL     1       4.610   1.233  -2.679  0.00  0.00    +0.000 A 
ATOM      6  C   UNL     1       4.121   0.898  -1.412  0.00  0.00    +0.000 A 
ENDROOT
BRANCH   1   7
ATOM      7  C   UNL     1       2.241   0.172   0.120  0.00  0.00    +0.000 C 
BRANCH   7   8
ATOM      8  N   UNL     1       1.754  -1.202   0.172  0.00  0.00    +0.000 NA
ATOM      9  H   UNL     1       1.481  -1.425   1.126  0.00  0.00    +0.000 HD
ATOM     10  H   UNL     1       2.522  -1.829  -0.065  0.00  0.00    +0.000 HD
ENDBRANCH   7   8
ENDBRANCH   1   7
BRANCH   4  11
ATOM     11  C   UNL     1       4.315   1.536  -5.169  0.00  0.00    +0.000 C 
BRANCH  11  12
ATOM     12  N   UNL     1       4.171   2.955  -5.484  0.00  0.00    +0.000 N 
ATOM     13  C   UNL     1       5.114   3.910  -5.191  0.00  0.00    +0.000 A 
ATOM     14  C   UNL     1       4.722   5.098  -5.767  0.00  0.00    +0.000 A 
ATOM     15  C   UNL     1       3.496   4.857  -6.450  0.00  0.00    +0.000 A 
ATOM     16  C   UNL     1       2.649   5.652  -7.231  0.00  0.00    +0.000 A 
ATOM     17  N   UNL     1       1.525   5.135  -7.785  0.00  0.00    +0.000 NA
ATOM     18  C   UNL     1       1.232   3.837  -7.559  0.00  0.00    +0.000 A 
ATOM     19  C   UNL     1       2.000   2.969  -6.797  0.00  0.00    +0.000 A 
ATOM     20  C   UNL     1       3.163   3.516  -6.246  0.00  0.00    +0.000 A 
ENDBRANCH  11  12
ENDBRANCH   4  11
TORSDOF 4
