REMARK  Name = 
REMARK  5 active torsions:
REMARK  status: ('A' for Active; 'I' for Inactive)
REMARK    1  A    between atoms: C_1  and  C_2
REMARK    2  A    between atoms: C_2  and  O_3
REMARK    3  A    between atoms: C_2  and  C_13
REMARK    4  A    between atoms: O_3  and  C_4
REMARK    5  A    between atoms: C_7  and  C_8
REMARK                            x       y       z     vdW  Elec       q    Type
REMARK                         _______ _______ _______ _____ _____    ______ ____
ROOT
ATOM      1  C   UNL     1       2.540   2.480   0.481  0.00  0.00    +0.000 A 
ATOM      2  C   UNL     1       2.286   3.424   1.475  0.00  0.00    +0.000 A 
ATOM      3  C   UNL     1       1.964   4.736   1.124  0.00  0.00    +0.000 A 
ATOM      4  C   UNL     1       1.924   5.063  -0.225  0.00  0.00    +0.000 A 
ATOM      5  N   UNL     1       2.192   4.178  -1.225  0.00  0.00    +0.000 NA
ATOM      6  C   UNL     1       2.501   2.914  -0.840  0.00  0.00    +0.000 A 
ENDROOT
BRANCH   4   7
ATOM      7  C   UNL     1       1.574   6.456  -0.646  0.00  0.00    +0.000 C 
ATOM      8  N   UNL     1       1.567   6.679  -1.998  0.00  0.00    +0.000 N 
ATOM      9  O   UNL     1       1.311   7.345   0.154  0.00  0.00    +0.000 OA
ATOM     10  H   UNL     1       1.799   5.921  -2.629  0.00  0.00    +0.000 HD
ATOM     11  H   UNL     1       1.355   7.599  -2.352  0.00  0.00    +0.000 HD
ENDBRANCH   4   7
BRANCH   1  12
ATOM     12  O   UNL     1       2.818   1.211   0.910  0.00  0.00    +0.000 OA
BRANCH  12  14
ATOM     13  C   UNL     1       0.943  -0.001  -0.082  0.00  0.00    +0.000 C 
ATOM     14  C   UNL     1       2.466   0.126   0.034  0.00  0.00    +0.000 C 
BRANCH  14  15
ATOM     15  C   UNL     1       3.022  -1.190   0.569  0.00  0.00    +0.000 A 
ATOM     16  C   UNL     1       3.349  -2.215  -0.339  0.00  0.00    +0.000 A 
ATOM     17  C   UNL     1       3.770  -3.468   0.112  0.00  0.00    +0.000 A 
ATOM     18  C   UNL     1       3.874  -3.715   1.479  0.00  0.00    +0.000 A 
ATOM     19  C   UNL     1       3.566  -2.704   2.388  0.00  0.00    +0.000 A 
ATOM     20 CL   UNL     1       3.692  -3.015   4.076  0.00  0.00    +0.000 Cl
ATOM     21  C   UNL     1       3.140  -1.450   1.943  0.00  0.00    +0.000 A 
ENDBRANCH  14  15
ENDBRANCH  12  14
ENDBRANCH   1  12
TORSDOF 4
