REMARK  Name = 
REMARK  6 active torsions:
REMARK  status: ('A' for Active; 'I' for Inactive)
REMARK    1  A    between atoms: C_1  and  C_2
REMARK    2  A    between atoms: C_4  and  N_5
REMARK    3  A    between atoms: C_4  and  C_15
REMARK    4  A    between atoms: C_9  and  C_10
REMARK    5  A    between atoms: C_18  and  O_19
REMARK    6  A    between atoms: O_19  and  C_20
REMARK                            x       y       z     vdW  Elec       q    Type
REMARK                         _______ _______ _______ _____ _____    ______ ____
ROOT
ATOM      1  C   UNL     1       2.750  -0.046   1.368  0.00  0.00    +0.000 C 
ATOM      2  C   UNL     1       2.457  -0.059  -0.092  0.00  0.00    +0.000 C 
ATOM      3  C   UNL     1       3.344   0.718  -1.006  0.00  0.00    +0.000 C 
ATOM      4  C   UNL     1       3.285  -0.796  -1.155  0.00  0.00    +0.000 C 
ENDROOT
BRANCH   4   5
ATOM      5  N   UNL     1       4.488  -1.584  -0.794  0.00  0.00    +0.000 N 
ATOM      6  C   UNL     1       5.618  -1.636  -1.640  0.00  0.00    +0.000 A 
ATOM      7  C   UNL     1       6.067  -0.533  -2.355  0.00  0.00    +0.000 A 
ATOM      8  C   UNL     1       7.237  -0.608  -3.109  0.00  0.00    +0.000 A 
ATOM      9  C   UNL     1       7.929  -1.803  -3.126  0.00  0.00    +0.000 A 
ATOM     10  N   UNL     1       7.491  -2.884  -2.443  0.00  0.00    +0.000 NA
ATOM     11  N   UNL     1       6.328  -2.788  -1.692  0.00  0.00    +0.000 NA
ATOM     12  H   UNL     1       4.320  -2.540  -0.484  0.00  0.00    +0.000 HD
BRANCH   9  13
ATOM     13  C   UNL     1       9.205  -1.929  -3.891  0.00  0.00    +0.000 C 
ATOM     14  N   UNL     1       9.844  -3.130  -3.829  0.00  0.00    +0.000 N 
ATOM     15  O   UNL     1       9.658  -0.992  -4.540  0.00  0.00    +0.000 OA
ATOM     16  H   UNL     1       9.471  -3.888  -3.276  0.00  0.00    +0.000 HD
ATOM     17  H   UNL     1      10.723  -3.245  -4.316  0.00  0.00    +0.000 HD
ENDBRANCH   9  13
ENDBRANCH   4   5
BRANCH   4  18
ATOM     18  C   UNL     1       2.437  -1.455  -2.249  0.00  0.00    +0.000 A 
ATOM     19  C   UNL     1       2.268  -0.884  -3.521  0.00  0.00    +0.000 A 
ATOM     20  C   UNL     1       1.512  -1.515  -4.517  0.00  0.00    +0.000 A 
ATOM     21  C   UNL     1       0.933  -2.758  -4.273  0.00  0.00    +0.000 A 
ATOM     22  C   UNL     1       1.044  -3.323  -3.005  0.00  0.00    +0.000 A 
ATOM     23  C   UNL     1       1.786  -2.680  -2.009  0.00  0.00    +0.000 A 
BRANCH  21  24
ATOM     24  O   UNL     1       0.227  -3.493  -5.182  0.00  0.00    +0.000 OA
BRANCH  24  25
ATOM     25  C   UNL     1       0.590  -3.282  -6.537  0.00  0.00    +0.000 C 
ATOM     26  F   UNL     1       0.255  -4.402  -7.226  0.00  0.00    +0.000 F 
ATOM     27  F   UNL     1      -0.168  -2.275  -7.034  0.00  0.00    +0.000 F 
ENDBRANCH  24  25
ENDBRANCH  21  24
ENDBRANCH   4  18
TORSDOF 5
