REMARK  Name = 
REMARK  6 active torsions:
REMARK  status: ('A' for Active; 'I' for Inactive)
REMARK    1  A    between atoms: C_2  and  C_25
REMARK    2  A    between atoms: N_3  and  C_4
REMARK    3  A    between atoms: C_4  and  C_5
REMARK    4  A    between atoms: C_8  and  C_9
REMARK    5  A    between atoms: C_9  and  N_10
REMARK    6  A    between atoms: C_11  and  C_13
REMARK                            x       y       z     vdW  Elec       q    Type
REMARK                         _______ _______ _______ _____ _____    ______ ____
ROOT
ATOM      1  C   UNL     1       3.278  -2.831   2.499  0.00  0.00    +0.000 C 
ATOM      2  C   UNL     1       2.648  -4.227   2.599  0.00  0.00    +0.000 C 
ATOM      3  C   UNL     1       3.454  -5.160   3.496  0.00  0.00    +0.000 C 
ATOM      4  C   UNL     1       3.626  -4.587   4.914  0.00  0.00    +0.000 C 
ATOM      5  C   UNL     1       4.147  -3.138   4.885  0.00  0.00    +0.000 C 
ATOM      6  C   UNL     1       3.370  -2.240   3.916  0.00  0.00    +0.000 C 
ENDROOT
BRANCH   1   7
ATOM      7  C   UNL     1       4.662  -2.814   1.816  0.00  0.00    +0.000 C 
BRANCH   7  10
ATOM      8  O   UNL     1       6.860  -2.801   0.100  0.00  0.00    +0.000 OA
ATOM      9  C   UNL     1       5.810  -3.299  -0.296  0.00  0.00    +0.000 C 
ATOM     10  N   UNL     1       4.654  -3.315   0.460  0.00  0.00    +0.000 N 
ATOM     11  H   UNL     1       3.937  -3.965   0.179  0.00  0.00    +0.000 HD
BRANCH   9  12
ATOM     12  C   UNL     1       5.697  -3.949  -1.586  0.00  0.00    +0.000 A 
ATOM     13  C   UNL     1       4.604  -4.423  -2.291  0.00  0.00    +0.000 A 
ATOM     14  C   UNL     1       5.065  -4.977  -3.511  0.00  0.00    +0.000 A 
ATOM     15  C   UNL     1       6.431  -4.817  -3.536  0.00  0.00    +0.000 A 
ATOM     16  N   UNL     1       6.803  -4.180  -2.381  0.00  0.00    +0.000 N 
ATOM     17  H   UNL     1       7.745  -3.914  -2.124  0.00  0.00    +0.000 HD
ENDBRANCH   9  12
ENDBRANCH   7  10
ENDBRANCH   1   7
BRANCH   4  18
ATOM     18  C   UNL     1       4.559  -5.460   5.773  0.00  0.00    +0.000 C 
BRANCH  18  19
ATOM     19  N   UNL     1       4.058  -6.812   5.920  0.00  0.00    +0.000 N 
ATOM     20  C   UNL     1       4.305  -7.565   7.042  0.00  0.00    +0.000 C 
ATOM     21  O   UNL     1       4.908  -7.122   8.016  0.00  0.00    +0.000 OA
ATOM     22  H   UNL     1       3.839  -7.315   5.067  0.00  0.00    +0.000 HD
BRANCH  20  23
ATOM     23  C   UNL     1       3.736  -8.918   7.047  0.00  0.00    +0.000 A 
ATOM     24  C   UNL     1       3.416  -9.519   8.257  0.00  0.00    +0.000 A 
ATOM     25  S   UNL     1       2.724 -11.068   8.089  0.00  0.00    +0.000 S 
ATOM     26  C   UNL     1       2.871 -11.010   6.395  0.00  0.00    +0.000 A 
ATOM     27  N   UNL     1       2.477 -12.059   5.624  0.00  0.00    +0.000 NA
ATOM     28  C   UNL     1       2.678 -11.895   4.359  0.00  0.00    +0.000 A 
ATOM     29  N   UNL     1       3.229 -10.774   3.794  0.00  0.00    +0.000 N 
ATOM     30  C   UNL     1       3.601  -9.673   4.530  0.00  0.00    +0.000 A 
ATOM     31  O   UNL     1       4.023  -8.655   3.990  0.00  0.00    +0.000 OA
ATOM     32  C   UNL     1       3.420  -9.816   5.962  0.00  0.00    +0.000 A 
ATOM     33  H   UNL     1       3.345 -10.706   2.794  0.00  0.00    +0.000 HD
ENDBRANCH  20  23
ENDBRANCH  18  19
ENDBRANCH   4  18
TORSDOF 6
