REMARK  Name = 
REMARK  9 active torsions:
REMARK  status: ('A' for Active; 'I' for Inactive)
REMARK    1  A    between atoms: C_1  and  C_2
REMARK    2  A    between atoms: C_2  and  C_3
REMARK    3  A    between atoms: C_3  and  C_4
REMARK    4  A    between atoms: C_4  and  N_5
REMARK    5  A    between atoms: C_4  and  C_18
REMARK    6  A    between atoms: C_6  and  C_8
REMARK    7  A    between atoms: C_21  and  C_22
REMARK    8  A    between atoms: C_22  and  N_23
REMARK    9  A    between atoms: C_24  and  C_26
REMARK                            x       y       z     vdW  Elec       q    Type
REMARK                         _______ _______ _______ _____ _____    ______ ____
ROOT
ATOM      1  C   UNL     1       4.305  -1.295  -0.367  0.00  0.00    +0.000 C 
ENDROOT
BRANCH   1   2
ATOM      2  C   UNL     1       4.902  -2.658  -0.723  0.00  0.00    +0.000 A 
ATOM      3  C   UNL     1       5.794  -2.792  -1.797  0.00  0.00    +0.000 A 
ATOM      4  C   UNL     1       6.319  -4.046  -2.145  0.00  0.00    +0.000 A 
ATOM      5  C   UNL     1       5.965  -5.197  -1.428  0.00  0.00    +0.000 A 
ATOM      6  C   UNL     1       5.115  -5.057  -0.324  0.00  0.00    +0.000 A 
ATOM      7  C   UNL     1       4.589  -3.807   0.022  0.00  0.00    +0.000 A 
BRANCH   5   8
ATOM      8  C   UNL     1       6.441  -6.562  -1.854  0.00  0.00    +0.000 C 
BRANCH   8   9
ATOM      9  N   UNL     1       7.668  -6.974  -1.227  0.00  0.00    +0.000 N 
ATOM     10  C   UNL     1       8.194  -8.224  -1.477  0.00  0.00    +0.000 C 
ATOM     11  O   UNL     1       7.650  -9.051  -2.205  0.00  0.00    +0.000 OA
ATOM     12  H   UNL     1       8.205  -6.350  -0.634  0.00  0.00    +0.000 HD
BRANCH  10  13
ATOM     13  C   UNL     1       9.463  -8.481  -0.800  0.00  0.00    +0.000 A 
ATOM     14  C   UNL     1      10.211  -9.643  -0.867  0.00  0.00    +0.000 A 
ATOM     15  N   UNL     1      11.305  -9.425  -0.084  0.00  0.00    +0.000 N 
ATOM     16  C   UNL     1      11.202  -8.163   0.430  0.00  0.00    +0.000 A 
ATOM     17  N   UNL     1      10.105  -7.561   0.022  0.00  0.00    +0.000 NA
ATOM     18  H   UNL     1      12.062 -10.075   0.089  0.00  0.00    +0.000 HD
ENDBRANCH  10  13
ENDBRANCH   8   9
ENDBRANCH   5   8
ENDBRANCH   1   2
BRANCH   1  19
ATOM     19  N   UNL     1       4.771  -0.916   0.960  0.00  0.00    +0.000 N 
ATOM     20  C   UNL     1       4.535   0.304   1.540  0.00  0.00    +0.000 C 
ATOM     21  O   UNL     1       3.825   1.167   1.036  0.00  0.00    +0.000 OA
ATOM     22  H   UNL     1       5.554  -1.461   1.306  0.00  0.00    +0.000 HD
BRANCH  20  23
ATOM     23  C   UNL     1       5.159   0.509   2.850  0.00  0.00    +0.000 A 
ATOM     24  C   UNL     1       4.558   1.324   3.798  0.00  0.00    +0.000 A 
ATOM     25  S   UNL     1       5.465   1.468   5.238  0.00  0.00    +0.000 S 
ATOM     26  C   UNL     1       6.707   0.480   4.621  0.00  0.00    +0.000 A 
ATOM     27  N   UNL     1       7.841   0.241   5.332  0.00  0.00    +0.000 NA
ATOM     28  C   UNL     1       8.709  -0.496   4.722  0.00  0.00    +0.000 A 
ATOM     29  N   UNL     1       8.537  -1.038   3.475  0.00  0.00    +0.000 N 
ATOM     30  C   UNL     1       7.389  -0.868   2.744  0.00  0.00    +0.000 A 
ATOM     31  O   UNL     1       7.226  -1.445   1.676  0.00  0.00    +0.000 OA
ATOM     32  C   UNL     1       6.406   0.002   3.360  0.00  0.00    +0.000 A 
ATOM     33  H   UNL     1       9.234  -1.643   3.066  0.00  0.00    +0.000 HD
ENDBRANCH  20  23
ENDBRANCH   1  19
BRANCH   1  34
ATOM     34  C   UNL     1       2.764  -1.287  -0.427  0.00  0.00    +0.000 C 
BRANCH  34  36
ATOM     35  C   UNL     1       0.676  -1.555  -1.781  0.00  0.00    +0.000 C 
ATOM     36  C   UNL     1       2.195  -1.626  -1.804  0.00  0.00    +0.000 C 
ENDBRANCH  34  36
ENDBRANCH   1  34
TORSDOF 8
