REMARK  Name = 
REMARK  6 active torsions:
REMARK  status: ('A' for Active; 'I' for Inactive)
REMARK    1  A    between atoms: C_2  and  C_19
REMARK    2  A    between atoms: N_3  and  C_4
REMARK    3  A    between atoms: C_4  and  C_5
REMARK    4  A    between atoms: C_8  and  C_9
REMARK    5  A    between atoms: C_9  and  O_10
REMARK    6  A    between atoms: C_9  and  C_11
REMARK                            x       y       z     vdW  Elec       q    Type
REMARK                         _______ _______ _______ _____ _____    ______ ____
ROOT
ATOM      1  C   UNL     1       2.203  -1.331  -2.260  0.00  0.00    +0.000 C 
ENDROOT
BRANCH   1   2
ATOM      2  C   UNL     1       3.158  -1.847  -3.296  0.00  0.00    +0.000 A 
ATOM      3  C   UNL     1       3.950  -0.985  -4.059  0.00  0.00    +0.000 A 
ATOM      4  C   UNL     1       4.824  -1.505  -5.010  0.00  0.00    +0.000 A 
ATOM      5  C   UNL     1       4.908  -2.887  -5.158  0.00  0.00    +0.000 A 
ATOM      6  N   UNL     1       4.170  -3.749  -4.405  0.00  0.00    +0.000 NA
ATOM      7  C   UNL     1       3.315  -3.212  -3.503  0.00  0.00    +0.000 A 
BRANCH   5   8
ATOM      8  C   UNL     1       5.841  -3.507  -6.192  0.00  0.00    +0.000 C 
BRANCH   8   9
ATOM      9  C   UNL     1       5.265  -3.527  -7.585  0.00  0.00    +0.000 A 
ATOM     10  C   UNL     1       5.902  -2.888  -8.654  0.00  0.00    +0.000 A 
ATOM     11  C   UNL     1       5.302  -2.876  -9.911  0.00  0.00    +0.000 A 
ATOM     12  C   UNL     1       4.082  -3.514 -10.063  0.00  0.00    +0.000 A 
ATOM     13  N   UNL     1       3.449  -4.165  -9.067  0.00  0.00    +0.000 NA
ATOM     14  C   UNL     1       4.057  -4.167  -7.857  0.00  0.00    +0.000 A 
ENDBRANCH   8   9
BRANCH   8  15
ATOM     15  O   UNL     1       6.177  -4.848  -5.819  0.00  0.00    +0.000 OA
ATOM     16  H   UNL     1       5.639  -5.025  -5.020  0.00  0.00    +0.000 HD
ENDBRANCH   8  15
ENDBRANCH   5   8
ENDBRANCH   1   2
BRANCH   1  19
ATOM     17  O   UNL     1       2.082  -3.186  -0.162  0.00  0.00    +0.000 OA
ATOM     18  C   UNL     1       2.772  -2.181  -0.017  0.00  0.00    +0.000 C 
ATOM     19  N   UNL     1       2.847  -1.204  -0.976  0.00  0.00    +0.000 N 
ATOM     20  H   UNL     1       3.555  -0.482  -0.896  0.00  0.00    +0.000 HD
BRANCH  18  21
ATOM     21  C   UNL     1       3.532  -1.945   1.216  0.00  0.00    +0.000 A 
ATOM     22  C   UNL     1       3.165  -2.596   2.385  0.00  0.00    +0.000 A 
ATOM     23  S   UNL     1       4.138  -2.201   3.728  0.00  0.00    +0.000 S 
ATOM     24  C   UNL     1       5.117  -1.177   2.785  0.00  0.00    +0.000 A 
ATOM     25  N   UNL     1       6.184  -0.534   3.331  0.00  0.00    +0.000 NA
ATOM     26  C   UNL     1       6.864   0.176   2.494  0.00  0.00    +0.000 A 
ATOM     27  N   UNL     1       6.565   0.315   1.163  0.00  0.00    +0.000 N 
ATOM     28  C   UNL     1       5.455  -0.256   0.585  0.00  0.00    +0.000 A 
ATOM     29  O   UNL     1       5.148  -0.009  -0.576  0.00  0.00    +0.000 OA
ATOM     30  C   UNL     1       4.686  -1.110   1.471  0.00  0.00    +0.000 A 
ATOM     31  H   UNL     1       7.123   0.910   0.569  0.00  0.00    +0.000 HD
ENDBRANCH  18  21
ENDBRANCH   1  19
TORSDOF 6
