REMARK  Name = 
REMARK  9 active torsions:
REMARK  status: ('A' for Active; 'I' for Inactive)
REMARK    1  A    between atoms: C_1  and  O_2
REMARK    2  A    between atoms: O_2  and  C_3
REMARK    3  A    between atoms: C_10  and  C_11
REMARK    4  A    between atoms: N_13  and  C_14
REMARK    5  A    between atoms: C_14  and  C_15
REMARK    6  A    between atoms: C_18  and  N_19
REMARK    7  A    between atoms: N_19  and  C_20
REMARK    8  A    between atoms: C_20  and  C_21
REMARK    9  A    between atoms: C_21  and  C_22
REMARK                            x       y       z     vdW  Elec       q    Type
REMARK                         _______ _______ _______ _____ _____    ______ ____
ROOT
ATOM      1  C   UNL     1       2.873   0.279  -3.483  0.00  0.00    +0.000 C 
ENDROOT
BRANCH   1   2
ATOM      2  C   UNL     1       1.662  -0.606  -3.310  0.00  0.00    +0.000 A 
ATOM      3  C   UNL     1       1.790  -1.998  -3.332  0.00  0.00    +0.000 A 
ATOM      4  C   UNL     1       0.682  -2.820  -3.096  0.00  0.00    +0.000 A 
ATOM      5  C   UNL     1      -0.575  -2.276  -2.810  0.00  0.00    +0.000 A 
ATOM      6  C   UNL     1      -0.718  -0.888  -2.885  0.00  0.00    +0.000 A 
ATOM      7  C   UNL     1       0.387  -0.059  -3.120  0.00  0.00    +0.000 A 
BRANCH   5   8
ATOM      8  N   UNL     1      -1.697  -3.046  -2.464  0.00  0.00    +0.000 N 
ATOM      9  H   UNL     1      -2.307  -3.183  -3.268  0.00  0.00    +0.000 HD
BRANCH   8  10
ATOM     10  C   UNL     1      -1.462  -4.284  -1.709  0.00  0.00    +0.000 C 
BRANCH  10  11
ATOM     11  C   UNL     1      -0.809  -3.982  -0.349  0.00  0.00    +0.000 C 
BRANCH  11  12
ATOM     12  C   UNL     1      -0.551  -5.221   0.464  0.00  0.00    +0.000 A 
ATOM     13  C   UNL     1       0.647  -5.928   0.327  0.00  0.00    +0.000 A 
ATOM     14  C   UNL     1       0.835  -7.068   1.092  0.00  0.00    +0.000 A 
ATOM     15  N   UNL     1      -0.076  -7.547   1.965  0.00  0.00    +0.000 NA
ATOM     16  C   UNL     1      -1.224  -6.847   2.084  0.00  0.00    +0.000 A 
ATOM     17  C   UNL     1      -1.505  -5.694   1.368  0.00  0.00    +0.000 A 
ENDBRANCH  11  12
ENDBRANCH  10  11
ENDBRANCH   8  10
ENDBRANCH   5   8
ENDBRANCH   1   2
BRANCH   1  20
ATOM     18  C   UNL     1       4.213   1.283  -5.294  0.00  0.00    +0.000 C 
ATOM     19  O   UNL     1       5.000   1.784  -4.493  0.00  0.00    +0.000 OA
ATOM     20  N   UNL     1       3.147   0.536  -4.875  0.00  0.00    +0.000 N 
ATOM     21  H   UNL     1       2.454   0.234  -5.543  0.00  0.00    +0.000 HD
BRANCH  18  29
ATOM     22  C   UNL     1       2.448   0.155  -8.032  0.00  0.00    +0.000 A 
ATOM     23  N   UNL     1       2.007  -0.211  -9.251  0.00  0.00    +0.000 NA
ATOM     24  C   UNL     1       2.685   0.200 -10.322  0.00  0.00    +0.000 A 
ATOM     25  N   UNL     1       3.780   0.956 -10.323  0.00  0.00    +0.000 NA
ATOM     26  C   UNL     1       4.197   1.286  -9.088  0.00  0.00    +0.000 A 
ATOM     27  S   UNL     1       5.574   2.265  -8.908  0.00  0.00    +0.000 S 
ATOM     28  C   UNL     1       5.454   2.207  -7.218  0.00  0.00    +0.000 A 
ATOM     29  C   UNL     1       4.387   1.450  -6.750  0.00  0.00    +0.000 A 
ATOM     30  C   UNL     1       3.614   0.925  -7.880  0.00  0.00    +0.000 A 
BRANCH  22  32
ATOM     31  C   UNL     1       0.498  -0.903  -7.291  0.00  0.00    +0.000 C 
ATOM     32  O   UNL     1       1.697  -0.219  -6.936  0.00  0.00    +0.000 OA
ENDBRANCH  22  32
ENDBRANCH  18  29
ENDBRANCH   1  20
TORSDOF 8
