REMARK  Name = 
REMARK  4 active torsions:
REMARK  status: ('A' for Active; 'I' for Inactive)
REMARK    1  A    between atoms: C_2  and  C_3
REMARK    2  A    between atoms: C_5  and  O_6
REMARK    3  A    between atoms: O_6  and  C_7
REMARK    4  A    between atoms: C_7  and  C_8
REMARK                            x       y       z     vdW  Elec       q    Type
REMARK                         _______ _______ _______ _____ _____    ______ ____
ROOT
ATOM      1  O   UNL     1      -2.427   2.338  -0.018  0.00  0.00    +0.000 OA
ENDROOT
BRANCH   1   4
ATOM      2  C   UNL     1       0.454   0.041   0.023  0.00  0.00    +0.000 A 
ATOM      3  C   UNL     1      -0.219   1.259   0.022  0.00  0.00    +0.000 A 
ATOM      4  C   UNL     1      -1.609   1.241  -0.005  0.00  0.00    +0.000 A 
ATOM      5  C   UNL     1      -2.268   0.014  -0.023  0.00  0.00    +0.000 A 
ATOM      6  C   UNL     1      -1.515  -1.149  -0.014  0.00  0.00    +0.000 A 
ATOM      7  N   UNL     1      -0.167  -1.162   0.007  0.00  0.00    +0.000 NA
BRANCH   2   9
ATOM      8  N   UNL     1       3.052   0.049   0.034  0.00  0.00    +0.000 NA
ATOM      9  C   UNL     1       1.891   0.011   0.031  0.00  0.00    +0.000 C 
ENDBRANCH   2   9
ENDBRANCH   1   4
BRANCH   1  10
ATOM     10  C   UNL     1      -1.801   3.624   0.002  0.00  0.00    +0.000 C 
BRANCH  10  11
ATOM     11  C   UNL     1      -2.837   4.719  -0.032  0.00  0.00    +0.000 A 
ATOM     12  C   UNL     1      -2.545   5.963  -0.607  0.00  0.00    +0.000 A 
ATOM     13  C   UNL     1      -3.506   6.972  -0.603  0.00  0.00    +0.000 A 
ATOM     14  C   UNL     1      -4.724   6.703  -0.006  0.00  0.00    +0.000 A 
ATOM     15 CL   UNL     1      -5.962   7.889   0.042  0.00  0.00    +0.000 Cl
ATOM     16  N   UNL     1      -5.042   5.531   0.577  0.00  0.00    +0.000 NA
ATOM     17  C   UNL     1      -4.091   4.569   0.553  0.00  0.00    +0.000 A 
ENDBRANCH  10  11
ENDBRANCH   1  10
TORSDOF 4
