REMARK  Name = 
REMARK  9 active torsions:
REMARK  status: ('A' for Active; 'I' for Inactive)
REMARK    1  A    between atoms: C_1  and  C_2
REMARK    2  A    between atoms: C_2  and  N_3
REMARK    3  A    between atoms: C_2  and  C_26
REMARK    4  A    between atoms: N_3  and  C_4
REMARK    5  A    between atoms: C_6  and  C_7
REMARK    6  A    between atoms: C_12  and  C_13
REMARK    7  A    between atoms: C_13  and  C_14
REMARK    8  A    between atoms: C_14  and  N_15
REMARK    9  A    between atoms: C_19  and  C_20
REMARK                            x       y       z     vdW  Elec       q    Type
REMARK                         _______ _______ _______ _____ _____    ______ ____
ROOT
ATOM      1  C   UNL     1       2.572  -0.490  -2.458  0.00  0.00    +0.000 A 
ATOM      2  C   UNL     1       1.227  -0.779  -2.758  0.00  0.00    +0.000 A 
ATOM      3  C   UNL     1       0.855  -1.530  -3.883  0.00  0.00    +0.000 A 
ATOM      4  C   UNL     1       1.847  -1.965  -4.760  0.00  0.00    +0.000 A 
ATOM      5  C   UNL     1       3.187  -1.657  -4.504  0.00  0.00    +0.000 A 
ATOM      6  C   UNL     1       3.567  -0.921  -3.364  0.00  0.00    +0.000 A 
ENDROOT
BRANCH   3   7
ATOM      7  C   UNL     1      -0.598  -1.833  -4.061  0.00  0.00    +0.000 C 
ATOM      8  N   UNL     1      -0.986  -2.613  -5.116  0.00  0.00    +0.000 N 
ATOM      9  O   UNL     1      -1.441  -1.418  -3.275  0.00  0.00    +0.000 OA
ATOM     10  H   UNL     1      -0.369  -3.048  -5.781  0.00  0.00    +0.000 HD
ATOM     11  H   UNL     1      -1.970  -2.835  -5.169  0.00  0.00    +0.000 HD
ENDBRANCH   3   7
BRANCH   1  12
ATOM     12  N   UNL     1       2.929   0.241  -1.294  0.00  0.00    +0.000 N 
ATOM     13  H   UNL     1       3.437   1.084  -1.561  0.00  0.00    +0.000 HD
BRANCH  12  15
ATOM     14  C   UNL     1       1.374  -0.699   0.471  0.00  0.00    +0.000 C 
ATOM     15  C   UNL     1       2.145   0.422  -0.165  0.00  0.00    +0.000 C 
ATOM     16  C   UNL     1       2.122   1.755   0.519  0.00  0.00    +0.000 C 
ENDBRANCH  12  15
ENDBRANCH   1  12
BRANCH   6  17
ATOM     17  C   UNL     1       5.053  -0.685  -3.136  0.00  0.00    +0.000 C 
BRANCH  17  18
ATOM     18  C   UNL     1       5.680  -1.808  -2.304  0.00  0.00    +0.000 C 
BRANCH  18  19
ATOM     19  N   UNL     1       7.137  -1.632  -2.153  0.00  0.00    +0.000 N 
ATOM     20  C   UNL     1       7.717  -2.688  -1.413  0.00  0.00    +0.000 A 
ATOM     21  C   UNL     1       9.082  -2.702  -1.123  0.00  0.00    +0.000 A 
ATOM     22  N   UNL     1       9.701  -3.690  -0.418  0.00  0.00    +0.000 NA
ATOM     23  C   UNL     1       8.899  -4.712  -0.006  0.00  0.00    +0.000 A 
ATOM     24  C   UNL     1       7.546  -4.707  -0.305  0.00  0.00    +0.000 A 
ATOM     25  N   UNL     1       6.948  -3.718  -1.005  0.00  0.00    +0.000 NA
ATOM     26  H   UNL     1       7.368  -0.752  -1.697  0.00  0.00    +0.000 HD
BRANCH  23  27
ATOM     27  C   UNL     1       9.428  -5.882   0.793  0.00  0.00    +0.000 C 
ATOM     28  F   UNL     1      10.770  -5.846   1.036  0.00  0.00    +0.000 F 
ATOM     29  F   UNL     1       8.834  -5.984   2.019  0.00  0.00    +0.000 F 
ATOM     30  F   UNL     1       9.194  -7.077   0.181  0.00  0.00    +0.000 F 
ENDBRANCH  23  27
ENDBRANCH  18  19
ENDBRANCH  17  18
ENDBRANCH   6  17
TORSDOF 7
