REMARK  Name = 
REMARK  5 active torsions:
REMARK  status: ('A' for Active; 'I' for Inactive)
REMARK    1  A    between atoms: N_1  and  C_2
REMARK    2  A    between atoms: C_2  and  C_3
REMARK    3  A    between atoms: C_3  and  C_4
REMARK    4  A    between atoms: C_7  and  C_8
REMARK    5  A    between atoms: C_8  and  C_9
REMARK                            x       y       z     vdW  Elec       q    Type
REMARK                         _______ _______ _______ _____ _____    ______ ____
ROOT
ATOM      1  C   UNL     1       4.653  -1.350   0.300  0.00  0.00    +0.000 A 
ATOM      2  C   UNL     1       5.393  -2.535   0.396  0.00  0.00    +0.000 A 
ATOM      3  C   UNL     1       6.788  -2.517   0.283  0.00  0.00    +0.000 A 
ATOM      4  C   UNL     1       7.474  -1.312   0.073  0.00  0.00    +0.000 A 
ATOM      5  C   UNL     1       6.730  -0.122   0.019  0.00  0.00    +0.000 A 
ATOM      6  C   UNL     1       5.337  -0.141   0.133  0.00  0.00    +0.000 A 
ENDROOT
BRANCH   1   7
ATOM      7  C   UNL     1       3.143  -1.377   0.344  0.00  0.00    +0.000 C 
BRANCH   7   8
ATOM      8  C   UNL     1       2.587  -1.224   1.761  0.00  0.00    +0.000 C 
BRANCH   8   9
ATOM      9  N   UNL     1       1.123  -1.244   1.753  0.00  0.00    +0.000 NA
ATOM     10  H   UNL     1       0.777  -1.158   2.707  0.00  0.00    +0.000 HD
ATOM     11  H   UNL     1       0.795  -2.149   1.412  0.00  0.00    +0.000 HD
ENDBRANCH   8   9
ENDBRANCH   7   8
ENDBRANCH   1   7
BRANCH   4  12
ATOM     12  C   UNL     1       8.966  -1.298  -0.210  0.00  0.00    +0.000 C 
BRANCH  12  13
ATOM     13  C   UNL     1       9.048  -1.266  -1.705  0.00  0.00    +0.000 A 
ATOM     14  N   UNL     1       9.140  -0.098  -2.364  0.00  0.00    +0.000 NA
ATOM     15  N   UNL     1       8.860  -0.435  -3.635  0.00  0.00    +0.000 N 
ATOM     16  C   UNL     1       8.616  -1.772  -3.824  0.00  0.00    +0.000 A 
ATOM     17  C   UNL     1       8.148  -2.484  -4.929  0.00  0.00    +0.000 A 
ATOM     18  C   UNL     1       8.030  -3.870  -4.782  0.00  0.00    +0.000 A 
ATOM     19  C   UNL     1       8.414  -4.509  -3.602  0.00  0.00    +0.000 A 
ATOM     20  C   UNL     1       8.844  -3.765  -2.497  0.00  0.00    +0.000 A 
ATOM     21  C   UNL     1       8.894  -2.364  -2.601  0.00  0.00    +0.000 A 
ATOM     22  H   UNL     1       8.829   0.302  -4.330  0.00  0.00    +0.000 HD
ENDBRANCH  12  13
ENDBRANCH   4  12
TORSDOF 5
