REMARK  Name = 
REMARK  5 active torsions:
REMARK  status: ('A' for Active; 'I' for Inactive)
REMARK    1  A    between atoms: C_2  and  C_4
REMARK    2  A    between atoms: N_8  and  C_9
REMARK    3  A    between atoms: C_9  and  C_10
REMARK    4  A    between atoms: C_10  and  C_13
REMARK    5  A    between atoms: C_17  and  C_18
REMARK                            x       y       z     vdW  Elec       q    Type
REMARK                         _______ _______ _______ _____ _____    ______ ____
ROOT
ATOM      1  C   UNL     1       6.205  -1.800   6.831  0.00  0.00    +0.000 C 
ATOM      2  F   UNL     1       7.452  -1.890   6.277  0.00  0.00    +0.000 F 
ATOM      3  F   UNL     1       6.191  -0.611   7.503  0.00  0.00    +0.000 F 
ENDROOT
BRANCH   1   4
ATOM      4  C   UNL     1       5.898  -2.972   7.745  0.00  0.00    +0.000 A 
ATOM      5  C   UNL     1       5.089  -2.806   8.876  0.00  0.00    +0.000 A 
ATOM      6  C   UNL     1       4.758  -3.901   9.669  0.00  0.00    +0.000 A 
ATOM      7  C   UNL     1       5.211  -5.175   9.325  0.00  0.00    +0.000 A 
ATOM      8  C   UNL     1       6.004  -5.386   8.184  0.00  0.00    +0.000 A 
ATOM      9  C   UNL     1       6.362  -4.258   7.423  0.00  0.00    +0.000 A 
BRANCH   8  10
ATOM     10  C   UNL     1       6.402  -6.743   7.766  0.00  0.00    +0.000 A 
ATOM     11  C   UNL     1       5.531  -7.832   7.883  0.00  0.00    +0.000 A 
ATOM     12  N   UNL     1       5.812  -9.102   7.501  0.00  0.00    +0.000 NA
ATOM     13  C   UNL     1       7.032  -9.307   6.959  0.00  0.00    +0.000 A 
ATOM     14  C   UNL     1       7.973  -8.307   6.784  0.00  0.00    +0.000 A 
ATOM     15 CL   UNL     1       9.497  -8.644   6.071  0.00  0.00    +0.000 Cl
ATOM     16  C   UNL     1       7.654  -7.015   7.193  0.00  0.00    +0.000 A 
ENDBRANCH   8  10
ENDBRANCH   1   4
BRANCH   1  17
ATOM     17  C   UNL     1       5.164  -1.747   5.680  0.00  0.00    +0.000 C 
BRANCH  17  22
ATOM     18  C   UNL     1       2.957   0.140   1.484  0.00  0.00    +0.000 A 
ATOM     19  C   UNL     1       2.392  -0.552   2.549  0.00  0.00    +0.000 A 
ATOM     20  C   UNL     1       3.176  -0.831   3.667  0.00  0.00    +0.000 A 
ATOM     21  C   UNL     1       4.506  -0.421   3.705  0.00  0.00    +0.000 A 
ATOM     22  N   UNL     1       5.304  -0.563   4.824  0.00  0.00    +0.000 N 
ATOM     23  N   UNL     1       5.071   0.220   2.664  0.00  0.00    +0.000 NA
ATOM     24  C   UNL     1       4.297   0.479   1.575  0.00  0.00    +0.000 A 
ATOM     25  H   UNL     1       6.258  -0.296   4.588  0.00  0.00    +0.000 HD
BRANCH  18  27
ATOM     26  N   UNL     1       0.841   0.726   0.453  0.00  0.00    +0.000 N 
ATOM     27  C   UNL     1       2.183   0.518   0.287  0.00  0.00    +0.000 C 
ATOM     28  O   UNL     1       2.721   0.674  -0.804  0.00  0.00    +0.000 OA
ATOM     29  H   UNL     1       0.336   1.089  -0.347  0.00  0.00    +0.000 HD
ATOM     30  H   UNL     1       0.423   0.859   1.363  0.00  0.00    +0.000 HD
ENDBRANCH  18  27
ENDBRANCH  17  22
ENDBRANCH   1  17
TORSDOF 5
