REMARK  Name = 
REMARK  5 active torsions:
REMARK  status: ('A' for Active; 'I' for Inactive)
REMARK    1  A    between atoms: C_2  and  C_3
REMARK    2  A    between atoms: C_6  and  C_7
REMARK    3  A    between atoms: C_7  and  C_8
REMARK    4  A    between atoms: C_11  and  O_12
REMARK    5  A    between atoms: C_13  and  C_14
REMARK                            x       y       z     vdW  Elec       q    Type
REMARK                         _______ _______ _______ _____ _____    ______ ____
ROOT
ATOM      1  C   UNL     1       4.037   1.434   0.748  0.00  0.00    +0.000 A 
ATOM      2  C   UNL     1       3.966   2.588  -0.042  0.00  0.00    +0.000 A 
ATOM      3  C   UNL     1       3.948   3.853   0.536  0.00  0.00    +0.000 A 
ATOM      4  C   UNL     1       4.026   3.985   1.924  0.00  0.00    +0.000 A 
ATOM      5  C   UNL     1       4.220   2.874   2.769  0.00  0.00    +0.000 A 
ATOM      6  C   UNL     1       4.234   1.609   2.136  0.00  0.00    +0.000 A 
ENDROOT
BRANCH   5   7
ATOM      7  C   UNL     1       4.367   2.988   4.247  0.00  0.00    +0.000 A 
ATOM      8  C   UNL     1       3.942   1.982   5.131  0.00  0.00    +0.000 A 
ATOM      9  C   UNL     1       4.103   2.121   6.513  0.00  0.00    +0.000 A 
ATOM     10  C   UNL     1       4.680   3.280   6.996  0.00  0.00    +0.000 A 
ATOM     11  N   UNL     1       5.112   4.276   6.203  0.00  0.00    +0.000 NA
ATOM     12  C   UNL     1       4.950   4.101   4.863  0.00  0.00    +0.000 A 
ENDBRANCH   5   7
BRANCH   1  13
ATOM     13  C   UNL     1       3.767   0.054   0.141  0.00  0.00    +0.000 C 
ATOM     14  C   UNL     1       2.673  -0.790   0.800  0.00  0.00    +0.000 C 
ATOM     15  C   UNL     1       2.383  -0.119  -0.500  0.00  0.00    +0.000 C 
BRANCH  13  19
ATOM     16  C   UNL     1       7.006  -2.168  -1.775  0.00  0.00    +0.000 A 
ATOM     17  C   UNL     1       6.762  -2.316  -0.408  0.00  0.00    +0.000 A 
ATOM     18  C   UNL     1       5.743  -1.580   0.211  0.00  0.00    +0.000 A 
ATOM     19  C   UNL     1       4.931  -0.689  -0.512  0.00  0.00    +0.000 A 
ATOM     20  C   UNL     1       5.216  -0.542  -1.887  0.00  0.00    +0.000 A 
ATOM     21  C   UNL     1       6.232  -1.272  -2.513  0.00  0.00    +0.000 A 
BRANCH  16  23
ATOM     22  N   UNL     1       8.849  -3.575  -2.944  0.00  0.00    +0.000 NA
ATOM     23  C   UNL     1       8.029  -2.943  -2.419  0.00  0.00    +0.000 C 
ENDBRANCH  16  23
ENDBRANCH  13  19
ENDBRANCH   1  13
BRANCH   4  24
ATOM     24  O   UNL     1       3.863   5.237   2.456  0.00  0.00    +0.000 OA
ATOM     25  H   UNL     1       3.575   5.850   1.759  0.00  0.00    +0.000 HD
ENDBRANCH   4  24
TORSDOF 5
