REMARK  Name = 
REMARK  5 active torsions:
REMARK  status: ('A' for Active; 'I' for Inactive)
REMARK    1  A    between atoms: C_1  and  C_2
REMARK    2  A    between atoms: C_4  and  C_5
REMARK    3  A    between atoms: C_10  and  C_11
REMARK    4  A    between atoms: C_11  and  C_12
REMARK    5  A    between atoms: C_15  and  C_16
REMARK                            x       y       z     vdW  Elec       q    Type
REMARK                         _______ _______ _______ _____ _____    ______ ____
ROOT
ATOM      1  C   UNL     1       0.642  -2.746   0.353  0.00  0.00    +0.000 C 
ATOM      2  C   UNL     1       0.583  -4.036  -0.454  0.00  0.00    +0.000 C 
ATOM      3  C   UNL     1      -0.612  -3.637   0.334  0.00  0.00    +0.000 C 
ENDROOT
BRANCH   1  10
ATOM      4  C   UNL     1       1.360  -1.384  -2.398  0.00  0.00    +0.000 C 
ATOM      5  C   UNL     1       0.712  -0.669  -1.256  0.00  0.00    +0.000 A 
ATOM      6  C   UNL     1       0.513   0.725  -1.348  0.00  0.00    +0.000 A 
ATOM      7  C   UNL     1      -0.093   1.440  -0.311  0.00  0.00    +0.000 A 
ATOM      8  C   UNL     1      -0.549   0.715   0.757  0.00  0.00    +0.000 A 
ATOM      9  N   UNL     1      -0.374  -0.618   0.887  0.00  0.00    +0.000 NA
ATOM     10  C   UNL     1       0.301  -1.314  -0.075  0.00  0.00    +0.000 A 
BRANCH   7  11
ATOM     11  C   UNL     1      -0.199   2.916  -0.395  0.00  0.00    +0.000 C 
ATOM     12  N   UNL     1      -0.743   3.608   0.651  0.00  0.00    +0.000 N 
ATOM     13  O   UNL     1       0.211   3.525  -1.381  0.00  0.00    +0.000 OA
ATOM     14  H   UNL     1      -1.061   3.217   1.525  0.00  0.00    +0.000 HD
ATOM     15  H   UNL     1      -0.749   4.618   0.572  0.00  0.00    +0.000 HD
ENDBRANCH   7  11
ENDBRANCH   1  10
BRANCH   1  16
ATOM     16  C   UNL     1       1.629  -2.796   1.524  0.00  0.00    +0.000 A 
ATOM     17  C   UNL     1       1.221  -2.855   2.861  0.00  0.00    +0.000 A 
ATOM     18  C   UNL     1       2.156  -2.889   3.896  0.00  0.00    +0.000 A 
ATOM     19  C   UNL     1       3.516  -2.859   3.588  0.00  0.00    +0.000 A 
ATOM     20  N   UNL     1       3.948  -2.767   2.299  0.00  0.00    +0.000 NA
ATOM     21  C   UNL     1       3.009  -2.732   1.322  0.00  0.00    +0.000 A 
BRANCH  19  22
ATOM     22  C   UNL     1       4.546  -2.948   4.707  0.00  0.00    +0.000 C 
ATOM     23  F   UNL     1       3.984  -3.092   5.946  0.00  0.00    +0.000 F 
ATOM     24  F   UNL     1       5.389  -4.013   4.572  0.00  0.00    +0.000 F 
ATOM     25  F   UNL     1       5.343  -1.845   4.799  0.00  0.00    +0.000 F 
ENDBRANCH  19  22
ENDBRANCH   1  16
TORSDOF 4
