REMARK  Name = 
REMARK  7 active torsions:
REMARK  status: ('A' for Active; 'I' for Inactive)
REMARK    1  A    between atoms: C_1  and  C_2
REMARK    2  A    between atoms: C_2  and  N_3
REMARK    3  A    between atoms: C_2  and  C_16
REMARK    4  A    between atoms: C_4  and  C_6
REMARK    5  A    between atoms: C_19  and  C_20
REMARK    6  A    between atoms: C_20  and  N_21
REMARK    7  A    between atoms: C_22  and  C_24
REMARK                            x       y       z     vdW  Elec       q    Type
REMARK                         _______ _______ _______ _____ _____    ______ ____
ROOT
ATOM      1  C   UNL     1       0.958  -0.026  -0.073  0.00  0.00    +0.000 C 
ATOM      2  C   UNL     1       2.492  -0.071   0.011  0.00  0.00    +0.000 C 
ENDROOT
BRANCH   2   3
ATOM      3  C   UNL     1       3.032  -1.045  -1.030  0.00  0.00    +0.000 A 
ATOM      4  C   UNL     1       3.888  -0.601  -2.049  0.00  0.00    +0.000 A 
ATOM      5  C   UNL     1       4.307  -1.475  -3.061  0.00  0.00    +0.000 A 
ATOM      6  C   UNL     1       3.873  -2.808  -3.080  0.00  0.00    +0.000 A 
ATOM      7  C   UNL     1       3.070  -3.267  -2.030  0.00  0.00    +0.000 A 
ATOM      8  C   UNL     1       2.656  -2.397  -1.018  0.00  0.00    +0.000 A 
BRANCH   6   9
ATOM      9  C   UNL     1       4.245  -3.730  -4.209  0.00  0.00    +0.000 C 
BRANCH   9  10
ATOM     10  N   UNL     1       5.436  -4.494  -3.924  0.00  0.00    +0.000 N 
ATOM     11  C   UNL     1       5.965  -5.345  -4.864  0.00  0.00    +0.000 C 
ATOM     12  O   UNL     1       5.439  -5.516  -5.962  0.00  0.00    +0.000 OA
ATOM     13  H   UNL     1       5.825  -4.455  -2.987  0.00  0.00    +0.000 HD
BRANCH  11  14
ATOM     14  C   UNL     1       7.193  -6.153  -4.459  0.00  0.00    +0.000 C 
ATOM     15  C   UNL     1       6.818  -7.411  -3.710  0.00  0.00    +0.000 C 
ATOM     16  C   UNL     1       6.737  -6.939  -2.273  0.00  0.00    +0.000 C 
ATOM     17  O   UNL     1       7.567  -5.771  -2.160  0.00  0.00    +0.000 OA
ATOM     18  C   UNL     1       8.090  -5.453  -3.463  0.00  0.00    +0.000 C 
ENDBRANCH  11  14
ENDBRANCH   9  10
ENDBRANCH   6   9
ENDBRANCH   2   3
BRANCH   2  19
ATOM     19  N   UNL     1       2.971  -0.438   1.336  0.00  0.00    +0.000 N 
ATOM     20  C   UNL     1       2.687   0.314   2.451  0.00  0.00    +0.000 C 
ATOM     21  O   UNL     1       1.963   1.304   2.416  0.00  0.00    +0.000 OA
ATOM     22  H   UNL     1       3.794  -1.033   1.365  0.00  0.00    +0.000 HD
BRANCH  20  23
ATOM     23  C   UNL     1       3.245  -0.157   3.723  0.00  0.00    +0.000 A 
ATOM     24  C   UNL     1       2.572   0.114   4.907  0.00  0.00    +0.000 A 
ATOM     25  S   UNL     1       3.363  -0.482   6.295  0.00  0.00    +0.000 S 
ATOM     26  C   UNL     1       4.654  -1.086   5.365  0.00  0.00    +0.000 A 
ATOM     27  N   UNL     1       5.720  -1.687   5.956  0.00  0.00    +0.000 NA
ATOM     28  C   UNL     1       6.642  -2.062   5.134  0.00  0.00    +0.000 A 
ATOM     29  N   UNL     1       6.585  -1.910   3.772  0.00  0.00    +0.000 N 
ATOM     30  C   UNL     1       5.506  -1.351   3.127  0.00  0.00    +0.000 A 
ATOM     31  O   UNL     1       5.444  -1.296   1.904  0.00  0.00    +0.000 OA
ATOM     32  C   UNL     1       4.461  -0.873   4.011  0.00  0.00    +0.000 A 
ATOM     33  H   UNL     1       7.331  -2.249   3.183  0.00  0.00    +0.000 HD
ENDBRANCH  20  23
ENDBRANCH   2  19
TORSDOF 6
