REMARK  Name = 
REMARK  10 active torsions:
REMARK  status: ('A' for Active; 'I' for Inactive)
REMARK    1  A    between atoms: N_1  and  C_2
REMARK    2  A    between atoms: C_2  and  C_3
REMARK    3  A    between atoms: C_3  and  C_4
REMARK    4  A    between atoms: C_4  and  N_5
REMARK    5  A    between atoms: N_5  and  C_6
REMARK    6  A    between atoms: C_6  and  C_7
REMARK    7  A    between atoms: C_10  and  C_11
REMARK    8  A    between atoms: C_11  and  O_12
REMARK    9  A    between atoms: O_12  and  C_13
REMARK   10  A    between atoms: C_21  and  C_23
REMARK                            x       y       z     vdW  Elec       q    Type
REMARK                         _______ _______ _______ _____ _____    ______ ____
ROOT
ATOM      1  N   UNL     1       4.956   1.529  -2.354  0.00  0.00    +0.000 N 
ATOM      2  C   UNL     1       6.358   1.411  -2.611  0.00  0.00    +0.000 C 
ATOM      3  O   UNL     1       6.777   1.729  -3.724  0.00  0.00    +0.000 OA
ENDROOT
BRANCH   2   4
ATOM      4  C   UNL     1       7.347   0.861  -1.627  0.00  0.00    +0.000 A 
ATOM      5  C   UNL     1       7.094   0.015  -0.557  0.00  0.00    +0.000 A 
ATOM      6  S   UNL     1       8.447  -0.417   0.381  0.00  0.00    +0.000 S 
ATOM      7  C   UNL     1       9.487   0.293  -0.746  0.00  0.00    +0.000 A 
ATOM      8  N   UNL     1      10.822   0.111  -0.626  0.00  0.00    +0.000 NA
ATOM      9  C   UNL     1      11.513   0.620  -1.594  0.00  0.00    +0.000 A 
ATOM     10  N   UNL     1      10.974   1.349  -2.622  0.00  0.00    +0.000 N 
ATOM     11  C   UNL     1       9.649   1.716  -2.673  0.00  0.00    +0.000 A 
ATOM     12  O   UNL     1       9.282   2.611  -3.425  0.00  0.00    +0.000 OA
ATOM     13  C   UNL     1       8.805   1.005  -1.720  0.00  0.00    +0.000 A 
ATOM     14  H   UNL     1      11.583   1.804  -3.291  0.00  0.00    +0.000 HD
ENDBRANCH   2   4
BRANCH   1  15
ATOM     15  C   UNL     1       4.274   0.927  -1.208  0.00  0.00    +0.000 C 
BRANCH  15  16
ATOM     16  C   UNL     1       4.590   1.554   0.147  0.00  0.00    +0.000 C 
BRANCH  16  17
ATOM     17  C   UNL     1       3.791   2.805   0.458  0.00  0.00    +0.000 C 
BRANCH  17  18
ATOM     18  N   UNL     1       4.163   3.236   1.805  0.00  0.00    +0.000 NA
ATOM     19  H   UNL     1       3.833   4.185   1.966  0.00  0.00    +0.000 HD
ATOM     20  H   UNL     1       5.181   3.275   1.886  0.00  0.00    +0.000 HD
ENDBRANCH  17  18
ENDBRANCH  16  17
ENDBRANCH  15  16
ENDBRANCH   1  15
BRANCH   1  21
ATOM     21  C   UNL     1       4.095   1.722  -3.542  0.00  0.00    +0.000 C 
BRANCH  21  22
ATOM     22  C   UNL     1       3.720   3.133  -3.965  0.00  0.00    +0.000 A 
ATOM     23  C   UNL     1       4.685   4.005  -4.489  0.00  0.00    +0.000 A 
ATOM     24  C   UNL     1       4.311   5.155  -5.199  0.00  0.00    +0.000 A 
ATOM     25  C   UNL     1       2.963   5.474  -5.396  0.00  0.00    +0.000 A 
ATOM     26  C   UNL     1       1.994   4.657  -4.800  0.00  0.00    +0.000 A 
ATOM     27  C   UNL     1       2.368   3.503  -4.091  0.00  0.00    +0.000 A 
BRANCH  25  28
ATOM     28  C   UNL     1       2.573   6.611  -6.312  0.00  0.00    +0.000 C 
BRANCH  28  29
ATOM     29  O   UNL     1       2.444   6.096  -7.641  0.00  0.00    +0.000 OA
BRANCH  29  30
ATOM     30  C   UNL     1       2.146   6.984  -8.632  0.00  0.00    +0.000 A 
ATOM     31  C   UNL     1       1.901   8.347  -8.477  0.00  0.00    +0.000 A 
ATOM     32  C   UNL     1       1.611   9.128  -9.595  0.00  0.00    +0.000 A 
ATOM     33  C   UNL     1       1.568   8.523 -10.839  0.00  0.00    +0.000 A 
ATOM     34  N   UNL     1       1.794   7.205 -11.032  0.00  0.00    +0.000 NA
ATOM     35  C   UNL     1       2.076   6.473  -9.926  0.00  0.00    +0.000 A 
ENDBRANCH  29  30
ENDBRANCH  28  29
ENDBRANCH  25  28
ENDBRANCH  21  22
ENDBRANCH   1  21
TORSDOF 10
