REMARK  Name = 
REMARK  9 active torsions:
REMARK  status: ('A' for Active; 'I' for Inactive)
REMARK    1  A    between atoms: N_1  and  C_2
REMARK    2  A    between atoms: C_2  and  C_3
REMARK    3  A    between atoms: C_3  and  N_4
REMARK    4  A    between atoms: C_3  and  C_26
REMARK    5  A    between atoms: N_4  and  C_5
REMARK    6  A    between atoms: C_5  and  C_6
REMARK    7  A    between atoms: C_9  and  C_10
REMARK    8  A    between atoms: C_10  and  N_11
REMARK    9  A    between atoms: C_12  and  C_14
REMARK                            x       y       z     vdW  Elec       q    Type
REMARK                         _______ _______ _______ _____ _____    ______ ____
ROOT
ATOM      1  C   UNL     1       0.486  -0.230  -3.806  0.00  0.00    +0.000 A 
ATOM      2  C   UNL     1      -0.717   0.452  -4.024  0.00  0.00    +0.000 A 
ATOM      3  C   UNL     1      -1.122   0.754  -5.323  0.00  0.00    +0.000 A 
ATOM      4  C   UNL     1      -0.326   0.339  -6.387  0.00  0.00    +0.000 A 
ATOM      5  N   UNL     1       0.835  -0.335  -6.204  0.00  0.00    +0.000 NA
ATOM      6  C   UNL     1       1.207  -0.603  -4.932  0.00  0.00    +0.000 A 
ENDROOT
BRANCH   1   7
ATOM      7  C   UNL     1       0.924  -0.566  -2.401  0.00  0.00    +0.000 C 
BRANCH   7   8
ATOM      8  N   UNL     1       2.372  -0.522  -2.228  0.00  0.00    +0.000 NA
ATOM      9  H   UNL     1       2.831  -1.185  -2.856  0.00  0.00    +0.000 HD
BRANCH   8  10
ATOM     10  C   UNL     1       2.856  -0.865  -0.874  0.00  0.00    +0.000 C 
BRANCH  10  11
ATOM     11  C   UNL     1       4.434  -0.962  -0.938  0.00  0.00    +0.000 C 
ATOM     12  C   UNL     1       5.096   0.396  -1.263  0.00  0.00    +0.000 C 
ATOM     13  C   UNL     1       6.614   0.283  -1.349  0.00  0.00    +0.000 C 
ATOM     14  C   UNL     1       7.014  -0.815  -2.324  0.00  0.00    +0.000 C 
ATOM     15  C   UNL     1       6.309  -2.126  -1.989  0.00  0.00    +0.000 C 
ATOM     16  N   UNL     1       4.852  -1.970  -1.948  0.00  0.00    +0.000 NA
ATOM     17  H   UNL     1       4.431  -2.871  -1.720  0.00  0.00    +0.000 HD
ENDBRANCH  10  11
BRANCH  10  18
ATOM     18  C   UNL     1       2.416   0.113   0.257  0.00  0.00    +0.000 C 
BRANCH  18  19
ATOM     19  N   UNL     1       0.982   0.099   0.567  0.00  0.00    +0.000 NA
ATOM     20  H   UNL     1       0.789   0.760   1.317  0.00  0.00    +0.000 HD
ATOM     21  H   UNL     1       0.694  -0.822   0.888  0.00  0.00    +0.000 HD
ENDBRANCH  18  19
ENDBRANCH  10  18
ENDBRANCH   8  10
ENDBRANCH   7   8
ENDBRANCH   1   7
BRANCH   4  22
ATOM     22  C   UNL     1      -0.673   0.725  -7.802  0.00  0.00    +0.000 C 
BRANCH  22  23
ATOM     23  N   UNL     1      -0.052   1.985  -8.140  0.00  0.00    +0.000 N 
ATOM     24  C   UNL     1      -0.606   2.869  -9.021  0.00  0.00    +0.000 C 
ATOM     25  O   UNL     1      -1.697   2.673  -9.549  0.00  0.00    +0.000 OA
ATOM     26  H   UNL     1       0.932   2.053  -7.899  0.00  0.00    +0.000 HD
BRANCH  24  27
ATOM     27  C   UNL     1       0.138   4.115  -9.237  0.00  0.00    +0.000 A 
ATOM     28  C   UNL     1      -0.528   5.246  -9.691  0.00  0.00    +0.000 A 
ATOM     29  S   UNL     1       0.464   6.628  -9.792  0.00  0.00    +0.000 S 
ATOM     30  C   UNL     1       1.834   5.755  -9.289  0.00  0.00    +0.000 A 
ATOM     31  N   UNL     1       3.044   6.356  -9.168  0.00  0.00    +0.000 NA
ATOM     32  C   UNL     1       4.000   5.567  -8.798  0.00  0.00    +0.000 A 
ATOM     33  N   UNL     1       3.852   4.228  -8.547  0.00  0.00    +0.000 N 
ATOM     34  C   UNL     1       2.645   3.577  -8.648  0.00  0.00    +0.000 A 
ATOM     35  O   UNL     1       2.548   2.379  -8.406  0.00  0.00    +0.000 OA
ATOM     36  C   UNL     1       1.536   4.423  -9.045  0.00  0.00    +0.000 A 
ATOM     37  H   UNL     1       4.638   3.662  -8.262  0.00  0.00    +0.000 HD
ENDBRANCH  24  27
ENDBRANCH  22  23
ENDBRANCH   4  22
TORSDOF 9
