REMARK  Name = 
REMARK  12 active torsions:
REMARK  status: ('A' for Active; 'I' for Inactive)
REMARK    1  A    between atoms: C_1  and  N_2
REMARK    2  A    between atoms: N_2  and  C_3
REMARK    3  A    between atoms: N_2  and  C_4
REMARK    4  A    between atoms: C_4  and  C_5
REMARK    5  A    between atoms: C_5  and  O_6
REMARK    6  A    between atoms: O_6  and  C_7
REMARK    7  A    between atoms: C_10  and  C_11
REMARK    8  A    between atoms: C_11  and  C_12
REMARK    9  A    between atoms: C_11  and  C_13
REMARK   10  A    between atoms: C_11  and  C_14
REMARK   11  A    between atoms: C_14  and  N_15
REMARK   12  A    between atoms: C_19  and  C_20
REMARK                            x       y       z     vdW  Elec       q    Type
REMARK                         _______ _______ _______ _____ _____    ______ ____
ROOT
ATOM      1  C   UNL     1      10.433   1.947   3.389  0.00  0.00    +0.000 C 
ATOM      2  C   UNL     1      10.651   2.986   4.511  0.00  0.00    +0.000 C 
ATOM      3  C   UNL     1      11.009   0.587   3.863  0.00  0.00    +0.000 C 
ENDROOT
BRANCH   1   7
ATOM      4  C   UNL     1       6.155   1.320   2.658  0.00  0.00    +0.000 A 
ATOM      5  C   UNL     1       6.985   1.771   1.637  0.00  0.00    +0.000 A 
ATOM      6  C   UNL     1       8.349   1.978   1.865  0.00  0.00    +0.000 A 
ATOM      7  C   UNL     1       8.926   1.759   3.123  0.00  0.00    +0.000 A 
ATOM      8  C   UNL     1       8.063   1.332   4.152  0.00  0.00    +0.000 A 
ATOM      9  C   UNL     1       6.698   1.120   3.923  0.00  0.00    +0.000 A 
BRANCH   4  10
ATOM     10  O   UNL     1       4.814   1.073   2.537  0.00  0.00    +0.000 OA
BRANCH  10  11
ATOM     11  C   UNL     1       4.376   0.772   1.206  0.00  0.00    +0.000 C 
BRANCH  11  12
ATOM     12  C   UNL     1       2.857   0.547   1.207  0.00  0.00    +0.000 C 
BRANCH  12  14
ATOM     13  C   UNL     1       0.856  -0.051   0.014  0.00  0.00    +0.000 C 
ATOM     14  N   UNL     1       2.302   0.151  -0.104  0.00  0.00    +0.000 NA
ATOM     15  C   UNL     1       2.577   1.138  -1.151  0.00  0.00    +0.000 C 
ENDBRANCH  12  14
ENDBRANCH  11  12
ENDBRANCH  10  11
ENDBRANCH   4  10
ENDBRANCH   1   7
BRANCH   1  16
ATOM     16  C   UNL     1      11.292   2.352   2.141  0.00  0.00    +0.000 C 
BRANCH  16  17
ATOM     17  N   UNL     1      10.921   3.636   1.561  0.00  0.00    +0.000 N 
ATOM     18  C   UNL     1      11.519   4.098   0.406  0.00  0.00    +0.000 A 
ATOM     19  C   UNL     1      12.015   3.279  -0.616  0.00  0.00    +0.000 A 
ATOM     20  N   UNL     1      12.562   3.740  -1.772  0.00  0.00    +0.000 NA
ATOM     21  C   UNL     1      12.571   5.094  -1.883  0.00  0.00    +0.000 A 
ATOM     22  C   UNL     1      12.068   5.922  -0.895  0.00  0.00    +0.000 A 
ATOM     23  N   UNL     1      11.542   5.439   0.265  0.00  0.00    +0.000 NA
ATOM     24  H   UNL     1      10.771   4.417   2.194  0.00  0.00    +0.000 HD
BRANCH  21  25
ATOM     25  C   UNL     1      13.144   5.672  -3.128  0.00  0.00    +0.000 C 
ATOM     26  N   UNL     1      13.622   4.761  -4.031  0.00  0.00    +0.000 N 
ATOM     27  O   UNL     1      13.190   6.878  -3.330  0.00  0.00    +0.000 OA
ATOM     28  H   UNL     1      13.569   3.769  -3.825  0.00  0.00    +0.000 HD
ATOM     29  H   UNL     1      14.028   5.083  -4.897  0.00  0.00    +0.000 HD
ENDBRANCH  21  25
ENDBRANCH  16  17
ENDBRANCH   1  16
TORSDOF 8
