REMARK  Name = 
REMARK  7 active torsions:
REMARK  status: ('A' for Active; 'I' for Inactive)
REMARK    1  A    between atoms: C_1  and  O_2
REMARK    2  A    between atoms: O_2  and  C_3
REMARK    3  A    between atoms: C_7  and  C_8
REMARK    4  A    between atoms: C_8  and  C_9
REMARK    5  A    between atoms: C_12  and  C_13
REMARK    6  A    between atoms: C_13  and  N_14
REMARK    7  A    between atoms: C_15  and  C_17
REMARK                            x       y       z     vdW  Elec       q    Type
REMARK                         _______ _______ _______ _____ _____    ______ ____
ROOT
ATOM      1  C   UNL     1       7.106  -1.680  -3.518  0.00  0.00    +0.000 A 
ATOM      2  N   UNL     1       7.404  -2.807  -4.229  0.00  0.00    +0.000 NA
ATOM      3  C   UNL     1       7.965  -2.654  -5.449  0.00  0.00    +0.000 A 
ATOM      4  C   UNL     1       8.243  -1.420  -6.023  0.00  0.00    +0.000 A 
ATOM      5  C   UNL     1       7.996  -0.280  -5.254  0.00  0.00    +0.000 A 
ATOM      6  C   UNL     1       7.419  -0.403  -3.990  0.00  0.00    +0.000 A 
ATOM      7 CL   UNL     1       7.104   1.037  -3.096  0.00  0.00    +0.000 Cl
ENDROOT
BRANCH   1   8
ATOM      8  C   UNL     1       6.287  -1.902  -2.262  0.00  0.00    +0.000 C 
BRANCH   8  13
ATOM      9  C   UNL     1       2.729  -0.491  -2.240  0.00  0.00    +0.000 A 
ATOM     10  C   UNL     1       2.106  -1.320  -3.174  0.00  0.00    +0.000 A 
ATOM     11  C   UNL     1       2.812  -2.373  -3.757  0.00  0.00    +0.000 A 
ATOM     12  C   UNL     1       4.148  -2.587  -3.426  0.00  0.00    +0.000 A 
ATOM     13  C   UNL     1       4.802  -1.740  -2.520  0.00  0.00    +0.000 A 
ATOM     14  C   UNL     1       4.071  -0.709  -1.913  0.00  0.00    +0.000 A 
BRANCH   9  16
ATOM     15  C   UNL     1       0.810   0.881  -1.965  0.00  0.00    +0.000 C 
ATOM     16  O   UNL     1       2.144   0.563  -1.591  0.00  0.00    +0.000 OA
ENDBRANCH   9  16
ENDBRANCH   8  13
ENDBRANCH   1   8
BRANCH   4  17
ATOM     17  C   UNL     1       8.798  -1.329  -7.411  0.00  0.00    +0.000 C 
BRANCH  17  18
ATOM     18  N   UNL     1      10.234  -1.270  -7.399  0.00  0.00    +0.000 N 
ATOM     19  C   UNL     1      11.017  -2.376  -7.600  0.00  0.00    +0.000 C 
ATOM     20  O   UNL     1      10.536  -3.485  -7.815  0.00  0.00    +0.000 OA
ATOM     21  H   UNL     1      10.653  -0.419  -7.039  0.00  0.00    +0.000 HD
BRANCH  19  22
ATOM     22  C   UNL     1      12.467  -2.151  -7.610  0.00  0.00    +0.000 A 
ATOM     23  C   UNL     1      13.296  -3.068  -8.241  0.00  0.00    +0.000 A 
ATOM     24  S   UNL     1      14.944  -2.632  -8.214  0.00  0.00    +0.000 S 
ATOM     25  C   UNL     1      14.613  -1.226  -7.314  0.00  0.00    +0.000 A 
ATOM     26  N   UNL     1      15.616  -0.392  -6.929  0.00  0.00    +0.000 NA
ATOM     27  C   UNL     1      15.230   0.612  -6.215  0.00  0.00    +0.000 A 
ATOM     28  N   UNL     1      13.930   0.864  -5.860  0.00  0.00    +0.000 N 
ATOM     29  C   UNL     1      12.877   0.087  -6.280  0.00  0.00    +0.000 A 
ATOM     30  O   UNL     1      11.717   0.398  -6.031  0.00  0.00    +0.000 OA
ATOM     31  C   UNL     1      13.262  -1.080  -7.054  0.00  0.00    +0.000 A 
ATOM     32  H   UNL     1      13.695   1.681  -5.315  0.00  0.00    +0.000 HD
ENDBRANCH  19  22
ENDBRANCH  17  18
ENDBRANCH   4  17
TORSDOF 6
