REMARK  Name = 
REMARK  7 active torsions:
REMARK  status: ('A' for Active; 'I' for Inactive)
REMARK    1  A    between atoms: C_1  and  C_2
REMARK    2  A    between atoms: C_2  and  C_3
REMARK    3  A    between atoms: C_2  and  C_4
REMARK    4  A    between atoms: C_2  and  C_5
REMARK    5  A    between atoms: C_9  and  C_10
REMARK    6  A    between atoms: N_16  and  C_17
REMARK    7  A    between atoms: C_17  and  C_18
REMARK                            x       y       z     vdW  Elec       q    Type
REMARK                         _______ _______ _______ _____ _____    ______ ____
ROOT
ATOM      1  C   UNL     1       2.996   1.369  -0.386  0.00  0.00    +0.000 A 
ATOM      2  N   UNL     1       2.411   2.475   0.063  0.00  0.00    +0.000 NA
ATOM      3  C   UNL     1       3.057   3.527  -0.512  0.00  0.00    +0.000 A 
ATOM      4  C   UNL     1       2.845   4.904  -0.387  0.00  0.00    +0.000 A 
ATOM      5  C   UNL     1       3.680   5.746  -1.127  0.00  0.00    +0.000 A 
ATOM      6  C   UNL     1       4.661   5.167  -1.939  0.00  0.00    +0.000 A 
ATOM      7  N   UNL     1       4.911   3.834  -2.077  0.00  0.00    +0.000 NA
ATOM      8  C   UNL     1       4.075   3.081  -1.335  0.00  0.00    +0.000 A 
ATOM      9  N   UNL     1       4.050   1.706  -1.228  0.00  0.00    +0.000 N 
ENDROOT
BRANCH   5  10
ATOM     10  C   UNL     1       3.583   7.226  -1.095  0.00  0.00    +0.000 C 
ATOM     11  N   UNL     1       2.650   7.806  -0.284  0.00  0.00    +0.000 N 
ATOM     12  O   UNL     1       4.326   7.922  -1.776  0.00  0.00    +0.000 OA
ATOM     13  H   UNL     1       2.009   7.317   0.321  0.00  0.00    +0.000 HD
ATOM     14  H   UNL     1       2.619   8.821  -0.277  0.00  0.00    +0.000 HD
ENDBRANCH   5  10
BRANCH   1  16
ATOM     15  C   UNL     1       1.036   0.059   0.431  0.00  0.00    +0.000 C 
ATOM     16  C   UNL     1       2.544  -0.015   0.077  0.00  0.00    +0.000 C 
ATOM     17  C   UNL     1       3.324  -0.399   1.345  0.00  0.00    +0.000 C 
ATOM     18  C   UNL     1       2.682  -1.128  -0.967  0.00  0.00    +0.000 C 
ENDBRANCH   1  16
BRANCH   9  19
ATOM     19  C   UNL     1       5.065   0.859  -1.839  0.00  0.00    +0.000 C 
BRANCH  19  20
ATOM     20  C   UNL     1       4.658   0.278  -3.174  0.00  0.00    +0.000 A 
ATOM     21  C   UNL     1       3.908   0.994  -4.113  0.00  0.00    +0.000 A 
ATOM     22  C   UNL     1       3.554   0.376  -5.303  0.00  0.00    +0.000 A 
ATOM     23  N   UNL     1       3.909  -0.883  -5.631  0.00  0.00    +0.000 NA
ATOM     24  C   UNL     1       4.670  -1.547  -4.739  0.00  0.00    +0.000 A 
ATOM     25  C   UNL     1       5.075  -1.013  -3.524  0.00  0.00    +0.000 A 
ENDBRANCH  19  20
ENDBRANCH   9  19
TORSDOF 4
