REMARK  Name = 
REMARK  6 active torsions:
REMARK  status: ('A' for Active; 'I' for Inactive)
REMARK    1  A    between atoms: C_2  and  C_3
REMARK    2  A    between atoms: C_6  and  C_7
REMARK    3  A    between atoms: C_11  and  C_12
REMARK    4  A    between atoms: C_12  and  N_13
REMARK    5  A    between atoms: N_13  and  C_14
REMARK    6  A    between atoms: C_17  and  C_18
REMARK                            x       y       z     vdW  Elec       q    Type
REMARK                         _______ _______ _______ _____ _____    ______ ____
ROOT
ATOM      1  C   UNL     1      11.311   0.921   1.105  0.00  0.00    +0.000 C 
ATOM      2  C   UNL     1      11.312   0.461   2.548  0.00  0.00    +0.000 C 
ATOM      3  C   UNL     1      10.949   1.874   2.248  0.00  0.00    +0.000 C 
ENDROOT
BRANCH   1   8
ATOM      4  C   UNL     1       8.990  -1.372  -0.998  0.00  0.00    +0.000 A 
ATOM      5  C   UNL     1       8.081  -0.411  -1.476  0.00  0.00    +0.000 A 
ATOM      6  C   UNL     1       8.233   0.938  -1.185  0.00  0.00    +0.000 A 
ATOM      7  C   UNL     1       9.292   1.354  -0.386  0.00  0.00    +0.000 A 
ATOM      8  C   UNL     1      10.180   0.436   0.198  0.00  0.00    +0.000 A 
ATOM      9  C   UNL     1      10.001  -0.930  -0.122  0.00  0.00    +0.000 A 
BRANCH   4  13
ATOM     10  C   UNL     1       8.588  -5.334  -2.266  0.00  0.00    +0.000 A 
ATOM     11  C   UNL     1       9.118  -5.027  -1.023  0.00  0.00    +0.000 A 
ATOM     12  N   UNL     1       9.285  -3.748  -0.586  0.00  0.00    +0.000 NA
ATOM     13  C   UNL     1       8.893  -2.772  -1.446  0.00  0.00    +0.000 A 
ATOM     14  C   UNL     1       8.402  -3.105  -2.714  0.00  0.00    +0.000 A 
ATOM     15  N   UNL     1       8.227  -4.376  -3.150  0.00  0.00    +0.000 NA
BRANCH  10  17
ATOM     16  N   UNL     1       8.175  -7.798  -2.946  0.00  0.00    +0.000 NA
ATOM     17  C   UNL     1       8.363  -6.693  -2.662  0.00  0.00    +0.000 C 
ENDBRANCH  10  17
ENDBRANCH   4  13
ENDBRANCH   1   8
BRANCH   1  18
ATOM     18  N   UNL     1      12.531   1.287   0.367  0.00  0.00    +0.000 N 
ATOM     19  H   UNL     1      12.787   2.270   0.374  0.00  0.00    +0.000 HD
BRANCH  18  20
ATOM     20  C   UNL     1      13.611   0.437   0.082  0.00  0.00    +0.000 A 
ATOM     21  C   UNL     1      13.680  -0.900   0.468  0.00  0.00    +0.000 A 
ATOM     22  C   UNL     1      14.816  -1.659   0.176  0.00  0.00    +0.000 A 
ATOM     23  C   UNL     1      15.844  -1.060  -0.537  0.00  0.00    +0.000 A 
ATOM     24  N   UNL     1      15.787   0.209  -1.022  0.00  0.00    +0.000 NA
ATOM     25  C   UNL     1      14.668   0.905  -0.711  0.00  0.00    +0.000 A 
BRANCH  23  26
ATOM     26  C   UNL     1      17.132  -1.793  -0.749  0.00  0.00    +0.000 C 
ATOM     27  N   UNL     1      18.078  -1.113  -1.469  0.00  0.00    +0.000 N 
ATOM     28  O   UNL     1      17.347  -2.906  -0.286  0.00  0.00    +0.000 OA
ATOM     29  H   UNL     1      17.880  -0.166  -1.772  0.00  0.00    +0.000 HD
ATOM     30  H   UNL     1      19.006  -1.499  -1.560  0.00  0.00    +0.000 HD
ENDBRANCH  23  26
ENDBRANCH  18  20
ENDBRANCH   1  18
TORSDOF 6
