REMARK  Name = 
REMARK  6 active torsions:
REMARK  status: ('A' for Active; 'I' for Inactive)
REMARK    1  A    between atoms: C_2  and  C_4
REMARK    2  A    between atoms: C_7  and  N_8
REMARK    3  A    between atoms: N_8  and  C_9
REMARK    4  A    between atoms: C_9  and  C_10
REMARK    5  A    between atoms: C_13  and  O_14
REMARK    6  A    between atoms: O_14  and  C_15
REMARK                            x       y       z     vdW  Elec       q    Type
REMARK                         _______ _______ _______ _____ _____    ______ ____
ROOT
ATOM      1  C   UNL     1       4.873  -4.910  -3.394  0.00  0.00    +0.000 C 
ATOM      2  C   UNL     1       5.019  -4.337  -4.802  0.00  0.00    +0.000 C 
ATOM      3  C   UNL     1       3.672  -4.743  -4.312  0.00  0.00    +0.000 C 
ENDROOT
BRANCH   1   4
ATOM      4  C   UNL     1       5.337  -6.345  -3.154  0.00  0.00    +0.000 A 
ATOM      5  C   UNL     1       4.547  -7.248  -2.424  0.00  0.00    +0.000 A 
ATOM      6  C   UNL     1       4.894  -8.599  -2.302  0.00  0.00    +0.000 A 
ATOM      7  C   UNL     1       6.031  -9.085  -2.938  0.00  0.00    +0.000 A 
ATOM      8  C   UNL     1       6.882  -8.187  -3.581  0.00  0.00    +0.000 A 
ATOM      9  C   UNL     1       6.543  -6.835  -3.682  0.00  0.00    +0.000 A 
BRANCH   7  10
ATOM     10  O   UNL     1       6.438 -10.383  -2.959  0.00  0.00    +0.000 OA
BRANCH  10  11
ATOM     11  C   UNL     1       5.457 -11.413  -2.993  0.00  0.00    +0.000 C 
ATOM     12  F   UNL     1       4.187 -10.976  -3.127  0.00  0.00    +0.000 F 
ATOM     13  F   UNL     1       5.722 -12.227  -4.040  0.00  0.00    +0.000 F 
ATOM     14  F   UNL     1       5.546 -12.144  -1.861  0.00  0.00    +0.000 F 
ENDBRANCH  10  11
ENDBRANCH   7  10
ENDBRANCH   1   4
BRANCH   1  15
ATOM     15  N   UNL     1       5.243  -3.968  -2.315  0.00  0.00    +0.000 N 
ATOM     16  H   UNL     1       6.236  -4.012  -2.095  0.00  0.00    +0.000 HD
BRANCH  15  20
ATOM     17  C   UNL     1       3.123  -3.041   1.162  0.00  0.00    +0.000 A 
ATOM     18  C   UNL     1       2.393  -3.460   0.057  0.00  0.00    +0.000 A 
ATOM     19  C   UNL     1       3.083  -3.806  -1.109  0.00  0.00    +0.000 A 
ATOM     20  C   UNL     1       4.474  -3.735  -1.154  0.00  0.00    +0.000 A 
ATOM     21  C   UNL     1       5.101  -3.272   0.013  0.00  0.00    +0.000 A 
ATOM     22  N   UNL     1       4.477  -2.935   1.170  0.00  0.00    +0.000 NA
BRANCH  17  24
ATOM     23  N   UNL     1       3.210  -2.210   3.438  0.00  0.00    +0.000 N 
ATOM     24  C   UNL     1       2.411  -2.665   2.425  0.00  0.00    +0.000 C 
ATOM     25  O   UNL     1       1.193  -2.750   2.550  0.00  0.00    +0.000 OA
ATOM     26  H   UNL     1       2.794  -1.926   4.313  0.00  0.00    +0.000 HD
ATOM     27  H   UNL     1       4.209  -2.137   3.294  0.00  0.00    +0.000 HD
ENDBRANCH  17  24
ENDBRANCH  15  20
ENDBRANCH   1  15
TORSDOF 6
