REMARK  Name = 
REMARK  7 active torsions:
REMARK  status: ('A' for Active; 'I' for Inactive)
REMARK    1  A    between atoms: C_1  and  C_2
REMARK    2  A    between atoms: C_2  and  N_3
REMARK    3  A    between atoms: C_2  and  C_16
REMARK    4  A    between atoms: C_4  and  C_6
REMARK    5  A    between atoms: C_19  and  C_20
REMARK    6  A    between atoms: C_20  and  N_21
REMARK    7  A    between atoms: C_22  and  C_24
REMARK                            x       y       z     vdW  Elec       q    Type
REMARK                         _______ _______ _______ _____ _____    ______ ____
ROOT
ATOM      1  C   UNL     1       3.689  -0.732  -0.547  0.00  0.00    +0.000 C 
ATOM      2  C   UNL     1       2.484   0.050  -0.015  0.00  0.00    +0.000 C 
ENDROOT
BRANCH   2   3
ATOM      3  C   UNL     1       2.864   0.830   1.239  0.00  0.00    +0.000 A 
ATOM      4  C   UNL     1       2.812   2.230   1.262  0.00  0.00    +0.000 A 
ATOM      5  C   UNL     1       3.112   2.938   2.434  0.00  0.00    +0.000 A 
ATOM      6  C   UNL     1       3.478   2.264   3.607  0.00  0.00    +0.000 A 
ATOM      7  C   UNL     1       3.528   0.865   3.588  0.00  0.00    +0.000 A 
ATOM      8  C   UNL     1       3.231   0.159   2.419  0.00  0.00    +0.000 A 
BRANCH   6   9
ATOM      9  C   UNL     1       3.780   3.016   4.878  0.00  0.00    +0.000 C 
BRANCH   9  10
ATOM     10  N   UNL     1       2.594   3.190   5.686  0.00  0.00    +0.000 N 
ATOM     11  C   UNL     1       2.655   3.805   6.920  0.00  0.00    +0.000 C 
ATOM     12  O   UNL     1       3.689   4.288   7.370  0.00  0.00    +0.000 OA
ATOM     13  H   UNL     1       1.721   2.821   5.335  0.00  0.00    +0.000 HD
BRANCH  11  14
ATOM     14  C   UNL     1       1.319   3.856   7.652  0.00  0.00    +0.000 C 
ATOM     15  C   UNL     1       1.381   4.570   8.986  0.00  0.00    +0.000 C 
ATOM     16  C   UNL     1       1.786   3.469   9.942  0.00  0.00    +0.000 C 
ATOM     17  O   UNL     1       1.225   2.255   9.427  0.00  0.00    +0.000 OA
ATOM     18  C   UNL     1       0.863   2.463   8.053  0.00  0.00    +0.000 C 
ENDBRANCH  11  14
ENDBRANCH   9  10
ENDBRANCH   6   9
ENDBRANCH   2   3
BRANCH   2  19
ATOM     19  N   UNL     1       1.355  -0.812   0.302  0.00  0.00    +0.000 N 
ATOM     20  C   UNL     1       0.720  -1.619  -0.602  0.00  0.00    +0.000 C 
ATOM     21  O   UNL     1       1.076  -1.732  -1.770  0.00  0.00    +0.000 OA
ATOM     22  H   UNL     1       0.834  -0.537   1.129  0.00  0.00    +0.000 HD
BRANCH  20  23
ATOM     23  C   UNL     1      -0.383  -2.425  -0.060  0.00  0.00    +0.000 A 
ATOM     24  C   UNL     1      -0.687  -3.655  -0.625  0.00  0.00    +0.000 A 
ATOM     25  S   UNL     1      -1.953  -4.477   0.173  0.00  0.00    +0.000 S 
ATOM     26  C   UNL     1      -2.170  -3.193   1.268  0.00  0.00    +0.000 A 
ATOM     27  N   UNL     1      -3.134  -3.244   2.227  0.00  0.00    +0.000 NA
ATOM     28  C   UNL     1      -3.210  -2.187   2.965  0.00  0.00    +0.000 A 
ATOM     29  N   UNL     1      -2.405  -1.085   2.835  0.00  0.00    +0.000 N 
ATOM     30  C   UNL     1      -1.394  -1.005   1.908  0.00  0.00    +0.000 A 
ATOM     31  O   UNL     1      -0.650  -0.032   1.860  0.00  0.00    +0.000 OA
ATOM     32  C   UNL     1      -1.279  -2.161   1.040  0.00  0.00    +0.000 A 
ATOM     33  H   UNL     1      -2.508  -0.293   3.452  0.00  0.00    +0.000 HD
ENDBRANCH  20  23
ENDBRANCH   2  19
TORSDOF 6
