REMARK  Name = 
REMARK  8 active torsions:
REMARK  status: ('A' for Active; 'I' for Inactive)
REMARK    1  A    between atoms: C_2  and  C_21
REMARK    2  A    between atoms: N_3  and  C_4
REMARK    3  A    between atoms: C_4  and  C_5
REMARK    4  A    between atoms: C_8  and  C_9
REMARK    5  A    between atoms: C_9  and  O_10
REMARK    6  A    between atoms: C_9  and  C_11
REMARK    7  A    between atoms: C_11  and  C_12
REMARK    8  A    between atoms: C_12  and  C_13
REMARK                            x       y       z     vdW  Elec       q    Type
REMARK                         _______ _______ _______ _____ _____    ______ ____
ROOT
ATOM      1  C   UNL     1       9.991   4.102   4.317  0.00  0.00    +0.000 A 
ATOM      2  C   UNL     1       9.060   3.094   4.066  0.00  0.00    +0.000 A 
ATOM      3  C   UNL     1       7.715   3.297   4.391  0.00  0.00    +0.000 A 
ATOM      4  C   UNL     1       7.319   4.514   4.937  0.00  0.00    +0.000 A 
ATOM      5  N   UNL     1       8.197   5.534   5.127  0.00  0.00    +0.000 NA
ATOM      6  C   UNL     1       9.499   5.300   4.823  0.00  0.00    +0.000 A 
ENDROOT
BRANCH   1   7
ATOM      7  C   UNL     1      11.461   3.898   4.079  0.00  0.00    +0.000 C 
BRANCH   7  10
ATOM      8  O   UNL     1      11.665   2.087   1.937  0.00  0.00    +0.000 OA
ATOM      9  C   UNL     1      11.903   3.274   1.738  0.00  0.00    +0.000 C 
ATOM     10  N   UNL     1      11.860   4.214   2.734  0.00  0.00    +0.000 N 
ATOM     11  H   UNL     1      11.920   5.197   2.497  0.00  0.00    +0.000 HD
BRANCH   9  12
ATOM     12  C   UNL     1      12.295   3.764   0.413  0.00  0.00    +0.000 A 
ATOM     13  C   UNL     1      12.921   2.921  -0.494  0.00  0.00    +0.000 A 
ATOM     14  S   UNL     1      13.257   3.670  -1.991  0.00  0.00    +0.000 S 
ATOM     15  C   UNL     1      12.555   5.133  -1.478  0.00  0.00    +0.000 A 
ATOM     16  N   UNL     1      12.479   6.210  -2.310  0.00  0.00    +0.000 NA
ATOM     17  C   UNL     1      11.885   7.235  -1.797  0.00  0.00    +0.000 A 
ATOM     18  N   UNL     1      11.378   7.293  -0.525  0.00  0.00    +0.000 N 
ATOM     19  C   UNL     1      11.513   6.269   0.376  0.00  0.00    +0.000 A 
ATOM     20  O   UNL     1      11.199   6.415   1.551  0.00  0.00    +0.000 OA
ATOM     21  C   UNL     1      12.110   5.066  -0.173  0.00  0.00    +0.000 A 
ATOM     22  H   UNL     1      10.964   8.140  -0.167  0.00  0.00    +0.000 HD
ENDBRANCH   9  12
ENDBRANCH   7  10
ENDBRANCH   1   7
BRANCH   4  23
ATOM     23  C   UNL     1       5.871   4.760   5.352  0.00  0.00    +0.000 C 
BRANCH  23  24
ATOM     24  O   UNL     1       5.335   5.845   4.586  0.00  0.00    +0.000 OA
ATOM     25  H   UNL     1       6.006   6.551   4.647  0.00  0.00    +0.000 HD
ENDBRANCH  23  24
BRANCH  23  26
ATOM     26  C   UNL     1       5.768   5.131   6.843  0.00  0.00    +0.000 C 
BRANCH  26  27
ATOM     27  C   UNL     1       4.318   5.346   7.297  0.00  0.00    +0.000 C 
BRANCH  27  28
ATOM     28  C   UNL     1       4.223   5.695   8.765  0.00  0.00    +0.000 A 
ATOM     29  C   UNL     1       4.257   7.020   9.196  0.00  0.00    +0.000 A 
ATOM     30  C   UNL     1       4.167   7.291  10.562  0.00  0.00    +0.000 A 
ATOM     31  C   UNL     1       4.043   6.236  11.458  0.00  0.00    +0.000 A 
ATOM     32  C   UNL     1       4.016   4.951  10.948  0.00  0.00    +0.000 A 
ATOM     33  N   UNL     1       4.108   4.658   9.631  0.00  0.00    +0.000 NA
ENDBRANCH  27  28
ENDBRANCH  26  27
ENDBRANCH  23  26
ENDBRANCH   4  23
TORSDOF 8
