REMARK  Name = 
REMARK  9 active torsions:
REMARK  status: ('A' for Active; 'I' for Inactive)
REMARK    1  A    between atoms: C_1  and  O_2
REMARK    2  A    between atoms: O_2  and  C_3
REMARK    3  A    between atoms: C_10  and  C_11
REMARK    4  A    between atoms: N_13  and  C_14
REMARK    5  A    between atoms: C_14  and  C_15
REMARK    6  A    between atoms: C_18  and  C_19
REMARK    7  A    between atoms: C_19  and  O_20
REMARK    8  A    between atoms: O_20  and  C_21
REMARK    9  A    between atoms: C_21  and  C_22
REMARK                            x       y       z     vdW  Elec       q    Type
REMARK                         _______ _______ _______ _____ _____    ______ ____
ROOT
ATOM      1  C   UNL     1       2.984  -0.407  -3.424  0.00  0.00    +0.000 C 
ENDROOT
BRANCH   1   2
ATOM      2  C   UNL     1       1.772  -1.242  -3.100  0.00  0.00    +0.000 A 
ATOM      3  C   UNL     1       1.838  -2.642  -3.115  0.00  0.00    +0.000 A 
ATOM      4  C   UNL     1       0.719  -3.412  -2.780  0.00  0.00    +0.000 A 
ATOM      5  C   UNL     1      -0.494  -2.800  -2.434  0.00  0.00    +0.000 A 
ATOM      6  C   UNL     1      -0.569  -1.401  -2.454  0.00  0.00    +0.000 A 
ATOM      7  C   UNL     1       0.550  -0.631  -2.790  0.00  0.00    +0.000 A 
BRANCH   5   8
ATOM      8  C   UNL     1      -1.694  -3.631  -2.049  0.00  0.00    +0.000 C 
BRANCH   8   9
ATOM      9  O   UNL     1      -1.373  -4.401  -0.895  0.00  0.00    +0.000 OA
BRANCH   9  10
ATOM     10  C   UNL     1      -2.486  -5.188  -0.459  0.00  0.00    +0.000 C 
BRANCH  10  11
ATOM     11  C   UNL     1      -2.142  -6.002   0.770  0.00  0.00    +0.000 A 
ATOM     12  C   UNL     1      -0.840  -6.449   0.994  0.00  0.00    +0.000 A 
ATOM     13  C   UNL     1      -0.572  -7.220   2.121  0.00  0.00    +0.000 A 
ATOM     14  C   UNL     1      -1.607  -7.538   2.990  0.00  0.00    +0.000 A 
ATOM     15  C   UNL     1      -2.875  -7.071   2.691  0.00  0.00    +0.000 A 
ATOM     16  N   UNL     1      -3.167  -6.322   1.604  0.00  0.00    +0.000 NA
ENDBRANCH  10  11
ENDBRANCH   9  10
ENDBRANCH   8   9
ENDBRANCH   5   8
ENDBRANCH   1   2
BRANCH   1  19
ATOM     17  C   UNL     1       4.143   0.536  -5.374  0.00  0.00    +0.000 C 
ATOM     18  O   UNL     1       5.027   1.002  -4.658  0.00  0.00    +0.000 OA
ATOM     19  N   UNL     1       3.097  -0.165  -4.840  0.00  0.00    +0.000 N 
ATOM     20  H   UNL     1       2.351  -0.497  -5.433  0.00  0.00    +0.000 HD
BRANCH  17  28
ATOM     21  C   UNL     1       2.086  -0.511  -7.933  0.00  0.00    +0.000 A 
ATOM     22  N   UNL     1       1.516  -0.849  -9.107  0.00  0.00    +0.000 NA
ATOM     23  C   UNL     1       2.116  -0.455 -10.234  0.00  0.00    +0.000 A 
ATOM     24  N   UNL     1       3.232   0.260 -10.339  0.00  0.00    +0.000 NA
ATOM     25  C   UNL     1       3.773   0.566  -9.148  0.00  0.00    +0.000 A 
ATOM     26  S   UNL     1       5.198   1.487  -9.091  0.00  0.00    +0.000 S 
ATOM     27  C   UNL     1       5.233   1.417  -7.394  0.00  0.00    +0.000 A 
ATOM     28  C   UNL     1       4.180   0.699  -6.838  0.00  0.00    +0.000 A 
ATOM     29  C   UNL     1       3.290   0.215  -7.891  0.00  0.00    +0.000 A 
BRANCH  21  31
ATOM     30  C   UNL     1       0.191  -1.514  -6.963  0.00  0.00    +0.000 C 
ATOM     31  O   UNL     1       1.453  -0.881  -6.764  0.00  0.00    +0.000 OA
ENDBRANCH  21  31
ENDBRANCH  17  28
ENDBRANCH   1  19
TORSDOF 8
