REMARK  Name = 
REMARK  6 active torsions:
REMARK  status: ('A' for Active; 'I' for Inactive)
REMARK    1  A    between atoms: C_1  and  C_2
REMARK    2  A    between atoms: C_2  and  N_3
REMARK    3  A    between atoms: C_2  and  C_24
REMARK    4  A    between atoms: C_7  and  C_8
REMARK    5  A    between atoms: C_8  and  N_9
REMARK    6  A    between atoms: C_10  and  C_12
REMARK                            x       y       z     vdW  Elec       q    Type
REMARK                         _______ _______ _______ _____ _____    ______ ____
ROOT
ATOM      1  N   UNL     1       1.061  -0.099   0.220  0.00  0.00    +0.000 N 
ATOM      2  C   UNL     1       0.273  -1.038   0.892  0.00  0.00    +0.000 A 
ATOM      3  C   UNL     1       0.907  -2.093   1.546  0.00  0.00    +0.000 A 
ATOM      4  C   UNL     1       0.149  -3.091   2.159  0.00  0.00    +0.000 A 
ATOM      5  C   UNL     1      -1.240  -3.045   2.083  0.00  0.00    +0.000 A 
ATOM      6  C   UNL     1      -1.790  -1.984   1.377  0.00  0.00    +0.000 A 
ATOM      7  N   UNL     1      -1.072  -0.985   0.803  0.00  0.00    +0.000 NA
ATOM      8  H   UNL     1       1.986  -0.002   0.622  0.00  0.00    +0.000 HD
ENDROOT
BRANCH   1  10
ATOM      9  C   UNL     1       0.600   2.082   1.260  0.00  0.00    +0.000 C 
ATOM     10  C   UNL     1       0.464   1.223  -0.005  0.00  0.00    +0.000 C 
BRANCH  10  11
ATOM     11  C   UNL     1       1.170   1.880  -1.197  0.00  0.00    +0.000 A 
ATOM     12  C   UNL     1       0.600   1.773  -2.465  0.00  0.00    +0.000 A 
ATOM     13  C   UNL     1       1.255   2.340  -3.555  0.00  0.00    +0.000 A 
ATOM     14  C   UNL     1       2.468   2.987  -3.358  0.00  0.00    +0.000 A 
ATOM     15  C   UNL     1       2.979   3.038  -2.073  0.00  0.00    +0.000 A 
ATOM     16  N   UNL     1       2.366   2.499  -0.995  0.00  0.00    +0.000 NA
ENDBRANCH  10  11
ENDBRANCH   1  10
BRANCH   5  17
ATOM     17  C   UNL     1      -2.095  -4.104   2.711  0.00  0.00    +0.000 C 
BRANCH  17  18
ATOM     18  N   UNL     1      -2.322  -5.218   1.823  0.00  0.00    +0.000 N 
ATOM     19  C   UNL     1      -1.619  -6.391   1.910  0.00  0.00    +0.000 C 
ATOM     20  O   UNL     1      -0.730  -6.557   2.742  0.00  0.00    +0.000 OA
ATOM     21  H   UNL     1      -2.937  -5.060   1.031  0.00  0.00    +0.000 HD
BRANCH  19  22
ATOM     22  C   UNL     1      -2.023  -7.474   1.001  0.00  0.00    +0.000 A 
ATOM     23  C   UNL     1      -1.675  -8.784   1.305  0.00  0.00    +0.000 A 
ATOM     24  S   UNL     1      -2.238  -9.926   0.172  0.00  0.00    +0.000 S 
ATOM     25  C   UNL     1      -2.932  -8.708  -0.791  0.00  0.00    +0.000 A 
ATOM     26  N   UNL     1      -3.562  -9.017  -1.956  0.00  0.00    +0.000 NA
ATOM     27  C   UNL     1      -4.006  -7.995  -2.608  0.00  0.00    +0.000 A 
ATOM     28  N   UNL     1      -3.892  -6.694  -2.192  0.00  0.00    +0.000 N 
ATOM     29  C   UNL     1      -3.331  -6.342  -0.987  0.00  0.00    +0.000 A 
ATOM     30  O   UNL     1      -3.358  -5.183  -0.586  0.00  0.00    +0.000 OA
ATOM     31  C   UNL     1      -2.764  -7.449  -0.239  0.00  0.00    +0.000 A 
ATOM     32  H   UNL     1      -4.288  -5.942  -2.737  0.00  0.00    +0.000 HD
ENDBRANCH  19  22
ENDBRANCH  17  18
ENDBRANCH   5  17
TORSDOF 5
