REMARK  Name = 
REMARK  8 active torsions:
REMARK  status: ('A' for Active; 'I' for Inactive)
REMARK    1  A    between atoms: C_1  and  C_2
REMARK    2  A    between atoms: C_2  and  C_3
REMARK    3  A    between atoms: N_6  and  C_7
REMARK    4  A    between atoms: C_11  and  C_12
REMARK    5  A    between atoms: C_12  and  C_13
REMARK    6  A    between atoms: C_13  and  N_14
REMARK    7  A    between atoms: N_14  and  C_15
REMARK    8  A    between atoms: C_18  and  C_19
REMARK                            x       y       z     vdW  Elec       q    Type
REMARK                         _______ _______ _______ _____ _____    ______ ____
ROOT
ATOM      1  C   UNL     1       5.340   3.104  -6.664  0.00  0.00    +0.000 C 
ENDROOT
BRANCH   1   6
ATOM      2  C   UNL     1       4.987   1.270  -3.306  0.00  0.00    +0.000 A 
ATOM      3  C   UNL     1       5.755   2.088  -2.472  0.00  0.00    +0.000 A 
ATOM      4  C   UNL     1       6.348   3.244  -2.955  0.00  0.00    +0.000 A 
ATOM      5  C   UNL     1       6.201   3.591  -4.293  0.00  0.00    +0.000 A 
ATOM      6  C   UNL     1       5.480   2.774  -5.181  0.00  0.00    +0.000 A 
ATOM      7  C   UNL     1       4.874   1.611  -4.665  0.00  0.00    +0.000 A 
BRANCH   2  13
ATOM      8  C   UNL     1       1.473  -0.360   0.406  0.00  0.00    +0.000 C 
ATOM      9  C   UNL     1       2.967  -0.105   0.269  0.00  0.00    +0.000 C 
ATOM     10  C   UNL     1       3.716  -0.195   1.590  0.00  0.00    +0.000 C 
ATOM     11  C   UNL     1       3.348   1.082  -0.615  0.00  0.00    +0.000 C 
ATOM     12  C   UNL     1       3.839   0.000  -1.550  0.00  0.00    +0.000 C 
ATOM     13  N   UNL     1       4.309   0.146  -2.806  0.00  0.00    +0.000 N 
ATOM     14  N   UNL     1       3.558  -0.979  -0.773  0.00  0.00    +0.000 NA
ATOM     15  H   UNL     1       4.480  -0.714  -3.316  0.00  0.00    +0.000 HD
ENDBRANCH   2  13
ENDBRANCH   1   6
BRANCH   1  16
ATOM     16  C   UNL     1       6.094   4.375  -7.079  0.00  0.00    +0.000 C 
BRANCH  16  17
ATOM     17  N   UNL     1       6.008   4.690  -8.509  0.00  0.00    +0.000 N 
ATOM     18  H   UNL     1       5.049   4.679  -8.852  0.00  0.00    +0.000 HD
BRANCH  17  19
ATOM     19  C   UNL     1       6.677   5.876  -8.890  0.00  0.00    +0.000 A 
ATOM     20  C   UNL     1       7.843   6.332  -8.258  0.00  0.00    +0.000 A 
ATOM     21  C   UNL     1       8.492   7.487  -8.693  0.00  0.00    +0.000 A 
ATOM     22  C   UNL     1       7.979   8.151  -9.791  0.00  0.00    +0.000 A 
ATOM     23  N   UNL     1       6.884   7.732 -10.483  0.00  0.00    +0.000 NA
ATOM     24  C   UNL     1       6.284   6.601 -10.023  0.00  0.00    +0.000 A 
BRANCH  22  25
ATOM     25  C   UNL     1       8.662   9.396 -10.267  0.00  0.00    +0.000 C 
ATOM     26  N   UNL     1       8.102   9.987 -11.367  0.00  0.00    +0.000 N 
ATOM     27  O   UNL     1       9.651   9.861  -9.718  0.00  0.00    +0.000 OA
ATOM     28  H   UNL     1       7.292   9.564 -11.805  0.00  0.00    +0.000 HD
ATOM     29  H   UNL     1       8.523  10.823 -11.750  0.00  0.00    +0.000 HD
ENDBRANCH  22  25
ENDBRANCH  17  19
ENDBRANCH  16  17
ENDBRANCH   1  16
TORSDOF 6
