REMARK  Name = 
REMARK  6 active torsions:
REMARK  status: ('A' for Active; 'I' for Inactive)
REMARK    1  A    between atoms: C_1  and  C_2
REMARK    2  A    between atoms: C_2  and  C_3
REMARK    3  A    between atoms: C_2  and  C_4
REMARK    4  A    between atoms: C_2  and  C_5
REMARK    5  A    between atoms: N_7  and  C_8
REMARK    6  A    between atoms: C_8  and  C_9
REMARK                            x       y       z     vdW  Elec       q    Type
REMARK                         _______ _______ _______ _____ _____    ______ ____
ROOT
ATOM      1  C   UNL     1       3.107  -0.011   1.292  0.00  0.00    +0.000 A 
ATOM      2  C   UNL     1       3.425   1.094   2.063  0.00  0.00    +0.000 A 
ATOM      3  N   UNL     1       3.828   0.683   3.306  0.00  0.00    +0.000 N 
ATOM      4  C   UNL     1       3.799  -0.692   3.381  0.00  0.00    +0.000 A 
ATOM      5  C   UNL     1       4.136  -1.561   4.433  0.00  0.00    +0.000 A 
ATOM      6  C   UNL     1       3.994  -2.935   4.231  0.00  0.00    +0.000 A 
ATOM      7  C   UNL     1       3.529  -3.428   3.020  0.00  0.00    +0.000 A 
ATOM      8  C   UNL     1       3.201  -2.554   1.975  0.00  0.00    +0.000 A 
ATOM      9  C   UNL     1       3.340  -1.157   2.141  0.00  0.00    +0.000 A 
ENDROOT
BRANCH   1  11
ATOM     10  C   UNL     1       2.531   1.464  -0.702  0.00  0.00    +0.000 C 
ATOM     11  C   UNL     1       2.603   0.017  -0.153  0.00  0.00    +0.000 C 
ATOM     12  C   UNL     1       1.183  -0.574  -0.242  0.00  0.00    +0.000 C 
ATOM     13  C   UNL     1       3.547  -0.769  -1.086  0.00  0.00    +0.000 C 
ENDBRANCH   1  11
BRANCH   3  14
ATOM     14  C   UNL     1       4.175   1.596   4.389  0.00  0.00    +0.000 C 
BRANCH  14  15
ATOM     15  C   UNL     1       5.659   1.845   4.457  0.00  0.00    +0.000 A 
ATOM     16  C   UNL     1       6.336   2.480   3.409  0.00  0.00    +0.000 A 
ATOM     17  C   UNL     1       7.706   2.661   3.508  0.00  0.00    +0.000 A 
ATOM     18  N   UNL     1       8.436   2.276   4.576  0.00  0.00    +0.000 NA
ATOM     19  C   UNL     1       7.766   1.679   5.581  0.00  0.00    +0.000 A 
ATOM     20  C   UNL     1       6.399   1.446   5.572  0.00  0.00    +0.000 A 
ENDBRANCH  14  15
ENDBRANCH   3  14
TORSDOF 3
