REMARK  Name = 
REMARK  8 active torsions:
REMARK  status: ('A' for Active; 'I' for Inactive)
REMARK    1  A    between atoms: C_1  and  C_2
REMARK    2  A    between atoms: C_2  and  N_3
REMARK    3  A    between atoms: N_3  and  C_4
REMARK    4  A    between atoms: C_4  and  C_5
REMARK    5  A    between atoms: C_8  and  C_9
REMARK    6  A    between atoms: C_9  and  O_10
REMARK    7  A    between atoms: C_9  and  C_11
REMARK    8  A    between atoms: C_19  and  C_21
REMARK                            x       y       z     vdW  Elec       q    Type
REMARK                         _______ _______ _______ _____ _____    ______ ____
ROOT
ATOM      1  N   UNL     1       2.954  -0.786  -1.004  0.00  0.00    +0.000 N 
ATOM      2  C   UNL     1       4.304  -1.205  -0.962  0.00  0.00    +0.000 C 
ATOM      3  O   UNL     1       5.120  -0.637  -0.239  0.00  0.00    +0.000 OA
ENDROOT
BRANCH   2   4
ATOM      4  C   UNL     1       4.760  -2.315  -1.826  0.00  0.00    +0.000 A 
ATOM      5  C   UNL     1       4.462  -2.458  -3.173  0.00  0.00    +0.000 A 
ATOM      6  S   UNL     1       5.177  -3.824  -3.905  0.00  0.00    +0.000 S 
ATOM      7  C   UNL     1       6.069  -4.163  -2.501  0.00  0.00    +0.000 A 
ATOM      8  N   UNL     1       7.008  -5.144  -2.496  0.00  0.00    +0.000 NA
ATOM      9  C   UNL     1       7.672  -5.230  -1.392  0.00  0.00    +0.000 A 
ATOM     10  N   UNL     1       7.442  -4.461  -0.279  0.00  0.00    +0.000 N 
ATOM     11  C   UNL     1       6.398  -3.565  -0.190  0.00  0.00    +0.000 A 
ATOM     12  O   UNL     1       6.062  -3.090   0.890  0.00  0.00    +0.000 OA
ATOM     13  C   UNL     1       5.725  -3.327  -1.454  0.00  0.00    +0.000 A 
ATOM     14  H   UNL     1       7.942  -4.634   0.580  0.00  0.00    +0.000 HD
ENDBRANCH   2   4
BRANCH   1  16
ATOM     15  C   UNL     1       2.318   0.054   1.243  0.00  0.00    +0.000 C 
ATOM     16  C   UNL     1       2.593   0.394  -0.214  0.00  0.00    +0.000 C 
ENDBRANCH   1  16
BRANCH   1  17
ATOM     17  C   UNL     1       1.977  -1.431  -1.866  0.00  0.00    +0.000 C 
BRANCH  17  18
ATOM     18  C   UNL     1       0.502  -1.153  -1.770  0.00  0.00    +0.000 A 
ATOM     19  C   UNL     1      -0.079  -0.205  -2.628  0.00  0.00    +0.000 A 
ATOM     20  C   UNL     1      -1.457  -0.186  -2.829  0.00  0.00    +0.000 A 
ATOM     21  C   UNL     1      -2.280  -1.104  -2.163  0.00  0.00    +0.000 A 
ATOM     22  C   UNL     1      -1.706  -1.976  -1.222  0.00  0.00    +0.000 A 
ATOM     23  C   UNL     1      -0.325  -1.996  -1.022  0.00  0.00    +0.000 A 
BRANCH  21  24
ATOM     24  C   UNL     1      -3.762  -1.160  -2.488  0.00  0.00    +0.000 C 
BRANCH  24  25
ATOM     25  C   UNL     1      -4.682  -0.848  -1.333  0.00  0.00    +0.000 A 
ATOM     26  C   UNL     1      -5.945  -1.442  -1.223  0.00  0.00    +0.000 A 
ATOM     27  C   UNL     1      -6.785  -1.101  -0.169  0.00  0.00    +0.000 A 
ATOM     28  C   UNL     1      -6.341  -0.161   0.743  0.00  0.00    +0.000 A 
ATOM     29  N   UNL     1      -5.142   0.450   0.669  0.00  0.00    +0.000 NA
ATOM     30  C   UNL     1      -4.346   0.099  -0.366  0.00  0.00    +0.000 A 
ENDBRANCH  24  25
BRANCH  24  31
ATOM     31  O   UNL     1      -4.086  -2.447  -3.029  0.00  0.00    +0.000 OA
ATOM     32  H   UNL     1      -3.342  -3.045  -2.854  0.00  0.00    +0.000 HD
ENDBRANCH  24  31
ENDBRANCH  21  24
ENDBRANCH  17  18
ENDBRANCH   1  17
TORSDOF 7
