REMARK  Name = 
REMARK  10 active torsions:
REMARK  status: ('A' for Active; 'I' for Inactive)
REMARK    1  A    between atoms: C_1  and  C_2
REMARK    2  A    between atoms: C_2  and  N_3
REMARK    3  A    between atoms: C_2  and  C_20
REMARK    4  A    between atoms: N_3  and  C_4
REMARK    5  A    between atoms: C_4  and  C_5
REMARK    6  A    between atoms: C_8  and  C_9
REMARK    7  A    between atoms: C_9  and  O_10
REMARK    8  A    between atoms: C_9  and  C_11
REMARK    9  A    between atoms: C_11  and  N_12
REMARK   10  A    between atoms: C_15  and  O_16
REMARK                            x       y       z     vdW  Elec       q    Type
REMARK                         _______ _______ _______ _____ _____    ______ ____
ROOT
ATOM      1  C   UNL     1      -0.965   0.844   0.924  0.00  0.00    +0.000 A 
ATOM      2  N   UNL     1      -1.633  -0.267   0.563  0.00  0.00    +0.000 NA
ATOM      3  C   UNL     1      -2.977  -0.223   0.663  0.00  0.00    +0.000 A 
ATOM      4  C   UNL     1      -3.686   0.874   1.127  0.00  0.00    +0.000 A 
ATOM      5  C   UNL     1      -2.900   1.937   1.498  0.00  0.00    +0.000 A 
ATOM      6  N   UNL     1      -1.555   1.957   1.412  0.00  0.00    +0.000 NA
ENDROOT
BRANCH   1   7
ATOM      7  C   UNL     1       0.552   0.813   0.974  0.00  0.00    +0.000 C 
BRANCH   7   8
ATOM      8  N   UNL     1       1.258   0.508  -0.293  0.00  0.00    +0.000 NA
ATOM      9  H   UNL     1       0.997   1.224  -0.975  0.00  0.00    +0.000 HD
BRANCH   8  11
ATOM     10  C   UNL     1       3.177  -0.449   0.988  0.00  0.00    +0.000 C 
ATOM     11  C   UNL     1       2.710   0.562  -0.081  0.00  0.00    +0.000 C 
BRANCH  11  12
ATOM     12  C   UNL     1       3.460   0.238  -1.357  0.00  0.00    +0.000 A 
ATOM     13  C   UNL     1       3.339  -0.948  -2.065  0.00  0.00    +0.000 A 
ATOM     14  S   UNL     1       4.711  -1.266  -3.040  0.00  0.00    +0.000 S 
ATOM     15  C   UNL     1       5.414   0.235  -2.643  0.00  0.00    +0.000 A 
ATOM     16  N   UNL     1       6.669   0.571  -3.048  0.00  0.00    +0.000 NA
ATOM     17  C   UNL     1       7.025   1.771  -2.726  0.00  0.00    +0.000 A 
ATOM     18  N   UNL     1       6.229   2.678  -2.071  0.00  0.00    +0.000 N 
ATOM     19  C   UNL     1       4.963   2.377  -1.622  0.00  0.00    +0.000 A 
ATOM     20  O   UNL     1       4.253   3.218  -1.083  0.00  0.00    +0.000 OA
ATOM     21  C   UNL     1       4.558   1.009  -1.883  0.00  0.00    +0.000 A 
ATOM     22  H   UNL     1       6.539   3.626  -1.923  0.00  0.00    +0.000 HD
ENDBRANCH  11  12
ENDBRANCH   8  11
ENDBRANCH   7   8
ENDBRANCH   1   7
BRANCH   4  23
ATOM     23  C   UNL     1      -5.193   0.856   1.167  0.00  0.00    +0.000 C 
BRANCH  23  24
ATOM     24  O   UNL     1      -5.630  -0.185   2.049  0.00  0.00    +0.000 OA
ATOM     25  H   UNL     1      -5.138  -0.094   2.884  0.00  0.00    +0.000 HD
ENDBRANCH  23  24
BRANCH  23  26
ATOM     26  C   UNL     1      -5.888   2.178   1.602  0.00  0.00    +0.000 C 
BRANCH  26  27
ATOM     27  N   UNL     1      -5.568   3.351   0.772  0.00  0.00    +0.000 NA
ATOM     28  C   UNL     1      -6.065   3.233  -0.603  0.00  0.00    +0.000 C 
ATOM     29  C   UNL     1      -6.575   4.609  -0.986  0.00  0.00    +0.000 C 
ATOM     30  C   UNL     1      -7.063   5.177   0.331  0.00  0.00    +0.000 C 
ATOM     31  C   UNL     1      -6.079   4.607   1.344  0.00  0.00    +0.000 C 
BRANCH  30  32
ATOM     32  O   UNL     1      -7.076   6.597   0.313  0.00  0.00    +0.000 OA
ATOM     33  H   UNL     1      -6.179   6.898   0.085  0.00  0.00    +0.000 HD
ENDBRANCH  30  32
ENDBRANCH  26  27
ENDBRANCH  23  26
ENDBRANCH   4  23
TORSDOF 9
