REMARK  Name = 
REMARK  7 active torsions:
REMARK  status: ('A' for Active; 'I' for Inactive)
REMARK    1  A    between atoms: C_2  and  C_20
REMARK    2  A    between atoms: N_3  and  C_4
REMARK    3  A    between atoms: C_4  and  C_5
REMARK    4  A    between atoms: C_8  and  C_9
REMARK    5  A    between atoms: C_9  and  N_10
REMARK    6  A    between atoms: N_10  and  C_11
REMARK    7  A    between atoms: C_11  and  C_12
REMARK                            x       y       z     vdW  Elec       q    Type
REMARK                         _______ _______ _______ _____ _____    ______ ____
ROOT
ATOM      1  C   UNL     1       3.185   2.315  -2.797  0.00  0.00    +0.000 A 
ATOM      2  C   UNL     1       3.004   3.692  -2.977  0.00  0.00    +0.000 A 
ATOM      3  C   UNL     1       3.855   4.415  -3.814  0.00  0.00    +0.000 A 
ATOM      4  C   UNL     1       4.901   3.778  -4.494  0.00  0.00    +0.000 A 
ATOM      5  C   UNL     1       5.067   2.396  -4.332  0.00  0.00    +0.000 A 
ATOM      6  C   UNL     1       4.214   1.671  -3.496  0.00  0.00    +0.000 A 
ENDROOT
BRANCH   1   7
ATOM      7  C   UNL     1       2.251   1.544  -1.903  0.00  0.00    +0.000 C 
BRANCH   7  10
ATOM      8  O   UNL     1      -0.288   2.746  -2.144  0.00  0.00    +0.000 OA
ATOM      9  C   UNL     1      -0.056   1.709  -2.761  0.00  0.00    +0.000 C 
ATOM     10  N   UNL     1       1.130   1.031  -2.647  0.00  0.00    +0.000 N 
ATOM     11  H   UNL     1       1.345   0.306  -3.321  0.00  0.00    +0.000 HD
BRANCH   9  12
ATOM     12  C   UNL     1      -1.073   1.086  -3.619  0.00  0.00    +0.000 A 
ATOM     13  C   UNL     1      -2.414   1.394  -3.432  0.00  0.00    +0.000 A 
ATOM     14  S   UNL     1      -3.462   0.545  -4.476  0.00  0.00    +0.000 S 
ATOM     15  C   UNL     1      -2.156  -0.223  -5.251  0.00  0.00    +0.000 A 
ATOM     16  N   UNL     1      -2.366  -1.090  -6.279  0.00  0.00    +0.000 NA
ATOM     17  C   UNL     1      -1.287  -1.560  -6.808  0.00  0.00    +0.000 A 
ATOM     18  N   UNL     1      -0.017  -1.254  -6.398  0.00  0.00    +0.000 N 
ATOM     19  C   UNL     1       0.242  -0.443  -5.316  0.00  0.00    +0.000 A 
ATOM     20  O   UNL     1       1.388  -0.294  -4.896  0.00  0.00    +0.000 OA
ATOM     21  C   UNL     1      -0.938   0.146  -4.709  0.00  0.00    +0.000 A 
ATOM     22  H   UNL     1       0.787  -1.669  -6.842  0.00  0.00    +0.000 HD
ENDBRANCH   9  12
ENDBRANCH   7  10
ENDBRANCH   1   7
BRANCH   4  23
ATOM     23  C   UNL     1       5.791   4.564  -5.426  0.00  0.00    +0.000 C 
BRANCH  23  24
ATOM     24  N   UNL     1       6.505   5.646  -4.735  0.00  0.00    +0.000 NA
ATOM     25  H   UNL     1       7.073   5.235  -3.996  0.00  0.00    +0.000 HD
BRANCH  24  26
ATOM     26  C   UNL     1       7.350   6.364  -5.688  0.00  0.00    +0.000 C 
BRANCH  26  27
ATOM     27  C   UNL     1       8.191   7.510  -5.103  0.00  0.00    +0.000 C 
ATOM     28  C   UNL     1       7.378   8.635  -4.449  0.00  0.00    +0.000 C 
ATOM     29  C   UNL     1       8.316   9.785  -4.068  0.00  0.00    +0.000 C 
ATOM     30  N   UNL     1       9.396   9.354  -3.172  0.00  0.00    +0.000 NA
ATOM     31  C   UNL     1      10.157   8.235  -3.735  0.00  0.00    +0.000 C 
ATOM     32  C   UNL     1       9.262   7.050  -4.106  0.00  0.00    +0.000 C 
ATOM     33  H   UNL     1       8.985   9.060  -2.286  0.00  0.00    +0.000 HD
ENDBRANCH  26  27
ENDBRANCH  24  26
ENDBRANCH  23  24
ENDBRANCH   4  23
TORSDOF 7
