REMARK  Name = 
REMARK  6 active torsions:
REMARK  status: ('A' for Active; 'I' for Inactive)
REMARK    1  A    between atoms: C_2  and  C_4
REMARK    2  A    between atoms: N_8  and  C_9
REMARK    3  A    between atoms: C_9  and  C_10
REMARK    4  A    between atoms: C_10  and  C_13
REMARK    5  A    between atoms: C_18  and  C_19
REMARK    6  A    between atoms: C_19  and  C_20
REMARK                            x       y       z     vdW  Elec       q    Type
REMARK                         _______ _______ _______ _____ _____    ______ ____
ROOT
ATOM      1  C   UNL     1       6.607  -5.124   4.579  0.00  0.00    +0.000 C 
ATOM      2  F   UNL     1       7.772  -4.994   3.876  0.00  0.00    +0.000 F 
ATOM      3  F   UNL     1       6.778  -4.372   5.706  0.00  0.00    +0.000 F 
ENDROOT
BRANCH   1   4
ATOM      4  C   UNL     1       6.289  -6.569   4.912  0.00  0.00    +0.000 A 
ATOM      5  C   UNL     1       6.667  -7.605   4.054  0.00  0.00    +0.000 A 
ATOM      6  C   UNL     1       6.269  -8.916   4.326  0.00  0.00    +0.000 A 
ATOM      7  C   UNL     1       5.508  -9.208   5.468  0.00  0.00    +0.000 A 
ATOM      8 CL   UNL     1       5.026 -10.851   5.694  0.00  0.00    +0.000 Cl
ATOM      9  C   UNL     1       5.175  -8.196   6.382  0.00  0.00    +0.000 A 
ATOM     10  C   UNL     1       5.560  -6.878   6.076  0.00  0.00    +0.000 A 
BRANCH   9  11
ATOM     11  C   UNL     1       4.520  -8.457   7.719  0.00  0.00    +0.000 C 
BRANCH  11  12
ATOM     12  C   UNL     1       3.041  -8.291   7.590  0.00  0.00    +0.000 A 
ATOM     13  C   UNL     1       2.288  -7.091   7.768  0.00  0.00    +0.000 A 
ATOM     14  C   UNL     1       0.950  -7.420   7.745  0.00  0.00    +0.000 A 
ATOM     15  N   UNL     1       0.852  -8.767   7.526  0.00  0.00    +0.000 N 
ATOM     16  C   UNL     1       2.109  -9.301   7.422  0.00  0.00    +0.000 A 
ATOM     17  H   UNL     1      -0.010  -9.295   7.490  0.00  0.00    +0.000 HD
ENDBRANCH  11  12
ENDBRANCH   9  11
ENDBRANCH   1   4
BRANCH   1  18
ATOM     18  C   UNL     1       5.452  -4.521   3.735  0.00  0.00    +0.000 C 
BRANCH  18  23
ATOM     19  C   UNL     1       3.059  -0.869   1.094  0.00  0.00    +0.000 A 
ATOM     20  C   UNL     1       2.521  -1.928   1.817  0.00  0.00    +0.000 A 
ATOM     21  C   UNL     1       3.366  -2.708   2.611  0.00  0.00    +0.000 A 
ATOM     22  C   UNL     1       4.728  -2.418   2.664  0.00  0.00    +0.000 A 
ATOM     23  N   UNL     1       5.609  -3.083   3.495  0.00  0.00    +0.000 N 
ATOM     24  N   UNL     1       5.260  -1.407   1.952  0.00  0.00    +0.000 NA
ATOM     25  C   UNL     1       4.425  -0.661   1.179  0.00  0.00    +0.000 A 
ATOM     26  H   UNL     1       6.556  -2.775   3.275  0.00  0.00    +0.000 HD
BRANCH  19  28
ATOM     27  N   UNL     1       0.929   0.182   0.584  0.00  0.00    +0.000 N 
ATOM     28  C   UNL     1       2.246   0.018   0.241  0.00  0.00    +0.000 C 
ATOM     29  O   UNL     1       2.725   0.611  -0.708  0.00  0.00    +0.000 OA
ATOM     30  H   UNL     1       0.413   0.878   0.054  0.00  0.00    +0.000 HD
ATOM     31  H   UNL     1       0.568  -0.069   1.492  0.00  0.00    +0.000 HD
ENDBRANCH  19  28
ENDBRANCH  18  23
ENDBRANCH   1  18
TORSDOF 6
