REMARK  Name = 
REMARK  5 active torsions:
REMARK  status: ('A' for Active; 'I' for Inactive)
REMARK    1  A    between atoms: C_2  and  C_4
REMARK    2  A    between atoms: C_7  and  N_8
REMARK    3  A    between atoms: N_8  and  C_9
REMARK    4  A    between atoms: C_9  and  C_10
REMARK    5  A    between atoms: C_13  and  O_14
REMARK                            x       y       z     vdW  Elec       q    Type
REMARK                         _______ _______ _______ _____ _____    ______ ____
ROOT
ATOM      1  C   UNL     1       3.045  -1.432  -0.652  0.00  0.00    +0.000 A 
ATOM      2  N   UNL     1       3.200  -0.891  -1.889  0.00  0.00    +0.000 NA
ATOM      3  C   UNL     1       4.020  -1.584  -2.718  0.00  0.00    +0.000 A 
ATOM      4  C   UNL     1       4.672  -2.774  -2.386  0.00  0.00    +0.000 A 
ATOM      5  C   UNL     1       4.414  -3.189  -1.097  0.00  0.00    +0.000 A 
ATOM      6  N   UNL     1       3.628  -2.552  -0.210  0.00  0.00    +0.000 NA
ENDROOT
BRANCH   1   8
ATOM      7  N   UNL     1       1.513   0.436  -0.197  0.00  0.00    +0.000 N 
ATOM      8  C   UNL     1       2.107  -0.708   0.287  0.00  0.00    +0.000 C 
ATOM      9  O   UNL     1       1.859  -1.096   1.422  0.00  0.00    +0.000 OA
ATOM     10  H   UNL     1       0.855   0.922   0.390  0.00  0.00    +0.000 HD
ATOM     11  H   UNL     1       1.673   0.737  -1.154  0.00  0.00    +0.000 HD
ENDBRANCH   1   8
BRANCH   4  12
ATOM     12  N   UNL     1       5.446  -3.468  -3.311  0.00  0.00    +0.000 N 
ATOM     13  H   UNL     1       4.903  -3.924  -4.042  0.00  0.00    +0.000 HD
BRANCH  12  14
ATOM     14  C   UNL     1       6.556  -4.300  -2.827  0.00  0.00    +0.000 C 
BRANCH  14  15
ATOM     15  C   UNL     1       7.575  -4.420  -3.935  0.00  0.00    +0.000 A 
ATOM     16  C   UNL     1       8.171  -3.269  -4.486  0.00  0.00    +0.000 A 
ATOM     17  C   UNL     1       9.139  -3.381  -5.486  0.00  0.00    +0.000 A 
ATOM     18  C   UNL     1       9.517  -4.639  -5.934  0.00  0.00    +0.000 A 
ATOM     19  C   UNL     1       8.932  -5.788  -5.410  0.00  0.00    +0.000 A 
ATOM     20  C   UNL     1       7.964  -5.677  -4.412  0.00  0.00    +0.000 A 
BRANCH  18  21
ATOM     21  O   UNL     1      10.473  -4.795  -6.892  0.00  0.00    +0.000 OA
ATOM     22  H   UNL     1      10.828  -3.921  -7.121  0.00  0.00    +0.000 HD
ENDBRANCH  18  21
ENDBRANCH  14  15
ENDBRANCH  12  14
ENDBRANCH   4  12
TORSDOF 5
