REMARK  Name = 
REMARK  4 active torsions:
REMARK  status: ('A' for Active; 'I' for Inactive)
REMARK    1  A    between atoms: C_2  and  C_4
REMARK    2  A    between atoms: N_8  and  C_9
REMARK    3  A    between atoms: C_9  and  C_10
REMARK    4  A    between atoms: C_14  and  C_15
REMARK                            x       y       z     vdW  Elec       q    Type
REMARK                         _______ _______ _______ _____ _____    ______ ____
ROOT
ATOM      1  C   UNL     1       7.664   2.121  -0.068  0.00  0.00    +0.000 A 
ATOM      2  C   UNL     1       7.540   3.435   0.367  0.00  0.00    +0.000 A 
ATOM      3  C   UNL     1       6.685   4.299  -0.314  0.00  0.00    +0.000 A 
ATOM      4  C   UNL     1       5.965   3.843  -1.412  0.00  0.00    +0.000 A 
ATOM      5  N   UNL     1       5.077   4.611  -2.105  0.00  0.00    +0.000 N 
ATOM      6  N   UNL     1       6.101   2.577  -1.860  0.00  0.00    +0.000 NA
ATOM      7  C   UNL     1       6.951   1.748  -1.194  0.00  0.00    +0.000 A 
ATOM      8  H   UNL     1       4.646   4.136  -2.887  0.00  0.00    +0.000 HD
ENDROOT
BRANCH   1  10
ATOM      9  N   UNL     1       8.743   1.328   1.950  0.00  0.00    +0.000 N 
ATOM     10  C   UNL     1       8.528   1.138   0.612  0.00  0.00    +0.000 C 
ATOM     11  O   UNL     1       9.001   0.178   0.020  0.00  0.00    +0.000 OA
ATOM     12  H   UNL     1       9.255   0.602   2.436  0.00  0.00    +0.000 HD
ATOM     13  H   UNL     1       8.175   1.951   2.507  0.00  0.00    +0.000 HD
ENDBRANCH   1  10
BRANCH   5  14
ATOM     14  C   UNL     1       4.653   5.947  -1.770  0.00  0.00    +0.000 C 
BRANCH  14  15
ATOM     15  C   UNL     1       5.474   6.985  -2.500  0.00  0.00    +0.000 A 
ATOM     16  C   UNL     1       5.500   7.000  -3.900  0.00  0.00    +0.000 A 
ATOM     17  C   UNL     1       6.193   7.993  -4.584  0.00  0.00    +0.000 A 
ATOM     18  C   UNL     1       6.846   9.002  -3.875  0.00  0.00    +0.000 A 
ATOM     19  C   UNL     1       6.819   9.047  -2.469  0.00  0.00    +0.000 A 
ATOM     20  C   UNL     1       6.156   7.999  -1.799  0.00  0.00    +0.000 A 
BRANCH  19  21
ATOM     21  C   UNL     1       7.397  10.185  -1.725  0.00  0.00    +0.000 A 
ATOM     22  C   UNL     1       7.377  11.491  -2.223  0.00  0.00    +0.000 A 
ATOM     23  N   UNL     1       7.855  12.568  -1.549  0.00  0.00    +0.000 NA
ATOM     24  C   UNL     1       8.361  12.295  -0.330  0.00  0.00    +0.000 A 
ATOM     25  C   UNL     1       8.388  11.009   0.185  0.00  0.00    +0.000 A 
ATOM     26  N   UNL     1       7.905   9.935  -0.488  0.00  0.00    +0.000 NA
ENDBRANCH  19  21
ENDBRANCH  14  15
ENDBRANCH   5  14
TORSDOF 4
