REMARK  Name = 
REMARK  4 active torsions:
REMARK  status: ('A' for Active; 'I' for Inactive)
REMARK    1  A    between atoms: N_1  and  C_2
REMARK    2  A    between atoms: C_2  and  C_3
REMARK    3  A    between atoms: N_9  and  C_10
REMARK    4  A    between atoms: C_10  and  C_11
REMARK                            x       y       z     vdW  Elec       q    Type
REMARK                         _______ _______ _______ _____ _____    ______ ____
ROOT
ATOM      1  C   UNL     1       2.821  -1.013   1.053  0.00  0.00    +0.000 A 
ATOM      2  C   UNL     1       2.555  -2.381   1.019  0.00  0.00    +0.000 A 
ATOM      3  N   UNL     1       2.871  -3.279   1.977  0.00  0.00    +0.000 NA
ATOM      4  C   UNL     1       3.474  -2.752   3.067  0.00  0.00    +0.000 A 
ATOM      5  C   UNL     1       3.878  -3.412   4.249  0.00  0.00    +0.000 A 
ATOM      6  C   UNL     1       4.400  -2.459   5.095  0.00  0.00    +0.000 A 
ATOM      7  N   UNL     1       4.367  -1.245   4.443  0.00  0.00    +0.000 N 
ATOM      8  C   UNL     1       3.788  -1.400   3.199  0.00  0.00    +0.000 A 
ATOM      9  C   UNL     1       3.483  -0.496   2.173  0.00  0.00    +0.000 A 
ENDROOT
BRANCH   1  10
ATOM     10  C   UNL     1       2.377  -0.125  -0.074  0.00  0.00    +0.000 C 
BRANCH  10  11
ATOM     11  N   UNL     1       0.922  -0.083  -0.166  0.00  0.00    +0.000 NA
ATOM     12  H   UNL     1       0.646   0.629  -0.839  0.00  0.00    +0.000 HD
ATOM     13  H   UNL     1       0.540   0.206   0.734  0.00  0.00    +0.000 HD
ENDBRANCH  10  11
ENDBRANCH   1  10
BRANCH   7  14
ATOM     14  C   UNL     1       4.784   0.015   5.049  0.00  0.00    +0.000 C 
BRANCH  14  15
ATOM     15  C   UNL     1       6.239   0.316   4.789  0.00  0.00    +0.000 A 
ATOM     16  C   UNL     1       7.245  -0.509   5.294  0.00  0.00    +0.000 A 
ATOM     17  C   UNL     1       8.574  -0.205   5.017  0.00  0.00    +0.000 A 
ATOM     18  C   UNL     1       8.871   0.920   4.262  0.00  0.00    +0.000 A 
ATOM     19  C   UNL     1       7.821   1.706   3.822  0.00  0.00    +0.000 A 
ATOM     20  N   UNL     1       6.519   1.433   4.068  0.00  0.00    +0.000 NA
ENDBRANCH  14  15
ENDBRANCH   7  14
TORSDOF 4
