REMARK  Name = 
REMARK  4 active torsions:
REMARK  status: ('A' for Active; 'I' for Inactive)
REMARK    1  A    between atoms: C_2  and  C_4
REMARK    2  A    between atoms: N_8  and  C_9
REMARK    3  A    between atoms: C_9  and  C_10
REMARK    4  A    between atoms: C_15  and  N_16
REMARK                            x       y       z     vdW  Elec       q    Type
REMARK                         _______ _______ _______ _____ _____    ______ ____
ROOT
ATOM      1  C   UNL     1       5.013   4.045   4.319  0.00  0.00    +0.000 C 
ATOM      2  C   UNL     1       5.281   3.019   5.415  0.00  0.00    +0.000 C 
ATOM      3  C   UNL     1       4.010   3.801   5.434  0.00  0.00    +0.000 C 
ENDROOT
BRANCH   1   8
ATOM      4  C   UNL     1       2.059   4.419   0.044  0.00  0.00    +0.000 A 
ATOM      5  C   UNL     1       1.663   4.450   1.378  0.00  0.00    +0.000 A 
ATOM      6  C   UNL     1       2.597   4.182   2.379  0.00  0.00    +0.000 A 
ATOM      7  C   UNL     1       3.908   3.872   2.032  0.00  0.00    +0.000 A 
ATOM      8  N   UNL     1       4.869   3.474   2.966  0.00  0.00    +0.000 N 
ATOM      9  N   UNL     1       4.305   3.838   0.742  0.00  0.00    +0.000 NA
ATOM     10  C   UNL     1       3.383   4.105  -0.221  0.00  0.00    +0.000 A 
ATOM     11  H   UNL     1       5.734   3.376   2.437  0.00  0.00    +0.000 HD
BRANCH   4  13
ATOM     12  N   UNL     1       0.011   5.393  -0.824  0.00  0.00    +0.000 N 
ATOM     13  C   UNL     1       1.125   4.645  -1.080  0.00  0.00    +0.000 C 
ATOM     14  O   UNL     1       1.351   4.204  -2.199  0.00  0.00    +0.000 OA
ATOM     15  H   UNL     1      -0.587   5.599  -1.618  0.00  0.00    +0.000 HD
ATOM     16  H   UNL     1      -0.099   5.957   0.004  0.00  0.00    +0.000 HD
ENDBRANCH   4  13
ENDBRANCH   1   8
BRANCH   1  17
ATOM     17  C   UNL     1       5.797   5.352   4.343  0.00  0.00    +0.000 A 
ATOM     18  C   UNL     1       7.190   5.374   4.499  0.00  0.00    +0.000 A 
ATOM     19  C   UNL     1       7.895   6.573   4.444  0.00  0.00    +0.000 A 
ATOM     20  C   UNL     1       7.216   7.768   4.216  0.00  0.00    +0.000 A 
ATOM     21  F   UNL     1       7.964   8.876   4.077  0.00  0.00    +0.000 F 
ATOM     22  C   UNL     1       5.820   7.822   4.059  0.00  0.00    +0.000 A 
ATOM     23  C   UNL     1       5.145   6.589   4.144  0.00  0.00    +0.000 A 
BRANCH  22  24
ATOM     24  N   UNL     1       5.138   8.992   3.780  0.00  0.00    +0.000 N 
ATOM     25  C   UNL     1       3.862   9.016   3.052  0.00  0.00    +0.000 C 
ATOM     26  C   UNL     1       3.895  10.151   2.013  0.00  0.00    +0.000 C 
ATOM     27  O   UNL     1       4.197  11.419   2.618  0.00  0.00    +0.000 OA
ATOM     28  C   UNL     1       5.484  11.367   3.262  0.00  0.00    +0.000 C 
ATOM     29  C   UNL     1       5.519  10.291   4.358  0.00  0.00    +0.000 C 
ENDBRANCH  22  24
ENDBRANCH   1  17
TORSDOF 4
