REMARK  Name = 
REMARK  3 active torsions:
REMARK  status: ('A' for Active; 'I' for Inactive)
REMARK    1  A    between atoms: C_2  and  C_4
REMARK    2  A    between atoms: N_8  and  C_9
REMARK    3  A    between atoms: C_9  and  C_10
REMARK                            x       y       z     vdW  Elec       q    Type
REMARK                         _______ _______ _______ _____ _____    ______ ____
ROOT
ATOM      1  C   UNL     1       3.683   3.560   0.421  0.00  0.00    +0.000 A 
ATOM      2  C   UNL     1       2.914   3.555   1.580  0.00  0.00    +0.000 A 
ATOM      3  C   UNL     1       3.492   3.140   2.782  0.00  0.00    +0.000 A 
ATOM      4  C   UNL     1       4.822   2.730   2.807  0.00  0.00    +0.000 A 
ATOM      5  N   UNL     1       5.440   2.202   3.939  0.00  0.00    +0.000 N 
ATOM      6  N   UNL     1       5.575   2.731   1.686  0.00  0.00    +0.000 NA
ATOM      7  C   UNL     1       4.996   3.133   0.522  0.00  0.00    +0.000 A 
ATOM      8  H   UNL     1       6.422   2.057   3.710  0.00  0.00    +0.000 HD
ENDROOT
BRANCH   1  10
ATOM      9  N   UNL     1       2.078   4.797  -0.922  0.00  0.00    +0.000 N 
ATOM     10  C   UNL     1       3.152   3.952  -0.898  0.00  0.00    +0.000 C 
ATOM     11  O   UNL     1       3.669   3.566  -1.938  0.00  0.00    +0.000 OA
ATOM     12  H   UNL     1       1.782   5.126  -1.834  0.00  0.00    +0.000 HD
ATOM     13  H   UNL     1       1.778   5.326  -0.115  0.00  0.00    +0.000 HD
ENDBRANCH   1  10
BRANCH   5  14
ATOM     14  C   UNL     1       5.159   2.589   5.333  0.00  0.00    +0.000 C 
ATOM     15  C   UNL     1       5.034   1.411   6.301  0.00  0.00    +0.000 C 
ATOM     16  C   UNL     1       3.850   2.275   6.039  0.00  0.00    +0.000 C 
BRANCH  14  17
ATOM     17  C   UNL     1       5.952   3.807   5.842  0.00  0.00    +0.000 A 
ATOM     18  C   UNL     1       5.438   5.099   5.715  0.00  0.00    +0.000 A 
ATOM     19  C   UNL     1       6.119   6.178   6.269  0.00  0.00    +0.000 A 
ATOM     20  C   UNL     1       7.319   5.954   6.934  0.00  0.00    +0.000 A 
ATOM     21  C   UNL     1       7.789   4.655   6.996  0.00  0.00    +0.000 A 
ATOM     22  N   UNL     1       7.144   3.593   6.468  0.00  0.00    +0.000 NA
ENDBRANCH  14  17
ENDBRANCH   5  14
TORSDOF 3
