REMARK  Name = 
REMARK  10 active torsions:
REMARK  status: ('A' for Active; 'I' for Inactive)
REMARK    1  A    between atoms: N_1  and  C_2
REMARK    2  A    between atoms: C_2  and  C_3
REMARK    3  A    between atoms: C_3  and  N_4
REMARK    4  A    between atoms: N_4  and  C_5
REMARK    5  A    between atoms: C_5  and  C_6
REMARK    6  A    between atoms: C_9  and  C_10
REMARK    7  A    between atoms: C_10  and  N_11
REMARK    8  A    between atoms: N_11  and  C_12
REMARK    9  A    between atoms: C_12  and  C_13
REMARK   10  A    between atoms: C_20  and  C_22
REMARK                            x       y       z     vdW  Elec       q    Type
REMARK                         _______ _______ _______ _____ _____    ______ ____
ROOT
ATOM      1  N   UNL     1       0.281 -14.487  -3.586  0.00  0.00    +0.000 N 
ATOM      2  C   UNL     1       0.211 -15.285  -4.741  0.00  0.00    +0.000 C 
ATOM      3  O   UNL     1       0.693 -16.425  -4.751  0.00  0.00    +0.000 OA
ENDROOT
BRANCH   2   4
ATOM      4  C   UNL     1      -0.576 -14.833  -5.900  0.00  0.00    +0.000 A 
ATOM      5  C   UNL     1      -1.752 -14.101  -5.827  0.00  0.00    +0.000 A 
ATOM      6  S   UNL     1      -2.653 -14.087  -7.272  0.00  0.00    +0.000 S 
ATOM      7  C   UNL     1      -1.472 -15.019  -8.060  0.00  0.00    +0.000 A 
ATOM      8  N   UNL     1      -1.677 -15.471  -9.323  0.00  0.00    +0.000 NA
ATOM      9  C   UNL     1      -0.676 -16.127  -9.811  0.00  0.00    +0.000 A 
ATOM     10  N   UNL     1       0.519 -16.326  -9.174  0.00  0.00    +0.000 N 
ATOM     11  C   UNL     1       0.790 -15.847  -7.908  0.00  0.00    +0.000 A 
ATOM     12  O   UNL     1       1.920 -15.874  -7.439  0.00  0.00    +0.000 OA
ATOM     13  C   UNL     1      -0.353 -15.224  -7.273  0.00  0.00    +0.000 A 
ATOM     14  H   UNL     1       1.296 -16.746  -9.663  0.00  0.00    +0.000 HD
ENDBRANCH   2   4
BRANCH   1  15
ATOM     15  C   UNL     1       0.577 -15.177  -2.315  0.00  0.00    +0.000 C 
BRANCH  15  16
ATOM     16  C   UNL     1       2.072 -15.458  -2.057  0.00  0.00    +0.000 C 
BRANCH  16  17
ATOM     17  N   UNL     1       2.877 -14.263  -1.821  0.00  0.00    +0.000 NA
ATOM     18  H   UNL     1       3.857 -14.538  -1.752  0.00  0.00    +0.000 HD
ATOM     19  H   UNL     1       2.641 -13.849  -0.919  0.00  0.00    +0.000 HD
ENDBRANCH  16  17
ENDBRANCH  15  16
ENDBRANCH   1  15
BRANCH   1  20
ATOM     20  C   UNL     1      -0.050 -13.074  -3.623  0.00  0.00    +0.000 C 
BRANCH  20  21
ATOM     21  C   UNL     1       0.690 -12.098  -2.780  0.00  0.00    +0.000 A 
ATOM     22  C   UNL     1       1.844 -11.493  -3.220  0.00  0.00    +0.000 A 
ATOM     23  N   UNL     1       2.369 -10.397  -2.644  0.00  0.00    +0.000 NA
ATOM     24  C   UNL     1       1.721  -9.921  -1.559  0.00  0.00    +0.000 A 
ATOM     25  N   UNL     1       0.645 -10.503  -0.992  0.00  0.00    +0.000 NA
ATOM     26  C   UNL     1       0.153 -11.587  -1.618  0.00  0.00    +0.000 A 
BRANCH  24  27
ATOM     27  C   UNL     1       2.113  -8.534  -1.074  0.00  0.00    +0.000 C 
BRANCH  27  28
ATOM     28  N   UNL     1       2.050  -7.470  -2.101  0.00  0.00    +0.000 NA
ATOM     29  H   UNL     1       2.662  -7.781  -2.853  0.00  0.00    +0.000 HD
BRANCH  28  30
ATOM     30  C   UNL     1       0.702  -7.262  -2.660  0.00  0.00    +0.000 C 
BRANCH  30  31
ATOM     31  C   UNL     1       0.700  -6.141  -3.747  0.00  0.00    +0.000 C 
ATOM     32  C   UNL     1       1.600  -6.390  -4.955  0.00  0.00    +0.000 C 
ATOM     33  C   UNL     1       0.762  -7.274  -5.858  0.00  0.00    +0.000 C 
ATOM     34  C   UNL     1      -0.670  -6.868  -5.549  0.00  0.00    +0.000 C 
ATOM     35  N   UNL     1      -0.611  -5.963  -4.399  0.00  0.00    +0.000 NA
ATOM     36  H   UNL     1      -1.382  -6.124  -3.756  0.00  0.00    +0.000 HD
ENDBRANCH  30  31
ENDBRANCH  28  30
ENDBRANCH  27  28
ENDBRANCH  24  27
ENDBRANCH  20  21
ENDBRANCH   1  20
TORSDOF 10
