REMARK  Name = 
REMARK  9 active torsions:
REMARK  status: ('A' for Active; 'I' for Inactive)
REMARK    1  A    between atoms: C_1  and  O_2
REMARK    2  A    between atoms: O_2  and  C_3
REMARK    3  A    between atoms: C_10  and  C_11
REMARK    4  A    between atoms: N_13  and  C_14
REMARK    5  A    between atoms: C_14  and  C_15
REMARK    6  A    between atoms: C_18  and  C_19
REMARK    7  A    between atoms: C_19  and  S_20
REMARK    8  A    between atoms: S_20  and  C_21
REMARK    9  A    between atoms: C_21  and  C_22
REMARK                            x       y       z     vdW  Elec       q    Type
REMARK                         _______ _______ _______ _____ _____    ______ ____
ROOT
ATOM      1  C   UNL     1       2.997  -1.142   3.262  0.00  0.00    +0.000 C 
ENDROOT
BRANCH   1   2
ATOM      2  C   UNL     1       1.844  -0.200   3.495  0.00  0.00    +0.000 A 
ATOM      3  C   UNL     1       0.570  -0.695   3.802  0.00  0.00    +0.000 A 
ATOM      4  C   UNL     1      -0.500   0.178   4.022  0.00  0.00    +0.000 A 
ATOM      5  C   UNL     1      -0.319   1.567   3.949  0.00  0.00    +0.000 A 
ATOM      6  C   UNL     1       0.943   2.058   3.586  0.00  0.00    +0.000 A 
ATOM      7  C   UNL     1       2.012   1.184   3.359  0.00  0.00    +0.000 A 
BRANCH   5   8
ATOM      8  C   UNL     1      -1.462   2.519   4.207  0.00  0.00    +0.000 C 
BRANCH   8   9
ATOM      9  S   UNL     1      -2.268   2.319   5.828  0.00  0.00    +0.000 S 
BRANCH   9  10
ATOM     10  C   UNL     1      -0.877   2.706   6.943  0.00  0.00    +0.000 C 
BRANCH  10  11
ATOM     11  C   UNL     1      -1.299   2.560   8.385  0.00  0.00    +0.000 A 
ATOM     12  C   UNL     1      -1.194   1.326   9.036  0.00  0.00    +0.000 A 
ATOM     13  C   UNL     1      -1.633   1.222  10.348  0.00  0.00    +0.000 A 
ATOM     14  N   UNL     1      -2.161   2.248  11.048  0.00  0.00    +0.000 NA
ATOM     15  C   UNL     1      -2.262   3.429  10.402  0.00  0.00    +0.000 A 
ATOM     16  C   UNL     1      -1.851   3.633   9.093  0.00  0.00    +0.000 A 
ENDBRANCH  10  11
ENDBRANCH   9  10
ENDBRANCH   8   9
ENDBRANCH   5   8
ENDBRANCH   1   2
BRANCH   1  19
ATOM     17  C   UNL     1       4.008  -2.407   1.409  0.00  0.00    +0.000 C 
ATOM     18  O   UNL     1       4.821  -2.937   2.161  0.00  0.00    +0.000 OA
ATOM     19  N   UNL     1       3.086  -1.512   1.873  0.00  0.00    +0.000 N 
ATOM     20  H   UNL     1       2.449  -1.060   1.232  0.00  0.00    +0.000 HD
BRANCH  17  28
ATOM     21  C   UNL     1       1.965  -1.418  -1.185  0.00  0.00    +0.000 A 
ATOM     22  N   UNL     1       1.343  -1.193  -2.359  0.00  0.00    +0.000 NA
ATOM     23  C   UNL     1       1.820  -1.800  -3.450  0.00  0.00    +0.000 A 
ATOM     24  N   UNL     1       2.864  -2.623  -3.515  0.00  0.00    +0.000 NA
ATOM     25  C   UNL     1       3.459  -2.815  -2.325  0.00  0.00    +0.000 A 
ATOM     26  S   UNL     1       4.807  -3.840  -2.220  0.00  0.00    +0.000 S 
ATOM     27  C   UNL     1       4.945  -3.571  -0.548  0.00  0.00    +0.000 A 
ATOM     28  C   UNL     1       3.986  -2.703  -0.037  0.00  0.00    +0.000 A 
ATOM     29  C   UNL     1       3.093  -2.255  -1.104  0.00  0.00    +0.000 A 
BRANCH  21  31
ATOM     30  C   UNL     1       0.119  -0.394  -0.172  0.00  0.00    +0.000 C 
ATOM     31  O   UNL     1       1.491  -0.765  -0.067  0.00  0.00    +0.000 OA
ENDBRANCH  21  31
ENDBRANCH  17  28
ENDBRANCH   1  19
TORSDOF 8
