REMARK  Name = 
REMARK  11 active torsions:
REMARK  status: ('A' for Active; 'I' for Inactive)
REMARK    1  A    between atoms: C_1  and  C_2
REMARK    2  A    between atoms: C_2  and  N_3
REMARK    3  A    between atoms: C_2  and  C_20
REMARK    4  A    between atoms: N_3  and  C_4
REMARK    5  A    between atoms: C_4  and  C_5
REMARK    6  A    between atoms: C_8  and  C_9
REMARK    7  A    between atoms: C_9  and  O_10
REMARK    8  A    between atoms: C_9  and  C_11
REMARK    9  A    between atoms: C_11  and  N_12
REMARK   10  A    between atoms: C_15  and  O_16
REMARK   11  A    between atoms: C_20  and  C_22
REMARK                            x       y       z     vdW  Elec       q    Type
REMARK                         _______ _______ _______ _____ _____    ______ ____
ROOT
ATOM      1  C   UNL     1      -0.203  -5.552  -9.510  0.00  0.00    +0.000 C 
ENDROOT
BRANCH   1   2
ATOM      2  C   UNL     1       0.916  -4.797  -8.817  0.00  0.00    +0.000 A 
ATOM      3  C   UNL     1       1.812  -4.011  -9.555  0.00  0.00    +0.000 A 
ATOM      4  C   UNL     1       2.876  -3.353  -8.923  0.00  0.00    +0.000 A 
ATOM      5  C   UNL     1       3.083  -3.463  -7.538  0.00  0.00    +0.000 A 
ATOM      6  C   UNL     1       2.183  -4.250  -6.804  0.00  0.00    +0.000 A 
ATOM      7  C   UNL     1       1.115  -4.907  -7.435  0.00  0.00    +0.000 A 
BRANCH   5   8
ATOM      8  C   UNL     1       4.344  -2.856  -6.929  0.00  0.00    +0.000 C 
BRANCH   8   9
ATOM      9  O   UNL     1       5.385  -3.835  -7.066  0.00  0.00    +0.000 OA
ATOM     10  H   UNL     1       4.963  -4.695  -7.236  0.00  0.00    +0.000 HD
ENDBRANCH   8   9
BRANCH   8  11
ATOM     11  C   UNL     1       4.231  -2.408  -5.439  0.00  0.00    +0.000 C 
BRANCH  11  12
ATOM     12  N   UNL     1       5.397  -1.674  -4.887  0.00  0.00    +0.000 NA
ATOM     13  C   UNL     1       6.627  -2.484  -4.840  0.00  0.00    +0.000 C 
ATOM     14  C   UNL     1       7.452  -1.935  -3.672  0.00  0.00    +0.000 C 
ATOM     15  C   UNL     1       6.563  -0.887  -3.022  0.00  0.00    +0.000 C 
ATOM     16  C   UNL     1       5.160  -1.261  -3.491  0.00  0.00    +0.000 C 
BRANCH  15  17
ATOM     17  O   UNL     1       6.920   0.407  -3.512  0.00  0.00    +0.000 OA
ATOM     18  H   UNL     1       6.696   0.391  -4.463  0.00  0.00    +0.000 HD
ENDBRANCH  15  17
ENDBRANCH  11  12
ENDBRANCH   8  11
ENDBRANCH   5   8
ENDBRANCH   1   2
BRANCH   1  19
ATOM     19  N   UNL     1       0.248  -6.895  -9.884  0.00  0.00    +0.000 NA
ATOM     20  H   UNL     1       1.067  -6.797 -10.485  0.00  0.00    +0.000 HD
BRANCH  19  22
ATOM     21  C   UNL     1      -1.167  -7.141 -11.937  0.00  0.00    +0.000 C 
ATOM     22  C   UNL     1      -0.757  -7.732 -10.585  0.00  0.00    +0.000 C 
BRANCH  22  23
ATOM     23  C   UNL     1      -1.992  -8.069  -9.709  0.00  0.00    +0.000 C 
ATOM     24  O   UNL     1      -3.105  -7.628 -10.003  0.00  0.00    +0.000 OA
BRANCH  23  25
ATOM     25  C   UNL     1      -1.835  -8.908  -8.508  0.00  0.00    +0.000 A 
ATOM     26  C   UNL     1      -0.708  -8.914  -7.705  0.00  0.00    +0.000 A 
ATOM     27  S   UNL     1      -0.911  -9.804  -6.259  0.00  0.00    +0.000 S 
ATOM     28  C   UNL     1      -2.493 -10.253  -6.690  0.00  0.00    +0.000 A 
ATOM     29  N   UNL     1      -3.273 -10.990  -5.855  0.00  0.00    +0.000 NA
ATOM     30  C   UNL     1      -4.454 -11.241  -6.317  0.00  0.00    +0.000 A 
ATOM     31  N   UNL     1      -4.911 -10.855  -7.553  0.00  0.00    +0.000 N 
ATOM     32  C   UNL     1      -4.105 -10.232  -8.483  0.00  0.00    +0.000 A 
ATOM     33  O   UNL     1      -4.427 -10.174  -9.666  0.00  0.00    +0.000 OA
ATOM     34  C   UNL     1      -2.832  -9.789  -7.949  0.00  0.00    +0.000 A 
ATOM     35  H   UNL     1      -5.802 -11.177  -7.895  0.00  0.00    +0.000 HD
ENDBRANCH  23  25
ENDBRANCH  22  23
ENDBRANCH  19  22
ENDBRANCH   1  19
TORSDOF 10
