REMARK  Name = 
REMARK  6 active torsions:
REMARK  status: ('A' for Active; 'I' for Inactive)
REMARK    1  A    between atoms: N_1  and  C_2
REMARK    2  A    between atoms: C_2  and  C_3
REMARK    3  A    between atoms: C_7  and  O_8
REMARK    4  A    between atoms: O_8  and  C_9
REMARK    5  A    between atoms: C_9  and  C_10
REMARK    6  A    between atoms: C_13  and  C_14
REMARK                            x       y       z     vdW  Elec       q    Type
REMARK                         _______ _______ _______ _____ _____    ______ ____
ROOT
ATOM      1  C   UNL     1       2.812  -4.019   4.759  0.00  0.00    +0.000 C 
ENDROOT
BRANCH   1   2
ATOM      2  C   UNL     1       2.631  -5.511   4.832  0.00  0.00    +0.000 A 
ATOM      3  C   UNL     1       1.527  -6.141   4.246  0.00  0.00    +0.000 A 
ATOM      4  C   UNL     1       1.385  -7.522   4.345  0.00  0.00    +0.000 A 
ATOM      5  C   UNL     1       2.358  -8.232   5.035  0.00  0.00    +0.000 A 
ATOM      6  N   UNL     1       3.443  -7.657   5.626  0.00  0.00    +0.000 NA
ATOM      7  C   UNL     1       3.549  -6.314   5.505  0.00  0.00    +0.000 A 
BRANCH   5   8
ATOM      8  C   UNL     1       2.249  -9.722   5.152  0.00  0.00    +0.000 C 
ATOM      9  N   UNL     1       3.261 -10.328   5.845  0.00  0.00    +0.000 N 
ATOM     10  O   UNL     1       1.326 -10.361   4.664  0.00  0.00    +0.000 OA
ATOM     11  H   UNL     1       4.015  -9.762   6.220  0.00  0.00    +0.000 HD
ATOM     12  H   UNL     1       3.267 -11.331   5.949  0.00  0.00    +0.000 HD
ENDBRANCH   5   8
ENDBRANCH   1   2
BRANCH   1  13
ATOM     13  O   UNL     1       2.938  -3.635   3.390  0.00  0.00    +0.000 OA
BRANCH  13  18
ATOM     14  C   UNL     1       3.188  -0.614   1.368  0.00  0.00    +0.000 A 
ATOM     15  C   UNL     1       3.265   0.384   2.349  0.00  0.00    +0.000 A 
ATOM     16  C   UNL     1       3.245   0.051   3.702  0.00  0.00    +0.000 A 
ATOM     17  C   UNL     1       3.138  -1.285   4.096  0.00  0.00    +0.000 A 
ATOM     18  C   UNL     1       3.053  -2.294   3.136  0.00  0.00    +0.000 A 
ATOM     19  C   UNL     1       3.084  -1.953   1.778  0.00  0.00    +0.000 A 
BRANCH  14  20
ATOM     20  C   UNL     1       3.174  -0.251  -0.095  0.00  0.00    +0.000 C 
BRANCH  20  21
ATOM     21  N   UNL     1       4.341   0.542  -0.469  0.00  0.00    +0.000 NA
ATOM     22  H   UNL     1       4.338   0.680  -1.477  0.00  0.00    +0.000 HD
ATOM     23  H   UNL     1       5.181   0.006  -0.254  0.00  0.00    +0.000 HD
ENDBRANCH  20  21
ENDBRANCH  14  20
ENDBRANCH  13  18
ENDBRANCH   1  13
TORSDOF 6
