REMARK  Name = 
REMARK  5 active torsions:
REMARK  status: ('A' for Active; 'I' for Inactive)
REMARK    1  A    between atoms: C_1  and  O_2
REMARK    2  A    between atoms: O_2  and  C_3
REMARK    3  A    between atoms: N_6  and  C_7
REMARK    4  A    between atoms: C_7  and  C_8
REMARK    5  A    between atoms: C_18  and  C_19
REMARK                            x       y       z     vdW  Elec       q    Type
REMARK                         _______ _______ _______ _____ _____    ______ ____
ROOT
ATOM      1  C   UNL     1       2.911   1.140   0.490  0.00  0.00    +0.000 A 
ATOM      2  N   UNL     1       4.051   1.678  -0.000  0.00  0.00    +0.000 NA
ATOM      3  C   UNL     1       4.827   2.369   0.847  0.00  0.00    +0.000 A 
ATOM      4  N   UNL     1       6.076   2.738   0.347  0.00  0.00    +0.000 N 
ATOM      5  N   UNL     1       4.505   2.588   2.126  0.00  0.00    +0.000 NA
ATOM      6  C   UNL     1       3.364   2.025   2.580  0.00  0.00    +0.000 A 
ATOM      7  C   UNL     1       2.518   1.259   1.808  0.00  0.00    +0.000 A 
ATOM      8  H   UNL     1       6.031   2.593  -0.657  0.00  0.00    +0.000 HD
ENDROOT
BRANCH   7   9
ATOM      9  C   UNL     1       1.354   0.620   2.454  0.00  0.00    +0.000 C 
ATOM     10  N   UNL     1       0.511  -0.143   1.698  0.00  0.00    +0.000 N 
ATOM     11  O   UNL     1       1.152   0.748   3.658  0.00  0.00    +0.000 OA
ATOM     12  H   UNL     1       0.665  -0.305   0.709  0.00  0.00    +0.000 HD
ATOM     13  H   UNL     1      -0.245  -0.624   2.164  0.00  0.00    +0.000 HD
ENDBRANCH   7   9
BRANCH   4  14
ATOM     14  C   UNL     1       6.694   4.023   0.756  0.00  0.00    +0.000 C 
ATOM     15  C   UNL     1       8.168   3.942   1.146  0.00  0.00    +0.000 C 
ATOM     16  C   UNL     1       7.145   4.279   2.182  0.00  0.00    +0.000 C 
BRANCH  14  17
ATOM     17  C   UNL     1       6.266   5.217  -0.120  0.00  0.00    +0.000 A 
ATOM     18  N   UNL     1       5.249   6.008   0.284  0.00  0.00    +0.000 NA
ATOM     19  C   UNL     1       4.845   6.976  -0.559  0.00  0.00    +0.000 A 
ATOM     20  C   UNL     1       5.410   7.197  -1.790  0.00  0.00    +0.000 A 
ATOM     21  C   UNL     1       6.442   6.356  -2.120  0.00  0.00    +0.000 A 
ATOM     22  N   UNL     1       6.878   5.366  -1.321  0.00  0.00    +0.000 NA
ENDBRANCH  14  17
ENDBRANCH   4  14
BRANCH   1  24
ATOM     23  C   UNL     1       2.624   0.370  -1.713  0.00  0.00    +0.000 C 
ATOM     24  O   UNL     1       2.116   0.414  -0.380  0.00  0.00    +0.000 OA
ENDBRANCH   1  24
TORSDOF 4
