REMARK  Name = 
REMARK  6 active torsions:
REMARK  status: ('A' for Active; 'I' for Inactive)
REMARK    1  A    between atoms: C_1  and  C_2
REMARK    2  A    between atoms: C_2  and  C_3
REMARK    3  A    between atoms: C_2  and  C_14
REMARK    4  A    between atoms: C_3  and  N_4
REMARK    5  A    between atoms: N_4  and  C_5
REMARK    6  A    between atoms: C_8  and  C_9
REMARK                            x       y       z     vdW  Elec       q    Type
REMARK                         _______ _______ _______ _____ _____    ______ ____
ROOT
ATOM      1  N   UNL     1       2.472  -2.115  -1.071  0.00  0.00    +0.000 N 
ATOM      2  H   UNL     1       2.172  -2.366  -0.131  0.00  0.00    +0.000 HD
ENDROOT
BRANCH   1   3
ATOM      3  C   UNL     1       3.003  -3.192  -1.782  0.00  0.00    +0.000 A 
ATOM      4  C   UNL     1       4.037  -3.120  -2.707  0.00  0.00    +0.000 A 
ATOM      5  N   UNL     1       4.504  -4.155  -3.443  0.00  0.00    +0.000 NA
ATOM      6  C   UNL     1       3.861  -5.331  -3.258  0.00  0.00    +0.000 A 
ATOM      7  N   UNL     1       2.828  -5.534  -2.421  0.00  0.00    +0.000 NA
ATOM      8  C   UNL     1       2.425  -4.451  -1.719  0.00  0.00    +0.000 A 
BRANCH   6   9
ATOM      9  C   UNL     1       4.357  -6.502  -4.075  0.00  0.00    +0.000 C 
ATOM     10  N   UNL     1       5.424  -6.236  -4.906  0.00  0.00    +0.000 N 
ATOM     11  O   UNL     1       3.873  -7.625  -4.033  0.00  0.00    +0.000 OA
ATOM     12  H   UNL     1       5.817  -5.304  -4.947  0.00  0.00    +0.000 HD
ATOM     13  H   UNL     1       5.791  -6.977  -5.485  0.00  0.00    +0.000 HD
ENDBRANCH   6   9
ENDBRANCH   1   3
BRANCH   1  14
ATOM     14  C   UNL     1       3.103  -0.807  -1.161  0.00  0.00    +0.000 C 
BRANCH  14  16
ATOM     15  C   UNL     1       0.932   0.439  -0.512  0.00  0.00    +0.000 C 
ATOM     16  C   UNL     1       2.386   0.164  -0.268  0.00  0.00    +0.000 C 
BRANCH  16  17
ATOM     17  C   UNL     1       3.190   1.153   0.479  0.00  0.00    +0.000 A 
ATOM     18  C   UNL     1       4.280   0.741   1.259  0.00  0.00    +0.000 A 
ATOM     19  C   UNL     1       5.050   1.673   1.962  0.00  0.00    +0.000 A 
ATOM     20  C   UNL     1       4.742   3.029   1.894  0.00  0.00    +0.000 A 
ATOM     21  C   UNL     1       3.665   3.455   1.123  0.00  0.00    +0.000 A 
ATOM     22  C   UNL     1       2.892   2.523   0.424  0.00  0.00    +0.000 A 
ENDBRANCH  16  17
ENDBRANCH  14  16
ENDBRANCH   1  14
TORSDOF 5
