REMARK  Name = 
REMARK  6 active torsions:
REMARK  status: ('A' for Active; 'I' for Inactive)
REMARK    1  A    between atoms: C_2  and  C_4
REMARK    2  A    between atoms: C_7  and  N_8
REMARK    3  A    between atoms: N_8  and  C_9
REMARK    4  A    between atoms: C_9  and  C_10
REMARK    5  A    between atoms: C_10  and  C_13
REMARK    6  A    between atoms: C_17  and  C_18
REMARK                            x       y       z     vdW  Elec       q    Type
REMARK                         _______ _______ _______ _____ _____    ______ ____
ROOT
ATOM      1  C   UNL     1       5.262   5.402  -5.209  0.00  0.00    +0.000 C 
ATOM      2  F   UNL     1       6.608   5.417  -4.988  0.00  0.00    +0.000 F 
ATOM      3  F   UNL     1       5.083   4.613  -6.314  0.00  0.00    +0.000 F 
ENDROOT
BRANCH   1   4
ATOM      4  C   UNL     1       4.693   6.797  -5.397  0.00  0.00    +0.000 A 
ATOM      5  C   UNL     1       3.598   6.995  -6.249  0.00  0.00    +0.000 A 
ATOM      6  C   UNL     1       2.993   8.245  -6.336  0.00  0.00    +0.000 A 
ATOM      7  C   UNL     1       3.477   9.309  -5.575  0.00  0.00    +0.000 A 
ATOM      8  C   UNL     1       4.590   9.155  -4.741  0.00  0.00    +0.000 A 
ATOM      9  C   UNL     1       5.193   7.890  -4.659  0.00  0.00    +0.000 A 
BRANCH   8  10
ATOM     10  C   UNL     1       5.078  10.257  -3.893  0.00  0.00    +0.000 C 
ATOM     11  C   UNL     1       4.969  11.575  -4.117  0.00  0.00    +0.000 C 
ATOM     12  C   UNL     1       5.338  12.808  -3.330  0.00  0.00    +0.000 C 
ATOM     13  N   UNL     1       5.236  13.535  -4.607  0.00  0.00    +0.000 NA
ATOM     14  C   UNL     1       4.439  12.457  -5.218  0.00  0.00    +0.000 C 
ATOM     15  H   UNL     1       6.144  13.633  -5.059  0.00  0.00    +0.000 HD
ENDBRANCH   8  10
ENDBRANCH   1   4
BRANCH   1  16
ATOM     16  C   UNL     1       4.555   4.716  -4.008  0.00  0.00    +0.000 C 
BRANCH  16  17
ATOM     17  N   UNL     1       4.953   3.303  -3.811  0.00  0.00    +0.000 N 
ATOM     18  H   UNL     1       4.993   2.792  -4.694  0.00  0.00    +0.000 HD
BRANCH  17  22
ATOM     19  C   UNL     1       3.394   0.993  -0.713  0.00  0.00    +0.000 A 
ATOM     20  C   UNL     1       3.407   2.369  -0.549  0.00  0.00    +0.000 A 
ATOM     21  C   UNL     1       3.903   3.157  -1.590  0.00  0.00    +0.000 A 
ATOM     22  C   UNL     1       4.354   2.575  -2.776  0.00  0.00    +0.000 A 
ATOM     23  C   UNL     1       4.321   1.174  -2.814  0.00  0.00    +0.000 A 
ATOM     24  N   UNL     1       3.845   0.365  -1.832  0.00  0.00    +0.000 NA
BRANCH  19  26
ATOM     25  N   UNL     1       2.976  -1.223   0.180  0.00  0.00    +0.000 N 
ATOM     26  C   UNL     1       2.888   0.125   0.397  0.00  0.00    +0.000 C 
ATOM     27  O   UNL     1       2.433   0.581   1.439  0.00  0.00    +0.000 OA
ATOM     28  H   UNL     1       2.690  -1.863   0.906  0.00  0.00    +0.000 HD
ATOM     29  H   UNL     1       3.401  -1.565  -0.674  0.00  0.00    +0.000 HD
ENDBRANCH  19  26
ENDBRANCH  17  22
ENDBRANCH  16  17
ENDBRANCH   1  16
TORSDOF 6
