REMARK  Name = 
REMARK  4 active torsions:
REMARK  status: ('A' for Active; 'I' for Inactive)
REMARK    1  A    between atoms: C_2  and  C_4
REMARK    2  A    between atoms: C_7  and  C_8
REMARK    3  A    between atoms: C_8  and  C_9
REMARK    4  A    between atoms: C_9  and  C_10
REMARK                            x       y       z     vdW  Elec       q    Type
REMARK                         _______ _______ _______ _____ _____    ______ ____
ROOT
ATOM      1  C   UNL     1       3.268  -1.006  -0.358  0.00  0.00    +0.000 A 
ATOM      2  C   UNL     1       2.602  -2.050  -1.003  0.00  0.00    +0.000 A 
ATOM      3  C   UNL     1       3.310  -3.176  -1.427  0.00  0.00    +0.000 A 
ATOM      4  C   UNL     1       4.696  -3.271  -1.232  0.00  0.00    +0.000 A 
ATOM      5  C   UNL     1       5.355  -2.212  -0.587  0.00  0.00    +0.000 A 
ATOM      6  C   UNL     1       4.650  -1.082  -0.163  0.00  0.00    +0.000 A 
ENDROOT
BRANCH   1   8
ATOM      7  N   UNL     1       1.227   0.027   0.461  0.00  0.00    +0.000 N 
ATOM      8  C   UNL     1       2.540   0.197   0.112  0.00  0.00    +0.000 C 
ATOM      9  O   UNL     1       3.088   1.286   0.223  0.00  0.00    +0.000 OA
ATOM     10  H   UNL     1       0.764   0.824   0.877  0.00  0.00    +0.000 HD
ATOM     11  H   UNL     1       0.828  -0.887   0.627  0.00  0.00    +0.000 HD
ENDBRANCH   1   8
BRANCH   4  12
ATOM     12  C   UNL     1       5.490  -4.496  -1.636  0.00  0.00    +0.000 C 
BRANCH  12  13
ATOM     13  C   UNL     1       4.956  -5.231  -2.871  0.00  0.00    +0.000 C 
BRANCH  13  14
ATOM     14  C   UNL     1       5.800  -6.424  -3.242  0.00  0.00    +0.000 A 
ATOM     15  C   UNL     1       5.518  -7.686  -2.703  0.00  0.00    +0.000 A 
ATOM     16  C   UNL     1       6.281  -8.796  -3.069  0.00  0.00    +0.000 A 
ATOM     17  C   UNL     1       7.335  -8.650  -3.969  0.00  0.00    +0.000 A 
ATOM     18  C   UNL     1       7.634  -7.395  -4.495  0.00  0.00    +0.000 A 
ATOM     19  C   UNL     1       6.872  -6.284  -4.131  0.00  0.00    +0.000 A 
ENDBRANCH  13  14
ENDBRANCH  12  13
ENDBRANCH   4  12
TORSDOF 4
