REMARK  Name = 
REMARK  5 active torsions:
REMARK  status: ('A' for Active; 'I' for Inactive)
REMARK    1  A    between atoms: N_1  and  C_2
REMARK    2  A    between atoms: C_2  and  C_3
REMARK    3  A    between atoms: C_7  and  C_8
REMARK    4  A    between atoms: C_9  and  C_10
REMARK    5  A    between atoms: C_14  and  C_15
REMARK                            x       y       z     vdW  Elec       q    Type
REMARK                         _______ _______ _______ _____ _____    ______ ____
ROOT
ATOM      1  C   UNL     1       3.434   1.296   4.701  0.00  0.00    +0.000 C 
ATOM      2  C   UNL     1       3.326   2.129   5.749  0.00  0.00    +0.000 C 
ENDROOT
BRANCH   1   7
ATOM      3  C   UNL     1       3.716   1.114   0.947  0.00  0.00    +0.000 A 
ATOM      4  C   UNL     1       2.886   2.173   0.558  0.00  0.00    +0.000 A 
ATOM      5  C   UNL     1       2.267   2.977   1.514  0.00  0.00    +0.000 A 
ATOM      6  C   UNL     1       2.459   2.723   2.873  0.00  0.00    +0.000 A 
ATOM      7  C   UNL     1       3.290   1.676   3.289  0.00  0.00    +0.000 A 
ATOM      8  C   UNL     1       3.917   0.881   2.316  0.00  0.00    +0.000 A 
BRANCH   3   9
ATOM      9  C   UNL     1       4.324   0.199  -0.085  0.00  0.00    +0.000 C 
BRANCH   9  10
ATOM     10  N   UNL     1       5.109   0.933  -1.070  0.00  0.00    +0.000 NA
ATOM     11  H   UNL     1       5.593   0.269  -1.671  0.00  0.00    +0.000 HD
ATOM     12  H   UNL     1       5.830   1.464  -0.584  0.00  0.00    +0.000 HD
ENDBRANCH   9  10
ENDBRANCH   3   9
ENDBRANCH   1   7
BRANCH   2  13
ATOM     13  C   UNL     1       3.411   1.671   7.142  0.00  0.00    +0.000 A 
ATOM     14  C   UNL     1       3.297   2.571   8.203  0.00  0.00    +0.000 A 
ATOM     15  N   UNL     1       3.344   2.194   9.506  0.00  0.00    +0.000 NA
ATOM     16  C   UNL     1       3.508   0.863   9.713  0.00  0.00    +0.000 A 
ATOM     17  C   UNL     1       3.620  -0.038   8.666  0.00  0.00    +0.000 A 
ATOM     18  N   UNL     1       3.575   0.341   7.358  0.00  0.00    +0.000 NA
BRANCH  17  19
ATOM     19  C   UNL     1       3.793  -1.486   8.952  0.00  0.00    +0.000 C 
ATOM     20  N   UNL     1       3.879  -2.311   7.863  0.00  0.00    +0.000 N 
ATOM     21  O   UNL     1       3.854  -1.927  10.094  0.00  0.00    +0.000 OA
ATOM     22  H   UNL     1       3.810  -1.931   6.926  0.00  0.00    +0.000 HD
ATOM     23  H   UNL     1       3.986  -3.306   8.003  0.00  0.00    +0.000 HD
ENDBRANCH  17  19
ENDBRANCH   2  13
TORSDOF 5
