REMARK  Name = 
REMARK  7 active torsions:
REMARK  status: ('A' for Active; 'I' for Inactive)
REMARK    1  A    between atoms: C_2  and  C_3
REMARK    2  A    between atoms: C_3  and  N_4
REMARK    3  A    between atoms: C_3  and  C_17
REMARK    4  A    between atoms: C_5  and  C_7
REMARK    5  A    between atoms: C_20  and  C_21
REMARK    6  A    between atoms: C_21  and  N_22
REMARK    7  A    between atoms: C_23  and  C_25
REMARK                            x       y       z     vdW  Elec       q    Type
REMARK                         _______ _______ _______ _____ _____    ______ ____
ROOT
ATOM      1  C   UNL     1       3.854   0.024  -0.186  0.00  0.00    +0.000 C 
ENDROOT
BRANCH   1   2
ATOM      2  C   UNL     1       4.196   0.622   1.181  0.00  0.00    +0.000 A 
ATOM      3  C   UNL     1       4.162   2.015   1.357  0.00  0.00    +0.000 A 
ATOM      4  C   UNL     1       4.449   2.594   2.602  0.00  0.00    +0.000 A 
ATOM      5  C   UNL     1       4.797   1.798   3.703  0.00  0.00    +0.000 A 
ATOM      6  C   UNL     1       4.847   0.409   3.525  0.00  0.00    +0.000 A 
ATOM      7  C   UNL     1       4.571  -0.170   2.280  0.00  0.00    +0.000 A 
BRANCH   5   8
ATOM      8  C   UNL     1       5.133   2.407   5.046  0.00  0.00    +0.000 C 
BRANCH   8   9
ATOM      9  N   UNL     1       3.981   2.574   5.897  0.00  0.00    +0.000 N 
ATOM     10  C   UNL     1       4.094   3.077   7.177  0.00  0.00    +0.000 C 
ATOM     11  O   UNL     1       5.170   3.388   7.678  0.00  0.00    +0.000 OA
ATOM     12  H   UNL     1       3.065   2.515   5.483  0.00  0.00    +0.000 HD
BRANCH  10  13
ATOM     13  C   UNL     1       2.833   3.219   7.881  0.00  0.00    +0.000 A 
ATOM     14  C   UNL     1       1.533   2.918   7.503  0.00  0.00    +0.000 A 
ATOM     15  C   UNL     1       0.667   3.261   8.568  0.00  0.00    +0.000 A 
ATOM     16  C   UNL     1       1.450   3.760   9.582  0.00  0.00    +0.000 A 
ATOM     17  N   UNL     1       2.755   3.716   9.169  0.00  0.00    +0.000 N 
ATOM     18  H   UNL     1       3.560   4.001   9.714  0.00  0.00    +0.000 HD
ENDBRANCH  10  13
ENDBRANCH   8   9
ENDBRANCH   5   8
ENDBRANCH   1   2
BRANCH   1  19
ATOM     19  N   UNL     1       5.056   0.006  -0.996  0.00  0.00    +0.000 N 
ATOM     20  C   UNL     1       5.029   0.110  -2.364  0.00  0.00    +0.000 C 
ATOM     21  O   UNL     1       3.986   0.284  -2.988  0.00  0.00    +0.000 OA
ATOM     22  H   UNL     1       5.905  -0.296  -0.542  0.00  0.00    +0.000 HD
BRANCH  20  23
ATOM     23  C   UNL     1       6.339   0.104  -3.022  0.00  0.00    +0.000 A 
ATOM     24  C   UNL     1       6.536   0.804  -4.203  0.00  0.00    +0.000 A 
ATOM     25  S   UNL     1       8.147   0.743  -4.767  0.00  0.00    +0.000 S 
ATOM     26  C   UNL     1       8.618  -0.272  -3.484  0.00  0.00    +0.000 A 
ATOM     27  N   UNL     1       9.896  -0.724  -3.376  0.00  0.00    +0.000 NA
ATOM     28  C   UNL     1      10.098  -1.523  -2.380  0.00  0.00    +0.000 A 
ATOM     29  N   UNL     1       9.138  -1.906  -1.478  0.00  0.00    +0.000 N 
ATOM     30  C   UNL     1       7.846  -1.438  -1.521  0.00  0.00    +0.000 A 
ATOM     31  O   UNL     1       7.026  -1.732  -0.658  0.00  0.00    +0.000 OA
ATOM     32  C   UNL     1       7.565  -0.550  -2.633  0.00  0.00    +0.000 A 
ATOM     33  H   UNL     1       9.365  -2.527  -0.716  0.00  0.00    +0.000 HD
ENDBRANCH  20  23
ENDBRANCH   1  19
BRANCH   1  35
ATOM     34  N   UNL     1       2.741  -2.363   0.076  0.00  0.00    +0.000 NA
ATOM     35  C   UNL     1       3.224  -1.322  -0.075  0.00  0.00    +0.000 C 
ENDBRANCH   1  35
TORSDOF 7
