REMARK  Name = 
REMARK  5 active torsions:
REMARK  status: ('A' for Active; 'I' for Inactive)
REMARK    1  A    between atoms: C_2  and  C_18
REMARK    2  A    between atoms: N_3  and  C_4
REMARK    3  A    between atoms: C_4  and  C_5
REMARK    4  A    between atoms: C_8  and  C_9
REMARK    5  A    between atoms: C_9  and  C_10
REMARK                            x       y       z     vdW  Elec       q    Type
REMARK                         _______ _______ _______ _____ _____    ______ ____
ROOT
ATOM      1  O   UNL     1       1.982  -3.215  -0.055  0.00  0.00    +0.000 OA
ATOM      2  C   UNL     1       2.671  -2.207   0.079  0.00  0.00    +0.000 C 
ATOM      3  N   UNL     1       2.751  -1.243  -0.893  0.00  0.00    +0.000 N 
ATOM      4  H   UNL     1       3.464  -0.525  -0.817  0.00  0.00    +0.000 HD
ENDROOT
BRANCH   2   5
ATOM      5  C   UNL     1       3.415  -1.944   1.318  0.00  0.00    +0.000 A 
ATOM      6  C   UNL     1       3.027  -2.560   2.500  0.00  0.00    +0.000 A 
ATOM      7  S   UNL     1       3.987  -2.126   3.842  0.00  0.00    +0.000 S 
ATOM      8  C   UNL     1       4.983  -1.139   2.880  0.00  0.00    +0.000 A 
ATOM      9  N   UNL     1       6.046  -0.482   3.418  0.00  0.00    +0.000 NA
ATOM     10  C   UNL     1       6.745   0.194   2.566  0.00  0.00    +0.000 A 
ATOM     11  N   UNL     1       6.466   0.283   1.227  0.00  0.00    +0.000 N 
ATOM     12  C   UNL     1       5.358  -0.296   0.656  0.00  0.00    +0.000 A 
ATOM     13  O   UNL     1       5.063  -0.078  -0.516  0.00  0.00    +0.000 OA
ATOM     14  C   UNL     1       4.572  -1.114   1.560  0.00  0.00    +0.000 A 
ATOM     15  H   UNL     1       7.034   0.856   0.620  0.00  0.00    +0.000 HD
ENDBRANCH   2   5
BRANCH   3  16
ATOM     16  C   UNL     1       2.128  -1.387  -2.183  0.00  0.00    +0.000 C 
BRANCH  16  17
ATOM     17  C   UNL     1       3.088  -1.941  -3.194  0.00  0.00    +0.000 A 
ATOM     18  C   UNL     1       3.927  -1.115  -3.945  0.00  0.00    +0.000 A 
ATOM     19  C   UNL     1       4.810  -1.678  -4.865  0.00  0.00    +0.000 A 
ATOM     20  C   UNL     1       4.833  -3.063  -5.015  0.00  0.00    +0.000 A 
ATOM     21  N   UNL     1       4.038  -3.884  -4.283  0.00  0.00    +0.000 NA
ATOM     22  C   UNL     1       3.200  -3.311  -3.390  0.00  0.00    +0.000 A 
BRANCH  20  23
ATOM     23  C   UNL     1       5.789  -3.719  -5.986  0.00  0.00    +0.000 C 
BRANCH  23  24
ATOM     24  C   UNL     1       7.151  -4.008  -5.396  0.00  0.00    +0.000 A 
ATOM     25  C   UNL     1       7.285  -4.870  -4.302  0.00  0.00    +0.000 A 
ATOM     26  C   UNL     1       8.549  -5.099  -3.782  0.00  0.00    +0.000 A 
ATOM     27  N   UNL     1       9.676  -4.546  -4.277  0.00  0.00    +0.000 NA
ATOM     28  C   UNL     1       9.530  -3.733  -5.345  0.00  0.00    +0.000 A 
ATOM     29  C   UNL     1       8.308  -3.437  -5.933  0.00  0.00    +0.000 A 
ENDBRANCH  23  24
ENDBRANCH  20  23
ENDBRANCH  16  17
ENDBRANCH   3  16
TORSDOF 5
