REMARK  Name = 
REMARK  11 active torsions:
REMARK  status: ('A' for Active; 'I' for Inactive)
REMARK    1  A    between atoms: N_1  and  C_2
REMARK    2  A    between atoms: C_2  and  C_3
REMARK    3  A    between atoms: C_3  and  C_4
REMARK    4  A    between atoms: C_4  and  C_5
REMARK    5  A    between atoms: C_5  and  N_6
REMARK    6  A    between atoms: C_5  and  C_28
REMARK    7  A    between atoms: N_6  and  C_7
REMARK    8  A    between atoms: C_7  and  C_8
REMARK    9  A    between atoms: C_11  and  C_12
REMARK   10  A    between atoms: C_12  and  N_13
REMARK   11  A    between atoms: C_14  and  C_16
REMARK                            x       y       z     vdW  Elec       q    Type
REMARK                         _______ _______ _______ _____ _____    ______ ____
ROOT
ATOM      1  C   UNL     1       4.279  -1.055   0.609  0.00  0.00    +0.000 A 
ATOM      2  C   UNL     1       2.933  -0.785   0.865  0.00  0.00    +0.000 A 
ATOM      3  C   UNL     1       2.499  -0.626   2.177  0.00  0.00    +0.000 A 
ATOM      4  C   UNL     1       3.430  -0.730   3.207  0.00  0.00    +0.000 A 
ATOM      5  N   UNL     1       4.731  -1.046   2.986  0.00  0.00    +0.000 NA
ATOM      6  C   UNL     1       5.122  -1.201   1.702  0.00  0.00    +0.000 A 
ENDROOT
BRANCH   1   7
ATOM      7  C   UNL     1       4.785  -1.246  -0.792  0.00  0.00    +0.000 C 
BRANCH   7   8
ATOM      8  N   UNL     1       4.525  -0.071  -1.629  0.00  0.00    +0.000 NA
ATOM      9  H   UNL     1       4.974   0.737  -1.190  0.00  0.00    +0.000 HD
BRANCH   8  10
ATOM     10  C   UNL     1       5.118  -0.206  -2.986  0.00  0.00    +0.000 C 
BRANCH  10  11
ATOM     11  C   UNL     1       4.915   1.088  -3.786  0.00  0.00    +0.000 A 
ATOM     12  C   UNL     1       3.634   1.579  -4.057  0.00  0.00    +0.000 A 
ATOM     13  C   UNL     1       3.495   2.758  -4.788  0.00  0.00    +0.000 A 
ATOM     14  C   UNL     1       4.630   3.431  -5.217  0.00  0.00    +0.000 A 
ATOM     15  C   UNL     1       5.864   2.892  -4.896  0.00  0.00    +0.000 A 
ATOM     16  N   UNL     1       6.032   1.742  -4.201  0.00  0.00    +0.000 NA
ENDBRANCH  10  11
BRANCH  10  17
ATOM     17  C   UNL     1       4.547  -1.436  -3.732  0.00  0.00    +0.000 C 
BRANCH  17  18
ATOM     18  C   UNL     1       5.197  -1.764  -5.081  0.00  0.00    +0.000 C 
BRANCH  18  19
ATOM     19  C   UNL     1       6.700  -2.042  -5.016  0.00  0.00    +0.000 C 
BRANCH  19  20
ATOM     20  N   UNL     1       7.020  -3.114  -4.077  0.00  0.00    +0.000 NA
ATOM     21  H   UNL     1       8.017  -3.322  -4.136  0.00  0.00    +0.000 HD
ATOM     22  H   UNL     1       6.539  -3.969  -4.356  0.00  0.00    +0.000 HD
ENDBRANCH  19  20
ENDBRANCH  18  19
ENDBRANCH  17  18
ENDBRANCH  10  17
ENDBRANCH   8  10
ENDBRANCH   7   8
ENDBRANCH   1   7
BRANCH   4  23
ATOM     23  C   UNL     1       3.004  -0.515   4.638  0.00  0.00    +0.000 C 
BRANCH  23  24
ATOM     24  N   UNL     1       2.597  -1.753   5.258  0.00  0.00    +0.000 N 
ATOM     25  C   UNL     1       1.653  -1.784   6.249  0.00  0.00    +0.000 C 
ATOM     26  O   UNL     1       1.040  -0.779   6.600  0.00  0.00    +0.000 OA
ATOM     27  H   UNL     1       3.250  -2.525   5.158  0.00  0.00    +0.000 HD
BRANCH  25  28
ATOM     28  C   UNL     1       1.349  -3.100   6.819  0.00  0.00    +0.000 A 
ATOM     29  C   UNL     1       0.111  -3.322   7.407  0.00  0.00    +0.000 A 
ATOM     30  S   UNL     1      -0.103  -4.919   7.964  0.00  0.00    +0.000 S 
ATOM     31  C   UNL     1       1.471  -5.353   7.488  0.00  0.00    +0.000 A 
ATOM     32  N   UNL     1       1.941  -6.611   7.701  0.00  0.00    +0.000 NA
ATOM     33  C   UNL     1       3.162  -6.791   7.321  0.00  0.00    +0.000 A 
ATOM     34  N   UNL     1       3.951  -5.835   6.743  0.00  0.00    +0.000 N 
ATOM     35  C   UNL     1       3.510  -4.559   6.481  0.00  0.00    +0.000 A 
ATOM     36  O   UNL     1       4.228  -3.735   5.924  0.00  0.00    +0.000 OA
ATOM     37  C   UNL     1       2.145  -4.300   6.899  0.00  0.00    +0.000 A 
ATOM     38  H   UNL     1       4.899  -6.042   6.461  0.00  0.00    +0.000 HD
ENDBRANCH  25  28
ENDBRANCH  23  24
ENDBRANCH   4  23
TORSDOF 11
