REMARK  Name = 
REMARK  5 active torsions:
REMARK  status: ('A' for Active; 'I' for Inactive)
REMARK    1  A    between atoms: C_2  and  C_18
REMARK    2  A    between atoms: N_3  and  C_4
REMARK    3  A    between atoms: C_4  and  C_5
REMARK    4  A    between atoms: N_8  and  C_9
REMARK    5  A    between atoms: C_9  and  C_10
REMARK                            x       y       z     vdW  Elec       q    Type
REMARK                         _______ _______ _______ _____ _____    ______ ____
ROOT
ATOM      1  O   UNL     1       0.372   1.820   3.629  0.00  0.00    +0.000 OA
ATOM      2  C   UNL     1      -0.030   2.420   2.639  0.00  0.00    +0.000 C 
ATOM      3  N   UNL     1       0.759   2.674   1.542  0.00  0.00    +0.000 N 
ATOM      4  H   UNL     1       0.335   3.106   0.732  0.00  0.00    +0.000 HD
ENDROOT
BRANCH   2   5
ATOM      5  C   UNL     1      -1.383   2.983   2.564  0.00  0.00    +0.000 A 
ATOM      6  C   UNL     1      -2.035   3.418   3.705  0.00  0.00    +0.000 A 
ATOM      7  S   UNL     1      -3.556   4.127   3.385  0.00  0.00    +0.000 S 
ATOM      8  C   UNL     1      -3.414   3.824   1.717  0.00  0.00    +0.000 A 
ATOM      9  N   UNL     1      -4.387   4.200   0.841  0.00  0.00    +0.000 NA
ATOM     10  C   UNL     1      -4.153   3.882  -0.389  0.00  0.00    +0.000 A 
ATOM     11  N   UNL     1      -3.039   3.206  -0.821  0.00  0.00    +0.000 N 
ATOM     12  C   UNL     1      -2.032   2.808   0.023  0.00  0.00    +0.000 A 
ATOM     13  O   UNL     1      -1.041   2.221  -0.405  0.00  0.00    +0.000 OA
ATOM     14  C   UNL     1      -2.232   3.173   1.412  0.00  0.00    +0.000 A 
ATOM     15  H   UNL     1      -2.919   2.981  -1.798  0.00  0.00    +0.000 HD
ENDBRANCH   2   5
BRANCH   3  16
ATOM     16  C   UNL     1       2.089   2.137   1.363  0.00  0.00    +0.000 C 
BRANCH  16  17
ATOM     17  C   UNL     1       3.190   3.111   1.823  0.00  0.00    +0.000 C 
ATOM     18  C   UNL     1       3.164   4.453   1.082  0.00  0.00    +0.000 C 
ATOM     19  C   UNL     1       3.533   4.310  -0.397  0.00  0.00    +0.000 C 
ATOM     20  N   UNL     1       4.818   3.627  -0.624  0.00  0.00    +0.000 NA
ATOM     21  C   UNL     1       4.941   2.369   0.134  0.00  0.00    +0.000 C 
ATOM     22  C   UNL     1       4.589   2.515   1.618  0.00  0.00    +0.000 C 
BRANCH  20  23
ATOM     23  C   UNL     1       5.026   3.346  -2.066  0.00  0.00    +0.000 C 
BRANCH  23  24
ATOM     24  C   UNL     1       5.022   4.574  -2.941  0.00  0.00    +0.000 A 
ATOM     25  C   UNL     1       5.966   5.592  -2.789  0.00  0.00    +0.000 A 
ATOM     26  C   UNL     1       5.872   6.742  -3.568  0.00  0.00    +0.000 A 
ATOM     27  C   UNL     1       4.841   6.830  -4.489  0.00  0.00    +0.000 A 
ATOM     28  N   UNL     1       3.930   5.855  -4.692  0.00  0.00    +0.000 NA
ATOM     29  C   UNL     1       4.044   4.752  -3.918  0.00  0.00    +0.000 A 
ENDBRANCH  23  24
ENDBRANCH  20  23
ENDBRANCH  16  17
ENDBRANCH   3  16
TORSDOF 5
