REMARK  Name = 
REMARK  10 active torsions:
REMARK  status: ('A' for Active; 'I' for Inactive)
REMARK    1  A    between atoms: C_1  and  C_2
REMARK    2  A    between atoms: C_2  and  C_3
REMARK    3  A    between atoms: C_6  and  N_7
REMARK    4  A    between atoms: C_10  and  C_11
REMARK    5  A    between atoms: C_11  and  C_12
REMARK    6  A    between atoms: C_11  and  C_13
REMARK    7  A    between atoms: C_11  and  C_14
REMARK    8  A    between atoms: C_14  and  N_15
REMARK    9  A    between atoms: N_15  and  C_16
REMARK   10  A    between atoms: C_19  and  N_20
REMARK                            x       y       z     vdW  Elec       q    Type
REMARK                         _______ _______ _______ _____ _____    ______ ____
ROOT
ATOM      1  C   UNL     1       8.877  -2.530   0.838  0.00  0.00    +0.000 C 
ATOM      2  C   UNL     1       8.067  -3.065   2.041  0.00  0.00    +0.000 C 
ATOM      3  C   UNL     1       8.520  -3.385  -0.400  0.00  0.00    +0.000 C 
ENDROOT
BRANCH   1   7
ATOM      4  N   UNL     1       5.535   0.988   0.151  0.00  0.00    +0.000 N 
ATOM      5  C   UNL     1       6.879   0.643   0.268  0.00  0.00    +0.000 A 
ATOM      6  C   UNL     1       7.180  -0.705   0.326  0.00  0.00    +0.000 A 
ATOM      7  C   UNL     1       8.493  -1.066   0.568  0.00  0.00    +0.000 A 
ATOM      8  N   UNL     1       9.454  -0.122   0.641  0.00  0.00    +0.000 NA
ATOM      9  C   UNL     1       9.072   1.157   0.506  0.00  0.00    +0.000 A 
ATOM     10  N   UNL     1       7.816   1.592   0.347  0.00  0.00    +0.000 NA
ATOM     11  H   UNL     1       5.207   0.831  -0.793  0.00  0.00    +0.000 HD
BRANCH   4  17
ATOM     12  C   UNL     1       1.971   1.956   2.921  0.00  0.00    +0.000 C 
ATOM     13  C   UNL     1       3.201   1.454   2.170  0.00  0.00    +0.000 C 
ATOM     14  C   UNL     1       3.120  -0.065   1.995  0.00  0.00    +0.000 C 
ATOM     15  O   UNL     1       4.367   1.736   2.956  0.00  0.00    +0.000 OA
ATOM     16  C   UNL     1       5.340   2.460   2.176  0.00  0.00    +0.000 C 
ATOM     17  C   UNL     1       5.133   2.286   0.661  0.00  0.00    +0.000 C 
ATOM     18  S   UNL     1       3.334   2.297   0.565  0.00  0.00    +0.000 S 
ENDBRANCH   4  17
ENDBRANCH   1   7
BRANCH   1  19
ATOM     19  C   UNL     1      10.413  -2.706   1.091  0.00  0.00    +0.000 C 
BRANCH  19  20
ATOM     20  N   UNL     1      10.900  -1.982   2.270  0.00  0.00    +0.000 N 
ATOM     21  H   UNL     1      10.474  -1.056   2.334  0.00  0.00    +0.000 HD
BRANCH  20  22
ATOM     22  C   UNL     1      10.900  -2.652   3.495  0.00  0.00    +0.000 A 
ATOM     23  N   UNL     1      11.050  -3.994   3.521  0.00  0.00    +0.000 NA
ATOM     24  C   UNL     1      11.157  -4.590   4.736  0.00  0.00    +0.000 A 
ATOM     25  C   UNL     1      11.052  -3.937   5.964  0.00  0.00    +0.000 A 
ATOM     26  C   UNL     1      10.929  -2.554   5.917  0.00  0.00    +0.000 A 
ATOM     27  C   UNL     1      10.855  -1.914   4.683  0.00  0.00    +0.000 A 
ATOM     28  F   UNL     1      10.708  -0.580   4.649  0.00  0.00    +0.000 F 
BRANCH  25  29
ATOM     29  N   UNL     1      11.308  -4.590   7.174  0.00  0.00    +0.000 N 
ATOM     30  H   UNL     1      11.117  -5.587   7.168  0.00  0.00    +0.000 HD
ATOM     31  H   UNL     1      10.926  -4.126   7.992  0.00  0.00    +0.000 HD
ENDBRANCH  25  29
ENDBRANCH  20  22
ENDBRANCH  19  20
ENDBRANCH   1  19
TORSDOF 6
