REMARK  Name = 
REMARK  4 active torsions:
REMARK  status: ('A' for Active; 'I' for Inactive)
REMARK    1  A    between atoms: C_1  and  C_2
REMARK    2  A    between atoms: C_2  and  N_3
REMARK    3  A    between atoms: C_2  and  C_13
REMARK    4  A    between atoms: C_8  and  C_9
REMARK                            x       y       z     vdW  Elec       q    Type
REMARK                         _______ _______ _______ _____ _____    ______ ____
ROOT
ATOM      1  N   UNL     1       2.806  -0.303   1.482  0.00  0.00    +0.000 N 
ATOM      2  C   UNL     1       2.979   0.764   2.376  0.00  0.00    +0.000 A 
ATOM      3  C   UNL     1       3.269   0.485   3.720  0.00  0.00    +0.000 A 
ATOM      4  N   UNL     1       3.454   1.432   4.674  0.00  0.00    +0.000 NA
ATOM      5  C   UNL     1       3.334   2.706   4.237  0.00  0.00    +0.000 A 
ATOM      6  C   UNL     1       3.045   3.000   2.916  0.00  0.00    +0.000 A 
ATOM      7  N   UNL     1       2.853   2.041   1.961  0.00  0.00    +0.000 NA
ATOM      8  H   UNL     1       3.622  -0.910   1.542  0.00  0.00    +0.000 HD
ENDROOT
BRANCH   6   9
ATOM      9  C   UNL     1       2.978   4.418   2.472  0.00  0.00    +0.000 C 
ATOM     10  N   UNL     1       2.750   4.613   1.138  0.00  0.00    +0.000 N 
ATOM     11  O   UNL     1       3.133   5.356   3.245  0.00  0.00    +0.000 OA
ATOM     12  H   UNL     1       2.633   3.817   0.522  0.00  0.00    +0.000 HD
ATOM     13  H   UNL     1       2.719   5.554   0.770  0.00  0.00    +0.000 HD
ENDBRANCH   6   9
BRANCH   1  15
ATOM     14  C   UNL     1       0.974   0.160  -0.089  0.00  0.00    +0.000 C 
ATOM     15  C   UNL     1       2.488   0.034   0.092  0.00  0.00    +0.000 C 
BRANCH  15  16
ATOM     16  C   UNL     1       3.064  -1.055  -0.803  0.00  0.00    +0.000 A 
ATOM     17  C   UNL     1       4.036  -0.728  -1.762  0.00  0.00    +0.000 A 
ATOM     18  C   UNL     1       4.617  -1.718  -2.556  0.00  0.00    +0.000 A 
ATOM     19  C   UNL     1       4.236  -3.050  -2.397  0.00  0.00    +0.000 A 
ATOM     20  C   UNL     1       3.268  -3.385  -1.454  0.00  0.00    +0.000 A 
ATOM     21 CL   UNL     1       2.806  -5.030  -1.253  0.00  0.00    +0.000 Cl
ATOM     22  C   UNL     1       2.680  -2.400  -0.662  0.00  0.00    +0.000 A 
ENDBRANCH  15  16
ENDBRANCH   1  15
TORSDOF 3
