REMARK  Name = 
REMARK  4 active torsions:
REMARK  status: ('A' for Active; 'I' for Inactive)
REMARK    1  A    between atoms: C_2  and  C_4
REMARK    2  A    between atoms: N_8  and  C_9
REMARK    3  A    between atoms: C_9  and  C_10
REMARK    4  A    between atoms: C_14  and  C_15
REMARK                            x       y       z     vdW  Elec       q    Type
REMARK                         _______ _______ _______ _____ _____    ______ ____
ROOT
ATOM      1  C   UNL     1       5.043   4.587   3.994  0.00  0.00    +0.000 C 
ENDROOT
BRANCH   1   6
ATOM      2  C   UNL     1       7.399   2.338   0.026  0.00  0.00    +0.000 A 
ATOM      3  C   UNL     1       7.200   1.858   1.315  0.00  0.00    +0.000 A 
ATOM      4  C   UNL     1       6.395   2.584   2.194  0.00  0.00    +0.000 A 
ATOM      5  C   UNL     1       5.819   3.781   1.781  0.00  0.00    +0.000 A 
ATOM      6  N   UNL     1       4.946   4.512   2.552  0.00  0.00    +0.000 N 
ATOM      7  N   UNL     1       6.020   4.258   0.539  0.00  0.00    +0.000 NA
ATOM      8  C   UNL     1       6.804   3.541  -0.309  0.00  0.00    +0.000 A 
ATOM      9  H   UNL     1       4.755   5.386   2.071  0.00  0.00    +0.000 HD
BRANCH   2  11
ATOM     10  N   UNL     1       8.325   0.263  -0.833  0.00  0.00    +0.000 N 
ATOM     11  C   UNL     1       8.205   1.618  -0.981  0.00  0.00    +0.000 C 
ATOM     12  O   UNL     1       8.717   2.200  -1.928  0.00  0.00    +0.000 OA
ATOM     13  H   UNL     1       8.796  -0.231  -1.580  0.00  0.00    +0.000 HD
ATOM     14  H   UNL     1       7.721  -0.275  -0.228  0.00  0.00    +0.000 HD
ENDBRANCH   2  11
ENDBRANCH   1   6
BRANCH   1  15
ATOM     15  C   UNL     1       5.983   5.664   4.478  0.00  0.00    +0.000 A 
ATOM     16  C   UNL     1       5.750   7.011   4.179  0.00  0.00    +0.000 A 
ATOM     17  C   UNL     1       6.550   8.003   4.740  0.00  0.00    +0.000 A 
ATOM     18  C   UNL     1       7.576   7.661   5.625  0.00  0.00    +0.000 A 
ATOM     19  C   UNL     1       7.827   6.323   5.974  0.00  0.00    +0.000 A 
ATOM     20  C   UNL     1       7.035   5.337   5.353  0.00  0.00    +0.000 A 
BRANCH  19  21
ATOM     21  C   UNL     1       8.801   5.962   7.033  0.00  0.00    +0.000 A 
ATOM     22  C   UNL     1       8.957   6.774   8.177  0.00  0.00    +0.000 A 
ATOM     23  C   UNL     1       9.787   6.400   9.240  0.00  0.00    +0.000 A 
ATOM     24  C   UNL     1      10.480   5.197   9.185  0.00  0.00    +0.000 A 
ATOM     25  C   UNL     1      10.354   4.395   8.060  0.00  0.00    +0.000 A 
ATOM     26  F   UNL     1      11.011   3.228   8.009  0.00  0.00    +0.000 F 
ATOM     27  C   UNL     1       9.541   4.768   6.991  0.00  0.00    +0.000 A 
ENDBRANCH  19  21
ENDBRANCH   1  15
TORSDOF 4
