REMARK  Name = 
REMARK  4 active torsions:
REMARK  status: ('A' for Active; 'I' for Inactive)
REMARK    1  A    between atoms: C_2  and  C_4
REMARK    2  A    between atoms: N_8  and  C_9
REMARK    3  A    between atoms: C_9  and  C_10
REMARK    4  A    between atoms: C_14  and  C_15
REMARK                            x       y       z     vdW  Elec       q    Type
REMARK                         _______ _______ _______ _____ _____    ______ ____
ROOT
ATOM      1  C   UNL     1       4.894   3.990   4.397  0.00  0.00    +0.000 C 
ATOM      2  C   UNL     1       4.568   3.394   5.759  0.00  0.00    +0.000 C 
ATOM      3  C   UNL     1       3.490   4.064   4.976  0.00  0.00    +0.000 C 
ENDROOT
BRANCH   1   8
ATOM      4  C   UNL     1       4.398   3.263  -0.688  0.00  0.00    +0.000 A 
ATOM      5  C   UNL     1       3.421   3.657   0.222  0.00  0.00    +0.000 A 
ATOM      6  C   UNL     1       3.709   3.627   1.585  0.00  0.00    +0.000 A 
ATOM      7  C   UNL     1       4.955   3.192   2.012  0.00  0.00    +0.000 A 
ATOM      8  N   UNL     1       5.263   3.006   3.365  0.00  0.00    +0.000 N 
ATOM      9  N   UNL     1       5.919   2.819   1.140  0.00  0.00    +0.000 NA
ATOM     10  C   UNL     1       5.624   2.863  -0.184  0.00  0.00    +0.000 A 
ATOM     11  H   UNL     1       6.248   2.742   3.361  0.00  0.00    +0.000 HD
BRANCH   4  13
ATOM     12  N   UNL     1       3.161   3.978  -2.655  0.00  0.00    +0.000 N 
ATOM     13  C   UNL     1       4.168   3.202  -2.144  0.00  0.00    +0.000 C 
ATOM     14  O   UNL     1       4.859   2.509  -2.876  0.00  0.00    +0.000 OA
ATOM     15  H   UNL     1       3.055   3.974  -3.662  0.00  0.00    +0.000 HD
ATOM     16  H   UNL     1       2.718   4.722  -2.140  0.00  0.00    +0.000 HD
ENDBRANCH   4  13
ENDBRANCH   1   8
BRANCH   1  17
ATOM     17  C   UNL     1       5.752   5.249   4.341  0.00  0.00    +0.000 A 
ATOM     18  C   UNL     1       7.128   5.178   4.615  0.00  0.00    +0.000 A 
ATOM     19  C   UNL     1       7.976   6.252   4.357  0.00  0.00    +0.000 A 
ATOM     20  C   UNL     1       7.455   7.446   3.865  0.00  0.00    +0.000 A 
ATOM     21  C   UNL     1       6.075   7.608   3.681  0.00  0.00    +0.000 A 
ATOM     22  C   UNL     1       5.250   6.485   3.890  0.00  0.00    +0.000 A 
BRANCH  21  23
ATOM     23  C   UNL     1       5.468   8.925   3.204  0.00  0.00    +0.000 C 
ATOM     24  C   UNL     1       6.286  10.199   3.458  0.00  0.00    +0.000 C 
ATOM     25  C   UNL     1       6.398  10.490   4.952  0.00  0.00    +0.000 C 
ATOM     26  C   UNL     1       5.034  10.478   5.627  0.00  0.00    +0.000 C 
ATOM     27  C   UNL     1       4.106   9.370   5.140  0.00  0.00    +0.000 C 
ATOM     28  O   UNL     1       4.148   9.150   3.730  0.00  0.00    +0.000 OA
ENDBRANCH  21  23
ENDBRANCH   1  17
TORSDOF 4
