REMARK  Name = 
REMARK  3 active torsions:
REMARK  status: ('A' for Active; 'I' for Inactive)
REMARK    1  A    between atoms: C_2  and  C_4
REMARK    2  A    between atoms: N_8  and  C_9
REMARK    3  A    between atoms: C_9  and  C_10
REMARK                            x       y       z     vdW  Elec       q    Type
REMARK                         _______ _______ _______ _____ _____    ______ ____
ROOT
ATOM      1  C   UNL     1       3.439  -2.169  -2.844  0.00  0.00    +0.000 A 
ATOM      2  C   UNL     1       2.670  -1.236  -3.536  0.00  0.00    +0.000 A 
ATOM      3  C   UNL     1       3.285  -0.110  -4.083  0.00  0.00    +0.000 A 
ATOM      4  C   UNL     1       4.656   0.066  -3.936  0.00  0.00    +0.000 A 
ATOM      5  N   UNL     1       5.340   1.199  -4.382  0.00  0.00    +0.000 N 
ATOM      6  N   UNL     1       5.411  -0.824  -3.250  0.00  0.00    +0.000 NA
ATOM      7  C   UNL     1       4.794  -1.911  -2.714  0.00  0.00    +0.000 A 
ATOM      8  H   UNL     1       6.324   1.012  -4.195  0.00  0.00    +0.000 HD
ENDROOT
BRANCH   1  10
ATOM      9  N   UNL     1       1.719  -3.877  -2.795  0.00  0.00    +0.000 N 
ATOM     10  C   UNL     1       2.858  -3.378  -2.222  0.00  0.00    +0.000 C 
ATOM     11  O   UNL     1       3.380  -3.917  -1.258  0.00  0.00    +0.000 OA
ATOM     12  H   UNL     1       1.365  -4.747  -2.417  0.00  0.00    +0.000 HD
ATOM     13  H   UNL     1       1.413  -3.614  -3.722  0.00  0.00    +0.000 HD
ENDBRANCH   1  10
BRANCH   5  14
ATOM     14  C   UNL     1       5.049   1.949  -5.615  0.00  0.00    +0.000 C 
ATOM     15  C   UNL     1       5.069   3.463  -5.424  0.00  0.00    +0.000 C 
ATOM     16  C   UNL     1       3.803   2.789  -5.827  0.00  0.00    +0.000 C 
BRANCH  14  17
ATOM     17  C   UNL     1       5.716   1.364  -6.858  0.00  0.00    +0.000 A 
ATOM     18  C   UNL     1       7.016   1.743  -7.249  0.00  0.00    +0.000 A 
ATOM     19  C   UNL     1       7.641   1.185  -8.370  0.00  0.00    +0.000 A 
ATOM     20  C   UNL     1       6.975   0.227  -9.127  0.00  0.00    +0.000 A 
ATOM     21  C   UNL     1       5.693  -0.155  -8.760  0.00  0.00    +0.000 A 
ATOM     22  F   UNL     1       5.048  -1.078  -9.487  0.00  0.00    +0.000 F 
ATOM     23  C   UNL     1       5.066   0.400  -7.647  0.00  0.00    +0.000 A 
ENDBRANCH  14  17
ENDBRANCH   5  14
TORSDOF 3
