REMARK  Name = 
REMARK  6 active torsions:
REMARK  status: ('A' for Active; 'I' for Inactive)
REMARK    1  A    between atoms: C_2  and  C_25
REMARK    2  A    between atoms: N_3  and  C_4
REMARK    3  A    between atoms: C_4  and  C_5
REMARK    4  A    between atoms: C_8  and  C_9
REMARK    5  A    between atoms: C_9  and  N_10
REMARK    6  A    between atoms: C_11  and  C_13
REMARK                            x       y       z     vdW  Elec       q    Type
REMARK                         _______ _______ _______ _____ _____    ______ ____
ROOT
ATOM      1  C   UNL     1       3.241  -1.803   3.120  0.00  0.00    +0.000 C 
ATOM      2  C   UNL     1       2.804  -3.242   3.408  0.00  0.00    +0.000 C 
ATOM      3  C   UNL     1       3.656  -3.887   4.490  0.00  0.00    +0.000 C 
ATOM      4  C   UNL     1       3.656  -3.085   5.799  0.00  0.00    +0.000 C 
ATOM      5  C   UNL     1       4.090  -1.638   5.518  0.00  0.00    +0.000 C 
ATOM      6  C   UNL     1       3.248  -0.984   4.420  0.00  0.00    +0.000 C 
ENDROOT
BRANCH   1   7
ATOM      7  C   UNL     1       2.315  -1.152   2.081  0.00  0.00    +0.000 C 
BRANCH   7  10
ATOM      8  O   UNL     1       4.043  -0.594  -0.096  0.00  0.00    +0.000 OA
ATOM      9  C   UNL     1       3.236  -1.517  -0.193  0.00  0.00    +0.000 C 
ATOM     10  N   UNL     1       2.351  -1.842   0.807  0.00  0.00    +0.000 N 
ATOM     11  H   UNL     1       1.821  -2.696   0.716  0.00  0.00    +0.000 HD
BRANCH   9  12
ATOM     12  C   UNL     1       3.161  -2.359  -1.368  0.00  0.00    +0.000 A 
ATOM     13  C   UNL     1       2.278  -3.363  -1.734  0.00  0.00    +0.000 A 
ATOM     14  C   UNL     1       2.688  -3.878  -2.988  0.00  0.00    +0.000 A 
ATOM     15  C   UNL     1       3.799  -3.168  -3.375  0.00  0.00    +0.000 A 
ATOM     16  N   UNL     1       4.063  -2.239  -2.405  0.00  0.00    +0.000 N 
ATOM     17  H   UNL     1       4.816  -1.560  -2.417  0.00  0.00    +0.000 HD
ENDBRANCH   9  12
ENDBRANCH   7  10
ENDBRANCH   1   7
BRANCH   4  18
ATOM     18  C   UNL     1       4.570  -3.727   6.860  0.00  0.00    +0.000 C 
BRANCH  18  19
ATOM     19  N   UNL     1       4.144  -5.063   7.233  0.00  0.00    +0.000 N 
ATOM     20  C   UNL     1       4.812  -5.791   8.192  0.00  0.00    +0.000 C 
ATOM     21  O   UNL     1       5.741  -5.321   8.843  0.00  0.00    +0.000 OA
ATOM     22  H   UNL     1       3.594  -5.585   6.561  0.00  0.00    +0.000 HD
BRANCH  20  23
ATOM     23  C   UNL     1       4.304  -7.146   8.443  0.00  0.00    +0.000 A 
ATOM     24  C   UNL     1       4.466  -7.724   9.696  0.00  0.00    +0.000 A 
ATOM     25  S   UNL     1       3.770  -9.276   9.828  0.00  0.00    +0.000 S 
ATOM     26  C   UNL     1       3.270  -9.253   8.203  0.00  0.00    +0.000 A 
ATOM     27  N   UNL     1       2.613 -10.312   7.652  0.00  0.00    +0.000 NA
ATOM     28  C   UNL     1       2.314 -10.166   6.404  0.00  0.00    +0.000 A 
ATOM     29  N   UNL     1       2.610  -9.056   5.655  0.00  0.00    +0.000 N 
ATOM     30  C   UNL     1       3.270  -7.969   6.169  0.00  0.00    +0.000 A 
ATOM     31  O   UNL     1       3.519  -6.995   5.476  0.00  0.00    +0.000 OA
ATOM     32  C   UNL     1       3.621  -8.073   7.572  0.00  0.00    +0.000 A 
ATOM     33  H   UNL     1       2.351  -9.002   4.682  0.00  0.00    +0.000 HD
ENDBRANCH  20  23
ENDBRANCH  18  19
ENDBRANCH   4  18
TORSDOF 6
