REMARK  Name = 
REMARK  6 active torsions:
REMARK  status: ('A' for Active; 'I' for Inactive)
REMARK    1  A    between atoms: N_1  and  C_2
REMARK    2  A    between atoms: C_2  and  C_3
REMARK    3  A    between atoms: C_7  and  C_8
REMARK    4  A    between atoms: C_8  and  N_9
REMARK    5  A    between atoms: C_15  and  C_16
REMARK    6  A    between atoms: C_16  and  O_18
REMARK                            x       y       z     vdW  Elec       q    Type
REMARK                         _______ _______ _______ _____ _____    ______ ____
ROOT
ATOM      1  N   UNL     1       3.859   3.222   3.784  0.00  0.00    +0.000 N 
ATOM      2  N   UNL     1       2.643   3.804   3.904  0.00  0.00    +0.000 NA
ATOM      3  C   UNL     1       2.802   5.000   3.335  0.00  0.00    +0.000 A 
ATOM      4  C   UNL     1       4.115   5.205   2.858  0.00  0.00    +0.000 A 
ATOM      5  C   UNL     1       4.805   6.257   2.233  0.00  0.00    +0.000 A 
ATOM      6  C   UNL     1       6.171   6.106   1.950  0.00  0.00    +0.000 A 
ATOM      7  C   UNL     1       6.834   4.910   2.254  0.00  0.00    +0.000 A 
ATOM      8  C   UNL     1       6.146   3.843   2.858  0.00  0.00    +0.000 A 
ATOM      9  C   UNL     1       4.790   4.025   3.160  0.00  0.00    +0.000 A 
ENDROOT
BRANCH   7  10
ATOM     10  C   UNL     1       8.296   4.733   2.041  0.00  0.00    +0.000 C 
ATOM     11  O   UNL     1       8.965   3.969   2.716  0.00  0.00    +0.000 OA
BRANCH  10  12
ATOM     12  O   UNL     1       8.815   5.466   1.035  0.00  0.00    +0.000 OA
ATOM     13  H   UNL     1       8.169   5.898   0.450  0.00  0.00    +0.000 HD
ENDBRANCH  10  12
ENDBRANCH   7  10
BRANCH   1  14
ATOM     14  C   UNL     1       4.093   1.920   4.402  0.00  0.00    +0.000 C 
BRANCH  14  19
ATOM     15  C   UNL     1       2.426  -0.423   1.870  0.00  0.00    +0.000 A 
ATOM     16  C   UNL     1       3.199  -1.549   2.118  0.00  0.00    +0.000 A 
ATOM     17  N   UNL     1       4.236  -1.578   2.985  0.00  0.00    +0.000 NA
ATOM     18  C   UNL     1       4.496  -0.438   3.662  0.00  0.00    +0.000 A 
ATOM     19  C   UNL     1       3.792   0.752   3.502  0.00  0.00    +0.000 A 
ATOM     20  C   UNL     1       2.738   0.741   2.582  0.00  0.00    +0.000 A 
BRANCH  15  21
ATOM     21  C   UNL     1       1.248  -0.471   0.944  0.00  0.00    +0.000 C 
BRANCH  21  22
ATOM     22  N   UNL     1       0.027  -0.786   1.674  0.00  0.00    +0.000 NA
ATOM     23  H   UNL     1      -0.774  -0.682   1.055  0.00  0.00    +0.000 HD
ATOM     24  H   UNL     1      -0.101  -0.106   2.422  0.00  0.00    +0.000 HD
ENDBRANCH  21  22
ENDBRANCH  15  21
ENDBRANCH  14  19
ENDBRANCH   1  14
TORSDOF 6
