REMARK  Name = 
REMARK  9 active torsions:
REMARK  status: ('A' for Active; 'I' for Inactive)
REMARK    1  A    between atoms: C_1  and  C_2
REMARK    2  A    between atoms: C_2  and  O_3
REMARK    3  A    between atoms: O_3  and  C_4
REMARK    4  A    between atoms: C_4  and  C_5
REMARK    5  A    between atoms: C_5  and  N_6
REMARK    6  A    between atoms: C_5  and  C_19
REMARK    7  A    between atoms: C_7  and  C_9
REMARK    8  A    between atoms: C_22  and  O_23
REMARK    9  A    between atoms: O_23  and  C_24
REMARK                            x       y       z     vdW  Elec       q    Type
REMARK                         _______ _______ _______ _____ _____    ______ ____
ROOT
ATOM      1  C   UNL     1       4.914   0.951  -2.425  0.00  0.00    +0.000 C 
ENDROOT
BRANCH   1   2
ATOM      2  C   UNL     1       6.436   0.965  -2.462  0.00  0.00    +0.000 A 
ATOM      3  C   UNL     1       7.111   0.239  -3.451  0.00  0.00    +0.000 A 
ATOM      4  C   UNL     1       8.506   0.250  -3.516  0.00  0.00    +0.000 A 
ATOM      5  C   UNL     1       9.247   1.029  -2.625  0.00  0.00    +0.000 A 
ATOM      6  C   UNL     1       8.591   1.729  -1.613  0.00  0.00    +0.000 A 
ATOM      7  C   UNL     1       7.196   1.701  -1.535  0.00  0.00    +0.000 A 
BRANCH   5   8
ATOM      8  O   UNL     1      10.623   1.103  -2.640  0.00  0.00    +0.000 OA
BRANCH   8   9
ATOM      9  C   UNL     1      11.261   1.136  -3.876  0.00  0.00    +0.000 A 
ATOM     10  C   UNL     1      12.570   0.680  -3.912  0.00  0.00    +0.000 A 
ATOM     11  C   UNL     1      13.227   0.662  -5.141  0.00  0.00    +0.000 A 
ATOM     12  C   UNL     1      12.558   1.104  -6.278  0.00  0.00    +0.000 A 
ATOM     13  C   UNL     1      11.263   1.570  -6.138  0.00  0.00    +0.000 A 
ATOM     14  N   UNL     1      10.609   1.613  -4.961  0.00  0.00    +0.000 NA
ENDBRANCH   8   9
ENDBRANCH   5   8
ENDBRANCH   1   2
BRANCH   1  15
ATOM     15  N   UNL     1       4.398   2.294  -2.645  0.00  0.00    +0.000 N 
ATOM     16  C   UNL     1       4.114   2.787  -3.891  0.00  0.00    +0.000 C 
ATOM     17  O   UNL     1       4.167   2.103  -4.906  0.00  0.00    +0.000 OA
ATOM     18  H   UNL     1       4.471   2.936  -1.866  0.00  0.00    +0.000 HD
BRANCH  16  19
ATOM     19  C   UNL     1       3.686   4.193  -3.939  0.00  0.00    +0.000 A 
ATOM     20  C   UNL     1       2.891   4.638  -4.987  0.00  0.00    +0.000 A 
ATOM     21  S   UNL     1       2.506   6.297  -4.894  0.00  0.00    +0.000 S 
ATOM     22  C   UNL     1       3.433   6.490  -3.480  0.00  0.00    +0.000 A 
ATOM     23  N   UNL     1       3.573   7.710  -2.896  0.00  0.00    +0.000 NA
ATOM     24  C   UNL     1       4.346   7.721  -1.862  0.00  0.00    +0.000 A 
ATOM     25  N   UNL     1       4.973   6.617  -1.344  0.00  0.00    +0.000 N 
ATOM     26  C   UNL     1       4.773   5.350  -1.837  0.00  0.00    +0.000 A 
ATOM     27  O   UNL     1       5.195   4.366  -1.237  0.00  0.00    +0.000 OA
ATOM     28  C   UNL     1       3.983   5.294  -3.053  0.00  0.00    +0.000 A 
ATOM     29  H   UNL     1       5.525   6.684  -0.502  0.00  0.00    +0.000 HD
ENDBRANCH  16  19
ENDBRANCH   1  15
BRANCH   1  30
ATOM     30  C   UNL     1       4.406   0.368  -1.086  0.00  0.00    +0.000 C 
BRANCH  30  31
ATOM     31  O   UNL     1       2.975   0.265  -1.086  0.00  0.00    +0.000 OA
BRANCH  31  33
ATOM     32  C   UNL     1       0.984  -0.350   0.091  0.00  0.00    +0.000 C 
ATOM     33  C   UNL     1       2.497  -0.289   0.138  0.00  0.00    +0.000 C 
ENDBRANCH  31  33
ENDBRANCH  30  31
ENDBRANCH   1  30
TORSDOF 8
