REMARK  Name = 
REMARK  9 active torsions:
REMARK  status: ('A' for Active; 'I' for Inactive)
REMARK    1  A    between atoms: C_1  and  C_2
REMARK    2  A    between atoms: C_6  and  C_7
REMARK    3  A    between atoms: C_7  and  C_8
REMARK    4  A    between atoms: C_8  and  N_9
REMARK    5  A    between atoms: N_9  and  C_10
REMARK    6  A    between atoms: C_10  and  C_11
REMARK    7  A    between atoms: C_14  and  C_15
REMARK    8  A    between atoms: C_15  and  N_16
REMARK    9  A    between atoms: C_17  and  C_19
REMARK                            x       y       z     vdW  Elec       q    Type
REMARK                         _______ _______ _______ _____ _____    ______ ____
ROOT
ATOM      1  C   UNL     1      -5.892   4.980   0.076  0.00  0.00    +0.000 A 
ATOM      2  C   UNL     1      -7.248   5.038   0.425  0.00  0.00    +0.000 A 
ATOM      3  C   UNL     1      -7.918   6.262   0.512  0.00  0.00    +0.000 A 
ATOM      4  C   UNL     1      -7.236   7.461   0.249  0.00  0.00    +0.000 A 
ATOM      5  C   UNL     1      -5.872   7.405  -0.057  0.00  0.00    +0.000 A 
ATOM      6  C   UNL     1      -5.207   6.180  -0.154  0.00  0.00    +0.000 A 
ENDROOT
BRANCH   1   7
ATOM      7  C   UNL     1      -5.178   3.652  -0.014  0.00  0.00    +0.000 C 
BRANCH   7   8
ATOM      8  N   UNL     1      -5.768   2.779  -1.035  0.00  0.00    +0.000 NA
ATOM      9  H   UNL     1      -6.746   2.619  -0.803  0.00  0.00    +0.000 HD
BRANCH   8  10
ATOM     10  C   UNL     1      -5.068   1.487  -1.060  0.00  0.00    +0.000 C 
BRANCH  10  11
ATOM     11  C   UNL     1      -5.671   0.557  -2.118  0.00  0.00    +0.000 C 
BRANCH  11  17
ATOM     12  C   UNL     1      -4.411  -3.475   0.285  0.00  0.00    +0.000 C 
ATOM     13  C   UNL     1      -4.364  -2.708  -1.000  0.00  0.00    +0.000 A 
ATOM     14  C   UNL     1      -3.720  -3.223  -2.118  0.00  0.00    +0.000 A 
ATOM     15  C   UNL     1      -3.708  -2.469  -3.286  0.00  0.00    +0.000 A 
ATOM     16  C   UNL     1      -4.335  -1.227  -3.307  0.00  0.00    +0.000 A 
ATOM     17  C   UNL     1      -4.956  -0.772  -2.148  0.00  0.00    +0.000 A 
ATOM     18  N   UNL     1      -4.979  -1.501  -1.005  0.00  0.00    +0.000 NA
ENDBRANCH  11  17
ENDBRANCH  10  11
ENDBRANCH   8  10
ENDBRANCH   7   8
ENDBRANCH   1   7
BRANCH   4  19
ATOM     19  C   UNL     1      -7.933   8.793   0.321  0.00  0.00    +0.000 C 
BRANCH  19  20
ATOM     20  N   UNL     1      -7.845   9.359   1.641  0.00  0.00    +0.000 N 
ATOM     21  C   UNL     1      -8.424  10.564   1.942  0.00  0.00    +0.000 C 
ATOM     22  O   UNL     1      -9.062  11.213   1.117  0.00  0.00    +0.000 OA
ATOM     23  H   UNL     1      -7.088   9.021   2.227  0.00  0.00    +0.000 HD
BRANCH  21  24
ATOM     24  C   UNL     1      -8.295  11.005   3.334  0.00  0.00    +0.000 A 
ATOM     25  C   UNL     1      -9.252  11.843   3.890  0.00  0.00    +0.000 A 
ATOM     26  S   UNL     1      -8.965  12.210   5.531  0.00  0.00    +0.000 S 
ATOM     27  C   UNL     1      -7.528  11.299   5.541  0.00  0.00    +0.000 A 
ATOM     28  N   UNL     1      -6.756  11.216   6.657  0.00  0.00    +0.000 NA
ATOM     29  C   UNL     1      -5.680  10.516   6.510  0.00  0.00    +0.000 A 
ATOM     30  N   UNL     1      -5.314   9.872   5.355  0.00  0.00    +0.000 N 
ATOM     31  C   UNL     1      -6.079   9.900   4.216  0.00  0.00    +0.000 A 
ATOM     32  O   UNL     1      -5.748   9.276   3.214  0.00  0.00    +0.000 OA
ATOM     33  C   UNL     1      -7.285  10.700   4.318  0.00  0.00    +0.000 A 
ATOM     34  H   UNL     1      -4.473   9.325   5.313  0.00  0.00    +0.000 HD
ENDBRANCH  21  24
ENDBRANCH  19  20
ENDBRANCH   4  19
TORSDOF 8
