REMARK  Name = 
REMARK  6 active torsions:
REMARK  status: ('A' for Active; 'I' for Inactive)
REMARK    1  A    between atoms: C_2  and  O_3
REMARK    2  A    between atoms: C_2  and  C_4
REMARK    3  A    between atoms: C_7  and  N_8
REMARK    4  A    between atoms: N_8  and  C_9
REMARK    5  A    between atoms: C_9  and  C_10
REMARK    6  A    between atoms: C_14  and  C_15
REMARK                            x       y       z     vdW  Elec       q    Type
REMARK                         _______ _______ _______ _____ _____    ______ ____
ROOT
ATOM      1  C   UNL     1       4.663  -1.977  -5.862  0.00  0.00    +0.000 C 
ENDROOT
BRANCH   1   2
ATOM      2  C   UNL     1       5.552  -2.782  -6.777  0.00  0.00    +0.000 A 
ATOM      3  C   UNL     1       6.525  -2.147  -7.557  0.00  0.00    +0.000 A 
ATOM      4  C   UNL     1       7.336  -2.891  -8.408  0.00  0.00    +0.000 A 
ATOM      5  C   UNL     1       7.212  -4.280  -8.449  0.00  0.00    +0.000 A 
ATOM      6  C   UNL     1       6.293  -4.961  -7.630  0.00  0.00    +0.000 A 
ATOM      7  C   UNL     1       5.443  -4.183  -6.824  0.00  0.00    +0.000 A 
BRANCH   6   8
ATOM      8  C   UNL     1       6.264  -6.437  -7.564  0.00  0.00    +0.000 A 
ATOM      9  C   UNL     1       7.429  -7.199  -7.690  0.00  0.00    +0.000 A 
ATOM     10  C   UNL     1       7.362  -8.582  -7.567  0.00  0.00    +0.000 A 
ATOM     11  C   UNL     1       6.137  -9.181  -7.318  0.00  0.00    +0.000 A 
ATOM     12  C   UNL     1       5.025  -8.365  -7.200  0.00  0.00    +0.000 A 
ATOM     13  N   UNL     1       5.062  -7.016  -7.310  0.00  0.00    +0.000 NA
ENDBRANCH   6   8
ENDBRANCH   1   2
BRANCH   1  14
ATOM     14  N   UNL     1       5.293  -1.843  -4.557  0.00  0.00    +0.000 N 
ATOM     15  H   UNL     1       5.733  -2.702  -4.234  0.00  0.00    +0.000 HD
BRANCH  14  19
ATOM     16  C   UNL     1       3.525   0.376  -1.435  0.00  0.00    +0.000 A 
ATOM     17  C   UNL     1       2.865   0.266  -2.659  0.00  0.00    +0.000 A 
ATOM     18  C   UNL     1       3.434  -0.472  -3.700  0.00  0.00    +0.000 A 
ATOM     19  C   UNL     1       4.643  -1.152  -3.532  0.00  0.00    +0.000 A 
ATOM     20  C   UNL     1       5.295  -1.033  -2.294  0.00  0.00    +0.000 A 
ATOM     21  C   UNL     1       4.741  -0.285  -1.246  0.00  0.00    +0.000 A 
BRANCH  16  23
ATOM     22  O   UNL     1       1.673   1.254  -0.230  0.00  0.00    +0.000 OA
ATOM     23  C   UNL     1       2.882   1.177  -0.366  0.00  0.00    +0.000 C 
BRANCH  23  24
ATOM     24  O   UNL     1       3.760   1.855   0.403  0.00  0.00    +0.000 OA
ATOM     25  H   UNL     1       4.675   1.860   0.068  0.00  0.00    +0.000 HD
ENDBRANCH  23  24
ENDBRANCH  16  23
ENDBRANCH  14  19
ENDBRANCH   1  14
TORSDOF 6
