REMARK  Name = 
REMARK  8 active torsions:
REMARK  status: ('A' for Active; 'I' for Inactive)
REMARK    1  A    between atoms: C_1  and  C_2
REMARK    2  A    between atoms: C_4  and  C_5
REMARK    3  A    between atoms: C_9  and  C_10
REMARK    4  A    between atoms: C_10  and  C_11
REMARK    5  A    between atoms: C_10  and  C_12
REMARK    6  A    between atoms: C_10  and  C_13
REMARK    7  A    between atoms: C_13  and  N_14
REMARK    8  A    between atoms: C_18  and  C_19
REMARK                            x       y       z     vdW  Elec       q    Type
REMARK                         _______ _______ _______ _____ _____    ______ ____
ROOT
ATOM      1  C   UNL     1      -5.091  -3.763  -1.819  0.00  0.00    +0.000 C 
ATOM      2  C   UNL     1      -5.886  -2.440  -1.690  0.00  0.00    +0.000 C 
ATOM      3  C   UNL     1      -4.576  -3.916  -3.267  0.00  0.00    +0.000 C 
ENDROOT
BRANCH   1   8
ATOM      4  C   UNL     1      -1.953  -2.398   0.008  0.00  0.00    +0.000 A 
ATOM      5  C   UNL     1      -1.825  -3.333   1.046  0.00  0.00    +0.000 A 
ATOM      6  C   UNL     1      -2.662  -4.445   1.122  0.00  0.00    +0.000 A 
ATOM      7  C   UNL     1      -3.684  -4.624   0.190  0.00  0.00    +0.000 A 
ATOM      8  C   UNL     1      -3.885  -3.700  -0.846  0.00  0.00    +0.000 A 
ATOM      9  C   UNL     1      -2.970  -2.631  -0.940  0.00  0.00    +0.000 A 
BRANCH   4  13
ATOM     10  C   UNL     1      -1.212   2.392  -1.341  0.00  0.00    +0.000 C 
ATOM     11  C   UNL     1      -0.731   1.122  -0.707  0.00  0.00    +0.000 A 
ATOM     12  C   UNL     1      -1.559   0.004  -0.637  0.00  0.00    +0.000 A 
ATOM     13  C   UNL     1      -1.091  -1.193  -0.072  0.00  0.00    +0.000 A 
ATOM     14  C   UNL     1       0.218  -1.185   0.420  0.00  0.00    +0.000 A 
ATOM     15  C   UNL     1       0.972  -0.025   0.331  0.00  0.00    +0.000 A 
ATOM     16  N   UNL     1       0.530   1.121  -0.225  0.00  0.00    +0.000 NA
ENDBRANCH   4  13
ENDBRANCH   1   8
BRANCH   1  17
ATOM     17  C   UNL     1      -6.048  -4.945  -1.481  0.00  0.00    +0.000 C 
BRANCH  17  18
ATOM     18  N   UNL     1      -7.234  -5.018  -2.349  0.00  0.00    +0.000 N 
ATOM     19  C   UNL     1      -8.076  -6.095  -2.016  0.00  0.00    +0.000 A 
ATOM     20  C   UNL     1      -9.234  -6.295  -2.762  0.00  0.00    +0.000 A 
ATOM     21  C   UNL     1     -10.070  -7.368  -2.455  0.00  0.00    +0.000 A 
ATOM     22  C   UNL     1      -9.739  -8.225  -1.405  0.00  0.00    +0.000 A 
ATOM     23  C   UNL     1      -8.580  -7.941  -0.703  0.00  0.00    +0.000 A 
ATOM     24  N   UNL     1      -7.759  -6.902  -0.985  0.00  0.00    +0.000 NA
ATOM     25  H   UNL     1      -6.992  -5.111  -3.331  0.00  0.00    +0.000 HD
BRANCH  22  26
ATOM     26  C   UNL     1     -10.612  -9.381  -1.093  0.00  0.00    +0.000 C 
ATOM     27  N   UNL     1     -10.266 -10.219  -0.068  0.00  0.00    +0.000 N 
ATOM     28  O   UNL     1     -11.627  -9.597  -1.743  0.00  0.00    +0.000 OA
ATOM     29  H   UNL     1      -9.456 -10.135   0.526  0.00  0.00    +0.000 HD
ATOM     30  H   UNL     1     -10.889 -10.998   0.104  0.00  0.00    +0.000 HD
ENDBRANCH  22  26
ENDBRANCH  17  18
ENDBRANCH   1  17
TORSDOF 5
