REMARK  Name = 
REMARK  5 active torsions:
REMARK  status: ('A' for Active; 'I' for Inactive)
REMARK    1  A    between atoms: C_2  and  C_4
REMARK    2  A    between atoms: C_7  and  N_8
REMARK    3  A    between atoms: N_8  and  C_9
REMARK    4  A    between atoms: C_9  and  C_10
REMARK    5  A    between atoms: C_12  and  C_13
REMARK                            x       y       z     vdW  Elec       q    Type
REMARK                         _______ _______ _______ _____ _____    ______ ____
ROOT
ATOM      1  C   UNL     1       4.637   3.426  -5.100  0.00  0.00    +0.000 C 
ENDROOT
BRANCH   1   2
ATOM      2  C   UNL     1       5.460   3.743  -6.333  0.00  0.00    +0.000 A 
ATOM      3  C   UNL     1       6.802   4.105  -6.189  0.00  0.00    +0.000 A 
ATOM      4  C   UNL     1       7.566   4.468  -7.307  0.00  0.00    +0.000 A 
ATOM      5  C   UNL     1       6.901   4.472  -8.541  0.00  0.00    +0.000 A 
ATOM      6  C   UNL     1       5.563   4.112  -8.601  0.00  0.00    +0.000 A 
ATOM      7  N   UNL     1       4.831   3.744  -7.530  0.00  0.00    +0.000 NA
BRANCH   4   8
ATOM      8  C   UNL     1       9.004   4.808  -7.190  0.00  0.00    +0.000 A 
ATOM      9  C   UNL     1       9.826   4.192  -6.221  0.00  0.00    +0.000 A 
ATOM     10  C   UNL     1      11.192   4.477  -6.123  0.00  0.00    +0.000 A 
ATOM     11  C   UNL     1      11.776   5.384  -6.999  0.00  0.00    +0.000 A 
ATOM     12  C   UNL     1      10.983   6.007  -7.952  0.00  0.00    +0.000 A 
ATOM     13  F   UNL     1      11.539   6.881  -8.801  0.00  0.00    +0.000 F 
ATOM     14  C   UNL     1       9.618   5.737  -8.047  0.00  0.00    +0.000 A 
ENDBRANCH   4   8
ENDBRANCH   1   2
BRANCH   1  15
ATOM     15  N   UNL     1       5.256   2.366  -4.308  0.00  0.00    +0.000 N 
ATOM     16  H   UNL     1       5.273   1.468  -4.786  0.00  0.00    +0.000 HD
BRANCH  15  20
ATOM     17  C   UNL     1       4.908   2.106  -0.113  0.00  0.00    +0.000 A 
ATOM     18  C   UNL     1       4.250   3.130  -0.797  0.00  0.00    +0.000 A 
ATOM     19  C   UNL     1       4.325   3.203  -2.189  0.00  0.00    +0.000 A 
ATOM     20  C   UNL     1       5.043   2.260  -2.936  0.00  0.00    +0.000 A 
ATOM     21  C   UNL     1       5.714   1.247  -2.232  0.00  0.00    +0.000 A 
ATOM     22  C   UNL     1       5.651   1.169  -0.833  0.00  0.00    +0.000 A 
BRANCH  17  24
ATOM     23  N   UNL     1       3.756   2.539   1.986  0.00  0.00    +0.000 N 
ATOM     24  C   UNL     1       4.860   2.021   1.367  0.00  0.00    +0.000 C 
ATOM     25  O   UNL     1       5.754   1.481   2.011  0.00  0.00    +0.000 OA
ATOM     26  H   UNL     1       3.687   2.392   2.983  0.00  0.00    +0.000 HD
ATOM     27  H   UNL     1       2.911   2.761   1.481  0.00  0.00    +0.000 HD
ENDBRANCH  17  24
ENDBRANCH  15  20
ENDBRANCH   1  15
TORSDOF 5
