REMARK  Name = 
REMARK  6 active torsions:
REMARK  status: ('A' for Active; 'I' for Inactive)
REMARK    1  A    between atoms: C_2  and  C_3
REMARK    2  A    between atoms: C_6  and  N_7
REMARK    3  A    between atoms: N_7  and  C_8
REMARK    4  A    between atoms: C_8  and  C_9
REMARK    5  A    between atoms: C_13  and  C_14
REMARK    6  A    between atoms: C_25  and  N_26
REMARK                            x       y       z     vdW  Elec       q    Type
REMARK                         _______ _______ _______ _____ _____    ______ ____
ROOT
ATOM      1  C   UNL     1       8.787  -0.854   0.012  0.00  0.00    +0.000 C 
ATOM      2  C   UNL     1       9.133  -1.940  -1.001  0.00  0.00    +0.000 C 
ATOM      3  C   UNL     1       8.745  -2.314   0.391  0.00  0.00    +0.000 C 
ENDROOT
BRANCH   1   4
ATOM      4  C   UNL     1       9.882   0.030   0.581  0.00  0.00    +0.000 A 
ATOM      5  C   UNL     1      10.085   0.169   1.961  0.00  0.00    +0.000 A 
ATOM      6  C   UNL     1      10.924   1.160   2.466  0.00  0.00    +0.000 A 
ATOM      7  C   UNL     1      11.562   2.044   1.594  0.00  0.00    +0.000 A 
ATOM      8  C   UNL     1      11.400   1.941   0.203  0.00  0.00    +0.000 A 
ATOM      9  C   UNL     1      10.594   0.894  -0.275  0.00  0.00    +0.000 A 
BRANCH   8  10
ATOM     10  C   UNL     1      11.950   2.950  -0.726  0.00  0.00    +0.000 A 
ATOM     11  C   UNL     1      11.960   4.316  -0.379  0.00  0.00    +0.000 A 
ATOM     12  C   UNL     1      12.432   5.292  -1.261  0.00  0.00    +0.000 A 
ATOM     13  C   UNL     1      12.889   4.923  -2.522  0.00  0.00    +0.000 A 
ATOM     14  C   UNL     1      12.873   3.586  -2.893  0.00  0.00    +0.000 A 
ATOM     15 CL   UNL     1      13.399   3.130  -4.468  0.00  0.00    +0.000 Cl
ATOM     16  C   UNL     1      12.416   2.604  -2.008  0.00  0.00    +0.000 A 
ENDBRANCH   8  10
ENDBRANCH   1   4
BRANCH   1  17
ATOM     17  N   UNL     1       7.628  -0.062  -0.428  0.00  0.00    +0.000 N 
ATOM     18  H   UNL     1       7.869   0.647  -1.118  0.00  0.00    +0.000 HD
BRANCH  17  22
ATOM     19  C   UNL     1       4.257   1.073   1.702  0.00  0.00    +0.000 A 
ATOM     20  N   UNL     1       5.182   0.319   2.365  0.00  0.00    +0.000 NA
ATOM     21  C   UNL     1       6.304  -0.017   1.677  0.00  0.00    +0.000 A 
ATOM     22  C   UNL     1       6.567   0.382   0.376  0.00  0.00    +0.000 A 
ATOM     23  C   UNL     1       5.591   1.172  -0.249  0.00  0.00    +0.000 A 
ATOM     24  C   UNL     1       4.427   1.574   0.407  0.00  0.00    +0.000 A 
BRANCH  24  25
ATOM     25  N   UNL     1       3.427   2.210  -0.349  0.00  0.00    +0.000 N 
ATOM     26  H   UNL     1       3.771   2.749  -1.139  0.00  0.00    +0.000 HD
ATOM     27  H   UNL     1       2.720   2.713   0.179  0.00  0.00    +0.000 HD
ENDBRANCH  24  25
BRANCH  19  29
ATOM     28  N   UNL     1       2.062   1.590   3.003  0.00  0.00    +0.000 NA
ATOM     29  C   UNL     1       3.054   1.336   2.442  0.00  0.00    +0.000 C 
ENDBRANCH  19  29
ENDBRANCH  17  22
ENDBRANCH   1  17
TORSDOF 6
