REMARK  Name = 
REMARK  9 active torsions:
REMARK  status: ('A' for Active; 'I' for Inactive)
REMARK    1  A    between atoms: C_1  and  O_2
REMARK    2  A    between atoms: O_2  and  C_3
REMARK    3  A    between atoms: C_10  and  C_11
REMARK    4  A    between atoms: N_13  and  C_14
REMARK    5  A    between atoms: C_14  and  C_15
REMARK    6  A    between atoms: C_18  and  C_19
REMARK    7  A    between atoms: C_19  and  N_20
REMARK    8  A    between atoms: N_20  and  C_21
REMARK    9  A    between atoms: C_21  and  C_22
REMARK                            x       y       z     vdW  Elec       q    Type
REMARK                         _______ _______ _______ _____ _____    ______ ____
ROOT
ATOM      1  C   UNL     1       2.813   2.647  -2.044  0.00  0.00    +0.000 C 
ENDROOT
BRANCH   1   2
ATOM      2  C   UNL     1       1.620   1.878  -2.553  0.00  0.00    +0.000 A 
ATOM      3  C   UNL     1       1.699   0.497  -2.777  0.00  0.00    +0.000 A 
ATOM      4  C   UNL     1       0.588  -0.213  -3.244  0.00  0.00    +0.000 A 
ATOM      5  C   UNL     1      -0.626   0.440  -3.504  0.00  0.00    +0.000 A 
ATOM      6  C   UNL     1      -0.691   1.827  -3.319  0.00  0.00    +0.000 A 
ATOM      7  C   UNL     1       0.421   2.539  -2.854  0.00  0.00    +0.000 A 
BRANCH   5   8
ATOM      8  C   UNL     1      -1.836  -0.338  -3.979  0.00  0.00    +0.000 C 
BRANCH   8   9
ATOM      9  N   UNL     1      -2.206  -1.368  -3.010  0.00  0.00    +0.000 NA
ATOM     10  H   UNL     1      -2.425  -0.917  -2.121  0.00  0.00    +0.000 HD
BRANCH   9  11
ATOM     11  C   UNL     1      -3.394  -2.116  -3.443  0.00  0.00    +0.000 C 
BRANCH  11  12
ATOM     12  C   UNL     1      -3.786  -3.180  -2.433  0.00  0.00    +0.000 A 
ATOM     13  C   UNL     1      -2.887  -4.195  -2.102  0.00  0.00    +0.000 A 
ATOM     14  C   UNL     1      -3.254  -5.140  -1.149  0.00  0.00    +0.000 A 
ATOM     15  C   UNL     1      -4.507  -5.055  -0.557  0.00  0.00    +0.000 A 
ATOM     16  C   UNL     1      -5.345  -4.024  -0.946  0.00  0.00    +0.000 A 
ATOM     17  N   UNL     1      -5.015  -3.087  -1.864  0.00  0.00    +0.000 NA
ENDBRANCH  11  12
ENDBRANCH   9  11
ENDBRANCH   8   9
ENDBRANCH   5   8
ENDBRANCH   1   2
BRANCH   1  20
ATOM     18  C   UNL     1       4.787   3.814  -2.947  0.00  0.00    +0.000 C 
ATOM     19  O   UNL     1       5.210   4.057  -1.818  0.00  0.00    +0.000 OA
ATOM     20  N   UNL     1       3.617   3.132  -3.137  0.00  0.00    +0.000 N 
ATOM     21  H   UNL     1       3.258   2.991  -4.070  0.00  0.00    +0.000 HD
BRANCH  18  29
ATOM     22  C   UNL     1       4.266   3.357  -6.319  0.00  0.00    +0.000 A 
ATOM     23  N   UNL     1       4.306   3.327  -7.666  0.00  0.00    +0.000 NA
ATOM     24  C   UNL     1       5.326   3.937  -8.277  0.00  0.00    +0.000 A 
ATOM     25  N   UNL     1       6.331   4.589  -7.699  0.00  0.00    +0.000 NA
ATOM     26  C   UNL     1       6.248   4.602  -6.358  0.00  0.00    +0.000 A 
ATOM     27  S   UNL     1       7.448   5.392  -5.453  0.00  0.00    +0.000 S 
ATOM     28  C   UNL     1       6.686   4.981  -3.990  0.00  0.00    +0.000 A 
ATOM     29  C   UNL     1       5.519   4.242  -4.151  0.00  0.00    +0.000 A 
ATOM     30  C   UNL     1       5.257   4.021  -5.573  0.00  0.00    +0.000 A 
BRANCH  22  32
ATOM     31  C   UNL     1       2.588   1.731  -6.468  0.00  0.00    +0.000 C 
ATOM     32  O   UNL     1       3.195   2.761  -5.691  0.00  0.00    +0.000 OA
ENDBRANCH  22  32
ENDBRANCH  18  29
ENDBRANCH   1  20
TORSDOF 8
