REMARK  Name = 
REMARK  7 active torsions:
REMARK  status: ('A' for Active; 'I' for Inactive)
REMARK    1  A    between atoms: C_2  and  C_20
REMARK    2  A    between atoms: N_3  and  C_4
REMARK    3  A    between atoms: C_4  and  C_5
REMARK    4  A    between atoms: C_8  and  C_9
REMARK    5  A    between atoms: C_9  and  N_10
REMARK    6  A    between atoms: N_10  and  C_11
REMARK    7  A    between atoms: C_11  and  C_12
REMARK                            x       y       z     vdW  Elec       q    Type
REMARK                         _______ _______ _______ _____ _____    ______ ____
ROOT
ATOM      1  C   UNL     1       2.192   0.889  -2.331  0.00  0.00    +0.000 C 
ENDROOT
BRANCH   1   2
ATOM      2  C   UNL     1       3.171   1.307  -3.430  0.00  0.00    +0.000 C 
ATOM      3  C   UNL     1       4.424   0.413  -3.444  0.00  0.00    +0.000 C 
ATOM      4  C   UNL     1       5.435   0.868  -4.495  0.00  0.00    +0.000 C 
ATOM      5  C   UNL     1       5.819   2.345  -4.295  0.00  0.00    +0.000 C 
ATOM      6  C   UNL     1       4.558   3.225  -4.303  0.00  0.00    +0.000 C 
ATOM      7  C   UNL     1       3.545   2.777  -3.256  0.00  0.00    +0.000 C 
BRANCH   5   8
ATOM      8  C   UNL     1       6.828   2.798  -5.365  0.00  0.00    +0.000 C 
BRANCH   8   9
ATOM      9  N   UNL     1       7.202   4.191  -5.127  0.00  0.00    +0.000 NA
ATOM     10  H   UNL     1       7.606   4.293  -4.197  0.00  0.00    +0.000 HD
BRANCH   9  11
ATOM     11  C   UNL     1       8.137   4.699  -6.124  0.00  0.00    +0.000 C 
BRANCH  11  12
ATOM     12  C   UNL     1       8.463   6.143  -5.855  0.00  0.00    +0.000 A 
ATOM     13  C   UNL     1       7.472   7.131  -5.854  0.00  0.00    +0.000 A 
ATOM     14  C   UNL     1       7.811   8.454  -5.590  0.00  0.00    +0.000 A 
ATOM     15  C   UNL     1       9.141   8.750  -5.339  0.00  0.00    +0.000 A 
ATOM     16  N   UNL     1      10.128   7.831  -5.339  0.00  0.00    +0.000 NA
ATOM     17  C   UNL     1       9.767   6.552  -5.596  0.00  0.00    +0.000 A 
ENDBRANCH  11  12
ENDBRANCH   9  11
ENDBRANCH   8   9
ENDBRANCH   5   8
ENDBRANCH   1   2
BRANCH   1  20
ATOM     18  O   UNL     1      -0.147   0.115  -3.755  0.00  0.00    +0.000 OA
ATOM     19  C   UNL     1       0.539  -0.736  -3.196  0.00  0.00    +0.000 C 
ATOM     20  N   UNL     1       1.711  -0.452  -2.552  0.00  0.00    +0.000 N 
ATOM     21  H   UNL     1       2.267  -1.208  -2.173  0.00  0.00    +0.000 HD
BRANCH  19  22
ATOM     22  C   UNL     1       0.185  -2.153  -3.225  0.00  0.00    +0.000 A 
ATOM     23  C   UNL     1      -0.499  -2.701  -4.300  0.00  0.00    +0.000 A 
ATOM     24  S   UNL     1      -0.779  -4.377  -4.128  0.00  0.00    +0.000 S 
ATOM     25  C   UNL     1      -0.029  -4.409  -2.603  0.00  0.00    +0.000 A 
ATOM     26  N   UNL     1       0.077  -5.559  -1.887  0.00  0.00    +0.000 NA
ATOM     27  C   UNL     1       0.670  -5.432  -0.747  0.00  0.00    +0.000 A 
ATOM     28  N   UNL     1       1.162  -4.253  -0.251  0.00  0.00    +0.000 N 
ATOM     29  C   UNL     1       1.056  -3.057  -0.918  0.00  0.00    +0.000 A 
ATOM     30  O   UNL     1       1.492  -2.025  -0.427  0.00  0.00    +0.000 OA
ATOM     31  C   UNL     1       0.429  -3.158  -2.224  0.00  0.00    +0.000 A 
ATOM     32  H   UNL     1       1.613  -4.213   0.652  0.00  0.00    +0.000 HD
ENDBRANCH  19  22
ENDBRANCH   1  20
TORSDOF 7
