REMARK  Name = 
REMARK  6 active torsions:
REMARK  status: ('A' for Active; 'I' for Inactive)
REMARK    1  A    between atoms: N_1  and  C_2
REMARK    2  A    between atoms: C_2  and  C_3
REMARK    3  A    between atoms: C_6  and  O_7
REMARK    4  A    between atoms: O_7  and  C_8
REMARK    5  A    between atoms: C_8  and  C_9
REMARK    6  A    between atoms: C_13  and  O_14
REMARK                            x       y       z     vdW  Elec       q    Type
REMARK                         _______ _______ _______ _____ _____    ______ ____
ROOT
ATOM      1  C   UNL     1       2.823   1.256  -0.619  0.00  0.00    +0.000 A 
ATOM      2  C   UNL     1       2.122   2.431  -0.310  0.00  0.00    +0.000 A 
ATOM      3  C   UNL     1       2.584   3.673  -0.761  0.00  0.00    +0.000 A 
ATOM      4  C   UNL     1       3.754   3.757  -1.514  0.00  0.00    +0.000 A 
ATOM      5  C   UNL     1       4.427   2.585  -1.867  0.00  0.00    +0.000 A 
ATOM      6  C   UNL     1       3.972   1.346  -1.412  0.00  0.00    +0.000 A 
ENDROOT
BRANCH   1   7
ATOM      7  C   UNL     1       2.367  -0.080  -0.096  0.00  0.00    +0.000 C 
BRANCH   7   8
ATOM      8  N   UNL     1       1.029  -0.415  -0.565  0.00  0.00    +0.000 NA
ATOM      9  H   UNL     1       0.808  -1.367  -0.285  0.00  0.00    +0.000 HD
ATOM     10  H   UNL     1       1.030  -0.406  -1.585  0.00  0.00    +0.000 HD
ENDBRANCH   7   8
ENDBRANCH   1   7
BRANCH   4  11
ATOM     11  O   UNL     1       4.162   5.023  -1.847  0.00  0.00    +0.000 OA
BRANCH  11  12
ATOM     12  C   UNL     1       5.552   5.131  -2.163  0.00  0.00    +0.000 C 
BRANCH  12  13
ATOM     13  C   UNL     1       6.049   6.544  -2.061  0.00  0.00    +0.000 A 
ATOM     14  C   UNL     1       5.449   7.495  -1.242  0.00  0.00    +0.000 A 
ATOM     15  N   UNL     1       5.929   8.748  -1.055  0.00  0.00    +0.000 NA
ATOM     16  C   UNL     1       7.068   9.064  -1.711  0.00  0.00    +0.000 A 
ATOM     17  C   UNL     1       7.744   8.186  -2.541  0.00  0.00    +0.000 A 
ATOM     18  C   UNL     1       7.230   6.910  -2.718  0.00  0.00    +0.000 A 
BRANCH  17  19
ATOM     19  O   UNL     1       8.901   8.503  -3.184  0.00  0.00    +0.000 OA
ATOM     20  H   UNL     1       9.146   9.414  -2.957  0.00  0.00    +0.000 HD
ENDBRANCH  17  19
ENDBRANCH  12  13
ENDBRANCH  11  12
ENDBRANCH   4  11
TORSDOF 6
