REMARK  Name = 
REMARK  6 active torsions:
REMARK  status: ('A' for Active; 'I' for Inactive)
REMARK    1  A    between atoms: C_1  and  C_2
REMARK    2  A    between atoms: C_2  and  C_3
REMARK    3  A    between atoms: C_2  and  C_15
REMARK    4  A    between atoms: C_3  and  N_4
REMARK    5  A    between atoms: C_8  and  C_9
REMARK    6  A    between atoms: C_19  and  C_20
REMARK                            x       y       z     vdW  Elec       q    Type
REMARK                         _______ _______ _______ _____ _____    ______ ____
ROOT
ATOM      1  N   UNL     1       2.418   0.483   2.548  0.00  0.00    +0.000 N 
ATOM      2  C   UNL     1       2.914   1.228   3.598  0.00  0.00    +0.000 A 
ATOM      3  N   UNL     1       3.397   2.459   3.400  0.00  0.00    +0.000 NA
ATOM      4  C   UNL     1       3.795   3.151   4.493  0.00  0.00    +0.000 A 
ATOM      5  C   UNL     1       3.716   2.665   5.777  0.00  0.00    +0.000 A 
ATOM      6  C   UNL     1       3.245   1.379   5.854  0.00  0.00    +0.000 A 
ATOM      7 CL   UNL     1       3.127   0.476   7.319  0.00  0.00    +0.000 Cl
ATOM      8  N   UNL     1       2.841   0.646   4.795  0.00  0.00    +0.000 NA
ATOM      9  H   UNL     1       2.414  -0.488   2.838  0.00  0.00    +0.000 HD
ENDROOT
BRANCH   5  10
ATOM     10  C   UNL     1       4.135   3.534   6.886  0.00  0.00    +0.000 C 
ATOM     11  N   UNL     1       3.571   3.352   8.115  0.00  0.00    +0.000 N 
ATOM     12  O   UNL     1       4.943   4.434   6.696  0.00  0.00    +0.000 OA
ATOM     13  H   UNL     1       2.905   2.623   8.337  0.00  0.00    +0.000 HD
ATOM     14  H   UNL     1       3.870   3.963   8.866  0.00  0.00    +0.000 HD
ENDBRANCH   5  10
BRANCH   1  15
ATOM     15  C   UNL     1       3.003   0.732   1.250  0.00  0.00    +0.000 C 
BRANCH  15  17
ATOM     16  C   UNL     1       0.867   0.099  -0.040  0.00  0.00    +0.000 C 
ATOM     17  C   UNL     1       2.301  -0.179   0.288  0.00  0.00    +0.000 C 
BRANCH  17  18
ATOM     18  C   UNL     1       2.886  -1.471  -0.091  0.00  0.00    +0.000 A 
ATOM     19  C   UNL     1       2.147  -2.649   0.072  0.00  0.00    +0.000 A 
ATOM     20  C   UNL     1       2.661  -3.879  -0.337  0.00  0.00    +0.000 A 
ATOM     21  C   UNL     1       3.914  -3.941  -0.941  0.00  0.00    +0.000 A 
ATOM     22  C   UNL     1       4.672  -2.776  -1.125  0.00  0.00    +0.000 A 
ATOM     23  C   UNL     1       4.158  -1.546  -0.671  0.00  0.00    +0.000 A 
BRANCH  22  24
ATOM     24  C   UNL     1       6.004  -2.822  -1.832  0.00  0.00    +0.000 C 
ATOM     25  F   UNL     1       6.320  -4.055  -2.320  0.00  0.00    +0.000 F 
ATOM     26  F   UNL     1       6.053  -1.978  -2.901  0.00  0.00    +0.000 F 
ATOM     27  F   UNL     1       7.040  -2.463  -1.024  0.00  0.00    +0.000 F 
ENDBRANCH  22  24
ENDBRANCH  17  18
ENDBRANCH  15  17
ENDBRANCH   1  15
TORSDOF 5
