REMARK  Name = 
REMARK  6 active torsions:
REMARK  status: ('A' for Active; 'I' for Inactive)
REMARK    1  A    between atoms: C_2  and  C_4
REMARK    2  A    between atoms: N_8  and  C_9
REMARK    3  A    between atoms: C_9  and  C_10
REMARK    4  A    between atoms: C_10  and  C_13
REMARK    5  A    between atoms: C_17  and  C_18
REMARK    6  A    between atoms: C_18  and  C_19
REMARK                            x       y       z     vdW  Elec       q    Type
REMARK                         _______ _______ _______ _____ _____    ______ ____
ROOT
ATOM      1  C   UNL     1       6.099   5.211   4.817  0.00  0.00    +0.000 C 
ATOM      2  F   UNL     1       5.692   6.220   3.991  0.00  0.00    +0.000 F 
ATOM      3  F   UNL     1       5.485   4.085   4.350  0.00  0.00    +0.000 F 
ENDROOT
BRANCH   1   4
ATOM      4  C   UNL     1       5.769   5.482   6.273  0.00  0.00    +0.000 A 
ATOM      5  C   UNL     1       5.488   4.420   7.146  0.00  0.00    +0.000 A 
ATOM      6  C   UNL     1       5.271   4.664   8.501  0.00  0.00    +0.000 A 
ATOM      7  C   UNL     1       5.344   5.966   8.998  0.00  0.00    +0.000 A 
ATOM      8  C   UNL     1       5.626   7.039   8.145  0.00  0.00    +0.000 A 
ATOM      9  C   UNL     1       5.826   6.791   6.783  0.00  0.00    +0.000 A 
BRANCH   8  10
ATOM     10  C   UNL     1       5.732   8.451   8.687  0.00  0.00    +0.000 C 
BRANCH  10  11
ATOM     11  C   UNL     1       7.185   8.816   8.973  0.00  0.00    +0.000 C 
ATOM     12  C   UNL     1       7.900   8.118  10.145  0.00  0.00    +0.000 C 
ATOM     13  N   UNL     1       8.270   9.422  10.708  0.00  0.00    +0.000 NA
ATOM     14  C   UNL     1       7.389  10.122   9.767  0.00  0.00    +0.000 C 
ATOM     15  H   UNL     1       9.258   9.654  10.604  0.00  0.00    +0.000 HD
ENDBRANCH  10  11
ENDBRANCH   8  10
ENDBRANCH   1   4
BRANCH   1  16
ATOM     16  C   UNL     1       7.634   5.050   4.682  0.00  0.00    +0.000 C 
BRANCH  16  21
ATOM     17  C   UNL     1      12.085   4.203   2.393  0.00  0.00    +0.000 A 
ATOM     18  C   UNL     1      11.680   3.917   3.690  0.00  0.00    +0.000 A 
ATOM     19  C   UNL     1      10.342   4.094   4.033  0.00  0.00    +0.000 A 
ATOM     20  C   UNL     1       9.437   4.571   3.087  0.00  0.00    +0.000 A 
ATOM     21  N   UNL     1       8.081   4.679   3.336  0.00  0.00    +0.000 N 
ATOM     22  N   UNL     1       9.829   4.890   1.839  0.00  0.00    +0.000 NA
ATOM     23  C   UNL     1      11.138   4.707   1.517  0.00  0.00    +0.000 A 
ATOM     24  H   UNL     1       7.641   5.178   2.563  0.00  0.00    +0.000 HD
BRANCH  17  26
ATOM     25  N   UNL     1      14.193   3.016   2.564  0.00  0.00    +0.000 N 
ATOM     26  C   UNL     1      13.469   3.988   1.926  0.00  0.00    +0.000 C 
ATOM     27  O   UNL     1      13.935   4.621   0.989  0.00  0.00    +0.000 OA
ATOM     28  H   UNL     1      15.097   2.794   2.161  0.00  0.00    +0.000 HD
ATOM     29  H   UNL     1      13.759   2.306   3.138  0.00  0.00    +0.000 HD
ENDBRANCH  17  26
ENDBRANCH  16  21
ENDBRANCH   1  16
TORSDOF 6
