REMARK  Name = 
REMARK  4 active torsions:
REMARK  status: ('A' for Active; 'I' for Inactive)
REMARK    1  A    between atoms: N_1  and  C_2
REMARK    2  A    between atoms: C_2  and  C_3
REMARK    3  A    between atoms: C_6  and  C_7
REMARK    4  A    between atoms: C_7  and  N_8
REMARK                            x       y       z     vdW  Elec       q    Type
REMARK                         _______ _______ _______ _____ _____    ______ ____
ROOT
ATOM      1  C   UNL     1       2.845   1.203  -0.892  0.00  0.00    +0.000 C 
ATOM      2  C   UNL     1       4.349   1.369  -0.608  0.00  0.00    +0.000 C 
ATOM      3  C   UNL     1       4.905   2.684  -1.159  0.00  0.00    +0.000 C 
ATOM      4  C   UNL     1       4.154   3.919  -0.625  0.00  0.00    +0.000 C 
ATOM      5  C   UNL     1       2.637   3.756  -0.848  0.00  0.00    +0.000 C 
ATOM      6  C   UNL     1       2.086   2.422  -0.339  0.00  0.00    +0.000 C 
ENDROOT
BRANCH   1   7
ATOM      7  C   UNL     1       2.610   0.936  -2.396  0.00  0.00    +0.000 C 
BRANCH   7   8
ATOM      8  N   UNL     1       1.209   0.685  -2.718  0.00  0.00    +0.000 NA
ATOM      9  H   UNL     1       1.131   0.483  -3.714  0.00  0.00    +0.000 HD
ATOM     10  H   UNL     1       0.666   1.534  -2.569  0.00  0.00    +0.000 HD
ENDBRANCH   7   8
ENDBRANCH   1   7
BRANCH   4  11
ATOM     11  C   UNL     1       4.461   4.228   0.855  0.00  0.00    +0.000 C 
BRANCH  11  12
ATOM     12  N   UNL     1       5.857   4.533   1.130  0.00  0.00    +0.000 N 
ATOM     13  C   UNL     1       6.788   3.625   1.576  0.00  0.00    +0.000 A 
ATOM     14  C   UNL     1       7.968   4.299   1.803  0.00  0.00    +0.000 A 
ATOM     15  C   UNL     1       7.747   5.667   1.493  0.00  0.00    +0.000 A 
ATOM     16  C   UNL     1       8.525   6.835   1.534  0.00  0.00    +0.000 A 
ATOM     17  C   UNL     1       7.923   8.026   1.133  0.00  0.00    +0.000 A 
ATOM     18  C   UNL     1       6.599   8.003   0.716  0.00  0.00    +0.000 A 
ATOM     19  N   UNL     1       5.802   6.910   0.662  0.00  0.00    +0.000 NA
ATOM     20  C   UNL     1       6.425   5.782   1.063  0.00  0.00    +0.000 A 
ENDBRANCH  11  12
ENDBRANCH   4  11
TORSDOF 4
