REMARK  Name = 
REMARK  6 active torsions:
REMARK  status: ('A' for Active; 'I' for Inactive)
REMARK    1  A    between atoms: C_2  and  C_4
REMARK    2  A    between atoms: N_9  and  C_10
REMARK    3  A    between atoms: C_10  and  C_11
REMARK    4  A    between atoms: C_15  and  C_16
REMARK    5  A    between atoms: CA_20  and  C_21
REMARK    6  A    between atoms: C_21  and  O_22
REMARK                            x       y       z     vdW  Elec       q    Type
REMARK                         _______ _______ _______ _____ _____    ______ ____
ROOT
ATOM      1  C   UNL     1       7.459  -1.367   4.179  0.00  0.00    +0.000 A 
ATOM      2  C   UNL     1       7.819  -2.639   4.599  0.00  0.00    +0.000 A 
ATOM      3  N   UNL     1       8.802  -2.883   5.491  0.00  0.00    +0.000 NA
ATOM      4  C   UNL     1       9.465  -1.805   5.981  0.00  0.00    +0.000 A 
ATOM      5  C   UNL     1       9.226  -0.478   5.616  0.00  0.00    +0.000 A 
ATOM      6  C   UNL     1       8.197  -0.287   4.681  0.00  0.00    +0.000 A 
ENDROOT
BRANCH   5   7
ATOM      7  C   UNL     1       9.999   0.656   6.167  0.00  0.00    +0.000 A 
ATOM      8  C   UNL     1      11.359   0.540   6.475  0.00  0.00    +0.000 A 
ATOM      9  C   UNL     1      12.048   1.647   6.947  0.00  0.00    +0.000 A 
ATOM     10  N   UNL     1      11.488   2.860   7.134  0.00  0.00    +0.000 NA
ATOM     11  CA  UNL     1      10.169   2.978   6.859  0.00  0.00    +0.000 A 
ATOM     12  C   UNL     1       9.406   1.910   6.385  0.00  0.00    +0.000 A 
BRANCH  11  13
ATOM     13  C   UNL     1       9.529   4.329   7.066  0.00  0.00    +0.000 C 
BRANCH  13  14
ATOM     14  O   UNL     1       9.011   4.843   5.840  0.00  0.00    +0.000 OA
ATOM     15  H   UNL     1       9.770   4.898   5.232  0.00  0.00    +0.000 HD
ENDBRANCH  13  14
ENDBRANCH  11  13
ENDBRANCH   5   7
BRANCH   1  16
ATOM     16  C   UNL     1       6.311  -1.150   3.237  0.00  0.00    +0.000 C 
BRANCH  16  22
ATOM     17  C   UNL     1       3.794  -0.513  -0.235  0.00  0.00    +0.000 A 
ATOM     18  C   UNL     1       4.405  -0.527  -1.482  0.00  0.00    +0.000 A 
ATOM     19  C   UNL     1       5.768  -0.738  -1.512  0.00  0.00    +0.000 A 
ATOM     20  N   UNL     1       6.527  -0.933  -0.408  0.00  0.00    +0.000 NA
ATOM     21  C   UNL     1       5.928  -0.907   0.798  0.00  0.00    +0.000 A 
ATOM     22  N   UNL     1       6.755  -1.112   1.870  0.00  0.00    +0.000 N 
ATOM     23  C   UNL     1       4.565  -0.691   0.916  0.00  0.00    +0.000 A 
ATOM     24  H   UNL     1       7.731  -1.248   1.634  0.00  0.00    +0.000 HD
BRANCH  17  26
ATOM     25  N   UNL     1       1.524  -0.685  -1.092  0.00  0.00    +0.000 N 
ATOM     26  C   UNL     1       2.340  -0.292  -0.067  0.00  0.00    +0.000 C 
ATOM     27  O   UNL     1       1.878   0.179   0.963  0.00  0.00    +0.000 OA
ATOM     28  H   UNL     1       0.530  -0.639  -0.908  0.00  0.00    +0.000 HD
ATOM     29  H   UNL     1       1.833  -1.311  -1.821  0.00  0.00    +0.000 HD
ENDBRANCH  17  26
ENDBRANCH  16  22
ENDBRANCH   1  16
TORSDOF 6
