REMARK  Name = 
REMARK  5 active torsions:
REMARK  status: ('A' for Active; 'I' for Inactive)
REMARK    1  A    between atoms: C_1  and  C_2
REMARK    2  A    between atoms: C_5  and  C_6
REMARK    3  A    between atoms: C_6  and  N_7
REMARK    4  A    between atoms: N_7  and  C_8
REMARK    5  A    between atoms: C_11  and  C_12
REMARK                            x       y       z     vdW  Elec       q    Type
REMARK                         _______ _______ _______ _____ _____    ______ ____
ROOT
ATOM      1  N   UNL     1       7.004   1.209   1.095  0.00  0.00    +0.000 N 
ATOM      2  H   UNL     1       7.444   0.890   1.952  0.00  0.00    +0.000 HD
ENDROOT
BRANCH   1   3
ATOM      3  C   UNL     1       7.253   2.556   0.830  0.00  0.00    +0.000 A 
ATOM      4  C   UNL     1       7.243   3.175  -0.402  0.00  0.00    +0.000 A 
ATOM      5  N   UNL     1       7.505   4.494  -0.608  0.00  0.00    +0.000 NA
ATOM      6  C   UNL     1       7.725   5.224   0.518  0.00  0.00    +0.000 A 
ATOM      7  N   UNL     1       7.714   4.751   1.771  0.00  0.00    +0.000 NA
ATOM      8  C   UNL     1       7.467   3.433   1.890  0.00  0.00    +0.000 A 
BRANCH   6   9
ATOM      9  C   UNL     1       8.008   6.694   0.349  0.00  0.00    +0.000 C 
ATOM     10  N   UNL     1       8.026   7.166  -0.940  0.00  0.00    +0.000 N 
ATOM     11  O   UNL     1       8.220   7.460   1.297  0.00  0.00    +0.000 OA
ATOM     12  H   UNL     1       7.850   6.536  -1.716  0.00  0.00    +0.000 HD
ATOM     13  H   UNL     1       8.204   8.145  -1.108  0.00  0.00    +0.000 HD
ENDBRANCH   6   9
ENDBRANCH   1   3
BRANCH   1  14
ATOM     14  C   UNL     1       6.640   0.155   0.127  0.00  0.00    +0.000 C 
ATOM     15  C   UNL     1       7.536  -0.359  -0.980  0.00  0.00    +0.000 C 
ATOM     16  C   UNL     1       7.457  -1.146   0.283  0.00  0.00    +0.000 C 
BRANCH  14  21
ATOM     17  C   UNL     1       1.000  -0.710  -0.707  0.00  0.00    +0.000 C 
ATOM     18  C   UNL     1       2.441  -0.411  -0.443  0.00  0.00    +0.000 A 
ATOM     19  C   UNL     1       2.950  -0.444   0.841  0.00  0.00    +0.000 A 
ATOM     20  C   UNL     1       4.303  -0.211   1.024  0.00  0.00    +0.000 A 
ATOM     21  C   UNL     1       5.129   0.019  -0.070  0.00  0.00    +0.000 A 
ATOM     22  N   UNL     1       4.587   0.080  -1.308  0.00  0.00    +0.000 NA
ATOM     23  N   UNL     1       3.239  -0.141  -1.498  0.00  0.00    +0.000 NA
ENDBRANCH  14  21
ENDBRANCH   1  14
TORSDOF 4
