REMARK  Name = 
REMARK  8 active torsions:
REMARK  status: ('A' for Active; 'I' for Inactive)
REMARK    1  A    between atoms: N_1  and  C_2
REMARK    2  A    between atoms: C_2  and  C_3
REMARK    3  A    between atoms: C_3  and  N_4
REMARK    4  A    between atoms: C_3  and  C_17
REMARK    5  A    between atoms: C_5  and  C_7
REMARK    6  A    between atoms: C_20  and  O_21
REMARK    7  A    between atoms: O_21  and  C_22
REMARK    8  A    between atoms: C_22  and  C_23
REMARK                            x       y       z     vdW  Elec       q    Type
REMARK                         _______ _______ _______ _____ _____    ______ ____
ROOT
ATOM      1  C   UNL     1       2.810  -0.150   1.286  0.00  0.00    +0.000 C 
ENDROOT
BRANCH   1   2
ATOM      2  C   UNL     1       4.335  -0.171   1.415  0.00  0.00    +0.000 A 
ATOM      3  C   UNL     1       5.036   1.020   1.662  0.00  0.00    +0.000 A 
ATOM      4  C   UNL     1       6.429   1.018   1.768  0.00  0.00    +0.000 A 
ATOM      5  C   UNL     1       7.141  -0.177   1.667  0.00  0.00    +0.000 A 
ATOM      6  C   UNL     1       6.462  -1.359   1.381  0.00  0.00    +0.000 A 
ATOM      7  C   UNL     1       5.072  -1.355   1.248  0.00  0.00    +0.000 A 
BRANCH   5   8
ATOM      8  O   UNL     1       8.493  -0.080   1.857  0.00  0.00    +0.000 OA
BRANCH   8   9
ATOM      9  C   UNL     1       9.125  -1.286   2.305  0.00  0.00    +0.000 C 
BRANCH   9  10
ATOM     10  C   UNL     1      10.455  -0.997   2.961  0.00  0.00    +0.000 A 
ATOM     11  C   UNL     1      11.287   0.017   2.492  0.00  0.00    +0.000 A 
ATOM     12  C   UNL     1      12.506   0.234   3.126  0.00  0.00    +0.000 A 
ATOM     13  C   UNL     1      12.871  -0.574   4.197  0.00  0.00    +0.000 A 
ATOM     14  C   UNL     1      11.999  -1.573   4.589  0.00  0.00    +0.000 A 
ATOM     15  N   UNL     1      10.809  -1.805   3.995  0.00  0.00    +0.000 NA
ENDBRANCH   9  10
ENDBRANCH   8   9
ENDBRANCH   5   8
ENDBRANCH   1   2
BRANCH   1  16
ATOM     16  N   UNL     1       2.257  -1.373   1.866  0.00  0.00    +0.000 N 
ATOM     17  C   UNL     1       0.914  -1.624   1.981  0.00  0.00    +0.000 C 
ATOM     18  O   UNL     1       0.054  -0.929   1.453  0.00  0.00    +0.000 OA
ATOM     19  H   UNL     1       2.859  -1.819   2.549  0.00  0.00    +0.000 HD
BRANCH  17  20
ATOM     20  C   UNL     1       0.552  -2.819   2.753  0.00  0.00    +0.000 A 
ATOM     21  C   UNL     1      -0.618  -3.507   2.465  0.00  0.00    +0.000 A 
ATOM     22  S   UNL     1      -0.905  -4.828   3.506  0.00  0.00    +0.000 S 
ATOM     23  C   UNL     1       0.511  -4.507   4.394  0.00  0.00    +0.000 A 
ATOM     24  N   UNL     1       0.840  -5.250   5.487  0.00  0.00    +0.000 NA
ATOM     25  C   UNL     1       1.925  -4.873   6.077  0.00  0.00    +0.000 A 
ATOM     26  N   UNL     1       2.723  -3.838   5.665  0.00  0.00    +0.000 N 
ATOM     27  C   UNL     1       2.459  -3.100   4.539  0.00  0.00    +0.000 A 
ATOM     28  O   UNL     1       3.244  -2.254   4.133  0.00  0.00    +0.000 OA
ATOM     29  C   UNL     1       1.219  -3.441   3.871  0.00  0.00    +0.000 A 
ATOM     30  H   UNL     1       3.582  -3.618   6.149  0.00  0.00    +0.000 HD
ENDBRANCH  17  20
ENDBRANCH   1  16
BRANCH   1  31
ATOM     31  C   UNL     1       2.394   0.067  -0.200  0.00  0.00    +0.000 C 
BRANCH  31  32
ATOM     32  N   UNL     1       2.906   1.308  -0.805  0.00  0.00    +0.000 NA
ATOM     33  H   UNL     1       2.649   1.319  -1.791  0.00  0.00    +0.000 HD
ATOM     34  H   UNL     1       3.926   1.291  -0.782  0.00  0.00    +0.000 HD
ENDBRANCH  31  32
ENDBRANCH   1  31
TORSDOF 8
