REMARK  Name = 
REMARK  10 active torsions:
REMARK  status: ('A' for Active; 'I' for Inactive)
REMARK    1  A    between atoms: C_1  and  C_2
REMARK    2  A    between atoms: C_2  and  C_3
REMARK    3  A    between atoms: C_3  and  N_4
REMARK    4  A    between atoms: C_3  and  C_20
REMARK    5  A    between atoms: N_4  and  C_5
REMARK    6  A    between atoms: C_5  and  C_6
REMARK    7  A    between atoms: C_9  and  C_10
REMARK    8  A    between atoms: C_10  and  N_11
REMARK    9  A    between atoms: N_11  and  C_12
REMARK   10  A    between atoms: C_12  and  C_13
REMARK                            x       y       z     vdW  Elec       q    Type
REMARK                         _______ _______ _______ _____ _____    ______ ____
ROOT
ATOM      1  C   UNL     1       3.409   1.127   0.169  0.00  0.00    +0.000 C 
ENDROOT
BRANCH   1   2
ATOM      2  C   UNL     1       2.981   2.043  -0.951  0.00  0.00    +0.000 A 
ATOM      3  C   UNL     1       1.735   2.681  -0.980  0.00  0.00    +0.000 A 
ATOM      4  C   UNL     1       1.467   3.626  -1.971  0.00  0.00    +0.000 A 
ATOM      5  C   UNL     1       2.442   3.901  -2.925  0.00  0.00    +0.000 A 
ATOM      6  N   UNL     1       3.641   3.268  -2.939  0.00  0.00    +0.000 NA
ATOM      7  C   UNL     1       3.875   2.362  -1.964  0.00  0.00    +0.000 A 
BRANCH   5   8
ATOM      8  C   UNL     1       2.199   4.912  -4.030  0.00  0.00    +0.000 C 
BRANCH   8   9
ATOM      9  N   UNL     1       2.413   4.370  -5.383  0.00  0.00    +0.000 NA
ATOM     10  H   UNL     1       3.346   3.945  -5.366  0.00  0.00    +0.000 HD
BRANCH   9  11
ATOM     11  C   UNL     1       1.464   3.302  -5.682  0.00  0.00    +0.000 C 
BRANCH  11  12
ATOM     12  C   UNL     1       1.734   2.792  -7.046  0.00  0.00    +0.000 A 
ATOM     13  C   UNL     1       2.053   1.538  -7.521  0.00  0.00    +0.000 A 
ATOM     14  N   UNL     1       2.200   1.555  -8.886  0.00  0.00    +0.000 NA
ATOM     15  C   UNL     1       1.997   2.802  -9.240  0.00  0.00    +0.000 A 
ATOM     16  N   UNL     1       1.716   3.592  -8.162  0.00  0.00    +0.000 N 
ATOM     17  H   UNL     1       1.553   4.589  -8.167  0.00  0.00    +0.000 HD
ENDBRANCH  11  12
ENDBRANCH   9  11
ENDBRANCH   8   9
ENDBRANCH   5   8
ENDBRANCH   1   2
BRANCH   1  18
ATOM     18  N   UNL     1       2.632  -0.104   0.262  0.00  0.00    +0.000 NA
ATOM     19  H   UNL     1       2.753  -0.679  -0.576  0.00  0.00    +0.000 HD
BRANCH  18  20
ATOM     20  C   UNL     1       2.954  -0.891   1.460  0.00  0.00    +0.000 C 
BRANCH  20  21
ATOM     21  C   UNL     1       4.379  -1.429   1.461  0.00  0.00    +0.000 A 
ATOM     22  C   UNL     1       5.296  -1.083   2.444  0.00  0.00    +0.000 A 
ATOM     23  S   UNL     1       6.704  -2.049   2.432  0.00  0.00    +0.000 S 
ATOM     24  C   UNL     1       6.146  -2.940   1.095  0.00  0.00    +0.000 A 
ATOM     25  N   UNL     1       6.828  -4.025   0.637  0.00  0.00    +0.000 NA
ATOM     26  C   UNL     1       6.276  -4.607  -0.376  0.00  0.00    +0.000 A 
ATOM     27  N   UNL     1       5.138  -4.169  -1.008  0.00  0.00    +0.000 N 
ATOM     28  C   UNL     1       4.476  -3.017  -0.640  0.00  0.00    +0.000 A 
ATOM     29  O   UNL     1       3.591  -2.524  -1.332  0.00  0.00    +0.000 OA
ATOM     30  C   UNL     1       4.966  -2.425   0.590  0.00  0.00    +0.000 A 
ATOM     31  H   UNL     1       4.823  -4.618  -1.854  0.00  0.00    +0.000 HD
ENDBRANCH  20  21
BRANCH  20  33
ATOM     32  C   UNL     1       2.078  -2.813   2.922  0.00  0.00    +0.000 C 
ATOM     33  C   UNL     1       1.907  -2.012   1.632  0.00  0.00    +0.000 C 
ENDBRANCH  20  33
ENDBRANCH  18  20
ENDBRANCH   1  18
TORSDOF 9
