REMARK  Name = 
REMARK  7 active torsions:
REMARK  status: ('A' for Active; 'I' for Inactive)
REMARK    1  A    between atoms: N_1  and  C_2
REMARK    2  A    between atoms: C_2  and  C_3
REMARK    3  A    between atoms: C_3  and  C_4
REMARK    4  A    between atoms: C_7  and  C_8
REMARK    5  A    between atoms: C_8  and  N_9
REMARK    6  A    between atoms: C_14  and  C_15
REMARK    7  A    between atoms: C_15  and  O_17
REMARK                            x       y       z     vdW  Elec       q    Type
REMARK                         _______ _______ _______ _____ _____    ______ ____
ROOT
ATOM      1  C   UNL     1       8.802   0.484  -1.339  0.00  0.00    +0.000 C 
ENDROOT
BRANCH   1   2
ATOM      2  N   UNL     1       9.364   0.146  -0.053  0.00  0.00    +0.000 N 
ATOM      3  N   UNL     1       9.741   1.113   0.816  0.00  0.00    +0.000 NA
ATOM      4  N   UNL     1      10.155   0.511   1.928  0.00  0.00    +0.000 NA
ATOM      5  C   UNL     1      10.063  -0.839   1.738  0.00  0.00    +0.000 A 
ATOM      6  C   UNL     1      10.319  -1.918   2.588  0.00  0.00    +0.000 A 
ATOM      7  C   UNL     1      10.099  -3.196   2.065  0.00  0.00    +0.000 A 
ATOM      8  C   UNL     1       9.636  -3.330   0.752  0.00  0.00    +0.000 A 
ATOM      9  N   UNL     1       9.379  -2.304  -0.110  0.00  0.00    +0.000 NA
ATOM     10  C   UNL     1       9.594  -1.100   0.458  0.00  0.00    +0.000 A 
BRANCH   7  11
ATOM     11  C   UNL     1      10.251  -4.423   2.876  0.00  0.00    +0.000 C 
ATOM     12  O   UNL     1       9.612  -5.435   2.651  0.00  0.00    +0.000 OA
BRANCH  11  13
ATOM     13  O   UNL     1      11.169  -4.334   3.862  0.00  0.00    +0.000 OA
ATOM     14  H   UNL     1      11.730  -3.538   3.874  0.00  0.00    +0.000 HD
ENDBRANCH  11  13
ENDBRANCH   7  11
ENDBRANCH   1   2
BRANCH   1  18
ATOM     15  C   UNL     1       4.471   0.662  -1.301  0.00  0.00    +0.000 A 
ATOM     16  C   UNL     1       5.228   1.789  -0.962  0.00  0.00    +0.000 A 
ATOM     17  C   UNL     1       6.626   1.726  -0.960  0.00  0.00    +0.000 A 
ATOM     18  C   UNL     1       7.295   0.539  -1.302  0.00  0.00    +0.000 A 
ATOM     19  C   UNL     1       6.528  -0.598  -1.602  0.00  0.00    +0.000 A 
ATOM     20  C   UNL     1       5.139  -0.525  -1.607  0.00  0.00    +0.000 A 
ATOM     21  F   UNL     1       4.436  -1.625  -1.911  0.00  0.00    +0.000 F 
BRANCH  15  22
ATOM     22  C   UNL     1       2.964   0.707  -1.282  0.00  0.00    +0.000 C 
BRANCH  22  23
ATOM     23  C   UNL     1       2.415   0.286   0.084  0.00  0.00    +0.000 C 
BRANCH  23  24
ATOM     24  N   UNL     1       0.953   0.314   0.107  0.00  0.00    +0.000 NA
ATOM     25  H   UNL     1       0.632   0.000   1.023  0.00  0.00    +0.000 HD
ATOM     26  H   UNL     1       0.593  -0.367  -0.562  0.00  0.00    +0.000 HD
ENDBRANCH  23  24
ENDBRANCH  22  23
ENDBRANCH  15  22
ENDBRANCH   1  18
TORSDOF 7
