REMARK  Name = 
REMARK  9 active torsions:
REMARK  status: ('A' for Active; 'I' for Inactive)
REMARK    1  A    between atoms: N_1  and  C_2
REMARK    2  A    between atoms: C_2  and  C_3
REMARK    3  A    between atoms: C_3  and  N_4
REMARK    4  A    between atoms: C_3  and  C_26
REMARK    5  A    between atoms: N_4  and  C_5
REMARK    6  A    between atoms: C_5  and  C_6
REMARK    7  A    between atoms: C_9  and  C_10
REMARK    8  A    between atoms: C_10  and  N_11
REMARK    9  A    between atoms: C_12  and  C_14
REMARK                            x       y       z     vdW  Elec       q    Type
REMARK                         _______ _______ _______ _____ _____    ______ ____
ROOT
ATOM      1  C   UNL     1       0.477  -3.696   0.821  0.00  0.00    +0.000 A 
ATOM      2  C   UNL     1       1.324  -4.777   1.077  0.00  0.00    +0.000 A 
ATOM      3  C   UNL     1       0.869  -6.079   0.885  0.00  0.00    +0.000 A 
ATOM      4  C   UNL     1      -0.441  -6.276   0.461  0.00  0.00    +0.000 A 
ATOM      5  N   UNL     1      -1.281  -5.246   0.190  0.00  0.00    +0.000 NA
ATOM      6  C   UNL     1      -0.806  -3.993   0.373  0.00  0.00    +0.000 A 
ENDROOT
BRANCH   1   7
ATOM      7  C   UNL     1       0.954  -2.276   0.981  0.00  0.00    +0.000 C 
BRANCH   7   8
ATOM      8  N   UNL     1       0.169  -1.549   1.974  0.00  0.00    +0.000 NA
ATOM      9  H   UNL     1      -0.806  -1.522   1.668  0.00  0.00    +0.000 HD
BRANCH   8  10
ATOM     10  C   UNL     1       0.577  -0.128   2.127  0.00  0.00    +0.000 C 
BRANCH  10  11
ATOM     11  C   UNL     1      -0.427   0.598   3.031  0.00  0.00    +0.000 A 
ATOM     12  C   UNL     1      -0.549   0.265   4.382  0.00  0.00    +0.000 A 
ATOM     13  C   UNL     1      -1.491   0.918   5.169  0.00  0.00    +0.000 A 
ATOM     14  C   UNL     1      -2.315   1.867   4.586  0.00  0.00    +0.000 A 
ATOM     15  C   UNL     1      -2.161   2.122   3.234  0.00  0.00    +0.000 A 
ATOM     16  N   UNL     1      -1.243   1.515   2.445  0.00  0.00    +0.000 NA
ENDBRANCH  10  11
BRANCH  10  17
ATOM     17  C   UNL     1       2.053   0.090   2.599  0.00  0.00    +0.000 C 
BRANCH  17  18
ATOM     18  N   UNL     1       2.419  -0.531   3.878  0.00  0.00    +0.000 NA
ATOM     19  H   UNL     1       3.405  -0.378   4.075  0.00  0.00    +0.000 HD
ATOM     20  H   UNL     1       2.258  -1.537   3.820  0.00  0.00    +0.000 HD
ENDBRANCH  17  18
ENDBRANCH  10  17
ENDBRANCH   8  10
ENDBRANCH   7   8
ENDBRANCH   1   7
BRANCH   4  21
ATOM     21  C   UNL     1      -0.970  -7.674   0.263  0.00  0.00    +0.000 C 
BRANCH  21  22
ATOM     22  N   UNL     1      -0.790  -8.137  -1.092  0.00  0.00    +0.000 N 
ATOM     23  C   UNL     1       0.282  -8.891  -1.482  0.00  0.00    +0.000 C 
ATOM     24  O   UNL     1       1.171  -9.224  -0.703  0.00  0.00    +0.000 OA
ATOM     25  H   UNL     1      -1.343  -7.652  -1.791  0.00  0.00    +0.000 HD
BRANCH  23  26
ATOM     26  C   UNL     1       0.269  -9.347  -2.875  0.00  0.00    +0.000 A 
ATOM     27  C   UNL     1       0.945 -10.508  -3.227  0.00  0.00    +0.000 A 
ATOM     28  S   UNL     1       0.804 -10.906  -4.879  0.00  0.00    +0.000 S 
ATOM     29  C   UNL     1      -0.129  -9.519  -5.190  0.00  0.00    +0.000 A 
ATOM     30  N   UNL     1      -0.571  -9.239  -6.446  0.00  0.00    +0.000 NA
ATOM     31  C   UNL     1      -1.257  -8.150  -6.540  0.00  0.00    +0.000 A 
ATOM     32  N   UNL     1      -1.556  -7.322  -5.490  0.00  0.00    +0.000 N 
ATOM     33  C   UNL     1      -1.176  -7.593  -4.200  0.00  0.00    +0.000 A 
ATOM     34  O   UNL     1      -1.540  -6.875  -3.270  0.00  0.00    +0.000 OA
ATOM     35  C   UNL     1      -0.369  -8.789  -4.042  0.00  0.00    +0.000 A 
ATOM     36  H   UNL     1      -2.117  -6.494  -5.623  0.00  0.00    +0.000 HD
ENDBRANCH  23  26
ENDBRANCH  21  22
ENDBRANCH   4  21
TORSDOF 9
