REMARK  Name = 
REMARK  7 active torsions:
REMARK  status: ('A' for Active; 'I' for Inactive)
REMARK    1  A    between atoms: N_1  and  C_2
REMARK    2  A    between atoms: C_2  and  C_3
REMARK    3  A    between atoms: C_3  and  C_4
REMARK    4  A    between atoms: C_7  and  C_8
REMARK    5  A    between atoms: C_8  and  C_9
REMARK    6  A    between atoms: C_9  and  C_10
REMARK    7  A    between atoms: C_13  and  C_14
REMARK                            x       y       z     vdW  Elec       q    Type
REMARK                         _______ _______ _______ _____ _____    ______ ____
ROOT
ATOM      1  C   UNL     1       8.753  -1.033  -1.070  0.00  0.00    +0.000 C 
ENDROOT
BRANCH   1   5
ATOM      2  C   UNL     1       4.477  -0.964  -0.926  0.00  0.00    +0.000 A 
ATOM      3  C   UNL     1       5.125   0.078  -1.578  0.00  0.00    +0.000 A 
ATOM      4  C   UNL     1       6.517   0.078  -1.634  0.00  0.00    +0.000 A 
ATOM      5  C   UNL     1       7.246  -0.946  -1.024  0.00  0.00    +0.000 A 
ATOM      6  C   UNL     1       6.505  -1.950  -0.405  0.00  0.00    +0.000 A 
ATOM      7  N   UNL     1       5.153  -1.976  -0.333  0.00  0.00    +0.000 NA
BRANCH   2   8
ATOM      8  C   UNL     1       2.972  -0.992  -0.843  0.00  0.00    +0.000 C 
BRANCH   8   9
ATOM      9  C   UNL     1       2.470  -0.245   0.394  0.00  0.00    +0.000 C 
BRANCH   9  10
ATOM     10  N   UNL     1       1.007  -0.253   0.460  0.00  0.00    +0.000 NA
ATOM     11  H   UNL     1       0.710   0.223   1.312  0.00  0.00    +0.000 HD
ATOM     12  H   UNL     1       0.682  -1.216   0.552  0.00  0.00    +0.000 HD
ENDBRANCH   9  10
ENDBRANCH   8   9
ENDBRANCH   2   8
ENDBRANCH   1   5
BRANCH   1  13
ATOM     13  C   UNL     1       9.471   0.323  -1.086  0.00  0.00    +0.000 C 
BRANCH  13  14
ATOM     14  C   UNL     1      10.971   0.198  -1.058  0.00  0.00    +0.000 A 
ATOM     15  C   UNL     1      11.673   0.167   0.149  0.00  0.00    +0.000 A 
ATOM     16  C   UNL     1      13.063   0.086   0.136  0.00  0.00    +0.000 A 
ATOM     17  C   UNL     1      13.705   0.028  -1.093  0.00  0.00    +0.000 A 
ATOM     18  N   UNL     1      13.056   0.041  -2.292  0.00  0.00    +0.000 NA
ATOM     19  C   UNL     1      11.708   0.124  -2.239  0.00  0.00    +0.000 A 
BRANCH  17  20
ATOM     20  C   UNL     1      15.200  -0.048  -1.147  0.00  0.00    +0.000 C 
ATOM     21  N   UNL     1      15.739  -0.092  -2.404  0.00  0.00    +0.000 N 
ATOM     22  O   UNL     1      15.900  -0.070  -0.142  0.00  0.00    +0.000 OA
ATOM     23  H   UNL     1      15.124  -0.070  -3.210  0.00  0.00    +0.000 HD
ATOM     24  H   UNL     1      16.740  -0.145  -2.519  0.00  0.00    +0.000 HD
ENDBRANCH  17  20
ENDBRANCH  13  14
ENDBRANCH   1  13
TORSDOF 7
