REMARK  Name = 
REMARK  5 active torsions:
REMARK  status: ('A' for Active; 'I' for Inactive)
REMARK    1  A    between atoms: C_2  and  C_4
REMARK    2  A    between atoms: C_7  and  N_8
REMARK    3  A    between atoms: N_8  and  C_9
REMARK    4  A    between atoms: C_9  and  C_10
REMARK    5  A    between atoms: C_14  and  C_15
REMARK                            x       y       z     vdW  Elec       q    Type
REMARK                         _______ _______ _______ _____ _____    ______ ____
ROOT
ATOM      1  C   UNL     1       4.933  -3.972  -4.667  0.00  0.00    +0.000 C 
ENDROOT
BRANCH   1   2
ATOM      2  C   UNL     1       5.760  -5.131  -5.150  0.00  0.00    +0.000 A 
ATOM      3  C   UNL     1       5.177  -6.351  -5.456  0.00  0.00    +0.000 A 
ATOM      4  N   UNL     1       5.851  -7.391  -5.987  0.00  0.00    +0.000 NA
ATOM      5  C   UNL     1       7.174  -7.203  -6.225  0.00  0.00    +0.000 A 
ATOM      6  C   UNL     1       7.891  -6.035  -5.950  0.00  0.00    +0.000 A 
ATOM      7  C   UNL     1       7.136  -4.989  -5.399  0.00  0.00    +0.000 A 
BRANCH   6   8
ATOM      8  C   UNL     1       9.342  -5.912  -6.214  0.00  0.00    +0.000 A 
ATOM      9  C   UNL     1       9.925  -4.686  -6.596  0.00  0.00    +0.000 A 
ATOM     10  C   UNL     1      11.305  -4.563  -6.813  0.00  0.00    +0.000 A 
ATOM     11  C   UNL     1      12.132  -5.670  -6.664  0.00  0.00    +0.000 A 
ATOM     12  C   UNL     1      11.574  -6.886  -6.304  0.00  0.00    +0.000 A 
ATOM     13  F   UNL     1      12.364  -7.958  -6.162  0.00  0.00    +0.000 F 
ATOM     14  C   UNL     1      10.204  -7.014  -6.079  0.00  0.00    +0.000 A 
ENDBRANCH   6   8
ENDBRANCH   1   2
BRANCH   1  15
ATOM     15  N   UNL     1       5.473  -3.457  -3.423  0.00  0.00    +0.000 N 
ATOM     16  H   UNL     1       5.485  -4.131  -2.661  0.00  0.00    +0.000 HD
BRANCH  15  20
ATOM     17  C   UNL     1       5.111   0.555  -2.170  0.00  0.00    +0.000 A 
ATOM     18  C   UNL     1       4.539   0.159  -3.380  0.00  0.00    +0.000 A 
ATOM     19  C   UNL     1       4.617  -1.178  -3.788  0.00  0.00    +0.000 A 
ATOM     20  C   UNL     1       5.249  -2.146  -3.002  0.00  0.00    +0.000 A 
ATOM     21  C   UNL     1       5.833  -1.727  -1.798  0.00  0.00    +0.000 A 
ATOM     22  C   UNL     1       5.768  -0.392  -1.381  0.00  0.00    +0.000 A 
BRANCH  17  24
ATOM     23  N   UNL     1       4.028   2.732  -2.154  0.00  0.00    +0.000 N 
ATOM     24  C   UNL     1       5.077   1.968  -1.719  0.00  0.00    +0.000 C 
ATOM     25  O   UNL     1       5.925   2.427  -0.967  0.00  0.00    +0.000 OA
ATOM     26  H   UNL     1       3.957   3.662  -1.759  0.00  0.00    +0.000 HD
ATOM     27  H   UNL     1       3.197   2.330  -2.560  0.00  0.00    +0.000 HD
ENDBRANCH  17  24
ENDBRANCH  15  20
ENDBRANCH   1  15
TORSDOF 5
