REMARK  Name = 
REMARK  7 active torsions:
REMARK  status: ('A' for Active; 'I' for Inactive)
REMARK    1  A    between atoms: C_1  and  C_2
REMARK    2  A    between atoms: C_5  and  O_6
REMARK    3  A    between atoms: O_6  and  C_7
REMARK    4  A    between atoms: C_9  and  C_10
REMARK    5  A    between atoms: C_10  and  C_11
REMARK    6  A    between atoms: C_11  and  N_12
REMARK    7  A    between atoms: C_16  and  C_17
REMARK                            x       y       z     vdW  Elec       q    Type
REMARK                         _______ _______ _______ _____ _____    ______ ____
ROOT
ATOM      1  C   UNL     1      -1.939   3.186  -0.300  0.00  0.00    +0.000 C 
ENDROOT
BRANCH   1   4
ATOM      2  C   UNL     1       1.105   2.457   1.884  0.00  0.00    +0.000 A 
ATOM      3  C   UNL     1       0.028   2.316   1.000  0.00  0.00    +0.000 A 
ATOM      4  C   UNL     1      -0.836   3.385   0.715  0.00  0.00    +0.000 A 
ATOM      5  C   UNL     1      -0.619   4.611   1.352  0.00  0.00    +0.000 A 
ATOM      6  C   UNL     1       0.463   4.758   2.224  0.00  0.00    +0.000 A 
ATOM      7  F   UNL     1       0.661   5.945   2.815  0.00  0.00    +0.000 F 
ATOM      8  C   UNL     1       1.330   3.697   2.478  0.00  0.00    +0.000 A 
ATOM      9  F   UNL     1       2.371   3.876   3.305  0.00  0.00    +0.000 F 
BRANCH   2  10
ATOM     10  O   UNL     1       1.971   1.423   2.177  0.00  0.00    +0.000 OA
BRANCH  10  15
ATOM     11  C   UNL     1       3.663  -0.926   3.159  0.00  0.00    +0.000 C 
ATOM     12  C   UNL     1       2.374  -1.121   2.397  0.00  0.00    +0.000 C 
ATOM     13  O   UNL     1       2.627  -1.393   0.990  0.00  0.00    +0.000 OA
ATOM     14  C   UNL     1       1.503  -0.558   0.629  0.00  0.00    +0.000 C 
ATOM     15  C   UNL     1       1.457   0.072   2.036  0.00  0.00    +0.000 C 
ENDBRANCH  10  15
ENDBRANCH   2  10
ENDBRANCH   1   4
BRANCH   1  16
ATOM     16  C   UNL     1      -3.346   3.279   0.293  0.00  0.00    +0.000 C 
BRANCH  16  17
ATOM     17  N   UNL     1      -4.346   2.971  -0.738  0.00  0.00    +0.000 N 
ATOM     18  C   UNL     1      -5.670   3.071  -0.271  0.00  0.00    +0.000 A 
ATOM     19  C   UNL     1      -6.742   2.815  -1.135  0.00  0.00    +0.000 A 
ATOM     20  N   UNL     1      -8.053   2.903  -0.774  0.00  0.00    +0.000 NA
ATOM     21  C   UNL     1      -8.250   3.282   0.518  0.00  0.00    +0.000 A 
ATOM     22  C   UNL     1      -7.204   3.547   1.382  0.00  0.00    +0.000 A 
ATOM     23  N   UNL     1      -5.905   3.449   1.003  0.00  0.00    +0.000 NA
ATOM     24  H   UNL     1      -4.212   2.048  -1.146  0.00  0.00    +0.000 HD
BRANCH  21  25
ATOM     25  C   UNL     1      -9.648   3.419   1.006  0.00  0.00    +0.000 C 
ATOM     26  N   UNL     1     -10.630   3.174   0.086  0.00  0.00    +0.000 N 
ATOM     27  O   UNL     1      -9.909   3.733   2.160  0.00  0.00    +0.000 OA
ATOM     28  H   UNL     1     -10.386   2.930  -0.867  0.00  0.00    +0.000 HD
ATOM     29  H   UNL     1     -11.598   3.264   0.359  0.00  0.00    +0.000 HD
ENDBRANCH  21  25
ENDBRANCH  16  17
ENDBRANCH   1  16
TORSDOF 6
