REMARK  Name = 
REMARK  8 active torsions:
REMARK  status: ('A' for Active; 'I' for Inactive)
REMARK    1  A    between atoms: C_1  and  C_2
REMARK    2  A    between atoms: C_2  and  C_3
REMARK    3  A    between atoms: C_7  and  C_8
REMARK    4  A    between atoms: C_8  and  C_9
REMARK    5  A    between atoms: C_9  and  N_10
REMARK    6  A    between atoms: C_14  and  C_15
REMARK    7  A    between atoms: N_23  and  C_24
REMARK    8  A    between atoms: C_24  and  C_25
REMARK                            x       y       z     vdW  Elec       q    Type
REMARK                         _______ _______ _______ _____ _____    ______ ____
ROOT
ATOM      1  C   UNL     1      -1.237   0.016   1.939  0.00  0.00    +0.000 A 
ATOM      2  C   UNL     1      -1.832  -1.055   2.622  0.00  0.00    +0.000 A 
ATOM      3  C   UNL     1      -1.744  -1.160   4.015  0.00  0.00    +0.000 A 
ATOM      4  C   UNL     1      -1.012  -0.226   4.751  0.00  0.00    +0.000 A 
ATOM      5  C   UNL     1      -0.421   0.861   4.107  0.00  0.00    +0.000 A 
ATOM      6  C   UNL     1      -0.632   1.002   2.725  0.00  0.00    +0.000 A 
ENDROOT
BRANCH   1   8
ATOM      7  C   UNL     1      -2.584   0.028  -0.182  0.00  0.00    +0.000 C 
ATOM      8  C   UNL     1      -1.152   0.052   0.396  0.00  0.00    +0.000 C 
ATOM      9  C   UNL     1      -0.379  -1.201  -0.102  0.00  0.00    +0.000 C 
ATOM     10  C   UNL     1       1.123  -1.102   0.185  0.00  0.00    +0.000 C 
ATOM     11  N   UNL     1       1.767   0.062  -0.436  0.00  0.00    +0.000 NA
ATOM     12  C   UNL     1       1.103   1.302  -0.022  0.00  0.00    +0.000 C 
ATOM     13  C   UNL     1      -0.426   1.298  -0.209  0.00  0.00    +0.000 C 
BRANCH  11  14
ATOM     14  C   UNL     1       1.897  -0.021  -1.911  0.00  0.00    +0.000 C 
BRANCH  14  15
ATOM     15  C   UNL     1       2.700  -1.184  -2.538  0.00  0.00    +0.000 C 
ATOM     16  F   UNL     1       3.306  -1.979  -1.631  0.00  0.00    +0.000 F 
ATOM     17  F   UNL     1       1.885  -1.968  -3.284  0.00  0.00    +0.000 F 
ATOM     18  F   UNL     1       3.664  -0.710  -3.363  0.00  0.00    +0.000 F 
ENDBRANCH  14  15
ENDBRANCH  11  14
ENDBRANCH   1   8
BRANCH   5  19
ATOM     19  C   UNL     1       0.503   1.802   4.870  0.00  0.00    +0.000 C 
BRANCH  19  20
ATOM     20  C   UNL     1       1.134   2.889   3.986  0.00  0.00    +0.000 C 
BRANCH  20  21
ATOM     21  N   UNL     1       2.087   3.749   4.686  0.00  0.00    +0.000 N 
ATOM     22  C   UNL     1       2.616   4.724   3.804  0.00  0.00    +0.000 A 
ATOM     23  C   UNL     1       3.555   5.625   4.303  0.00  0.00    +0.000 A 
ATOM     24  C   UNL     1       4.082   6.611   3.461  0.00  0.00    +0.000 A 
ATOM     25  C   UNL     1       3.658   6.677   2.135  0.00  0.00    +0.000 A 
ATOM     26  C   UNL     1       2.731   5.740   1.711  0.00  0.00    +0.000 A 
ATOM     27  N   UNL     1       2.201   4.787   2.518  0.00  0.00    +0.000 NA
ATOM     28  H   UNL     1       2.867   3.216   5.063  0.00  0.00    +0.000 HD
BRANCH  25  29
ATOM     29  C   UNL     1       4.151   7.673   1.160  0.00  0.00    +0.000 C 
ATOM     30  N   UNL     1       4.635   8.850   1.660  0.00  0.00    +0.000 N 
ATOM     31  O   UNL     1       4.100   7.470  -0.045  0.00  0.00    +0.000 OA
ATOM     32  H   UNL     1       4.467   9.153   2.608  0.00  0.00    +0.000 HD
ATOM     33  H   UNL     1       4.876   9.560   0.979  0.00  0.00    +0.000 HD
ENDBRANCH  25  29
ENDBRANCH  20  21
ENDBRANCH  19  20
ENDBRANCH   5  19
TORSDOF 7
