REMARK  Name = 
REMARK  7 active torsions:
REMARK  status: ('A' for Active; 'I' for Inactive)
REMARK    1  A    between atoms: C_1  and  O_2
REMARK    2  A    between atoms: O_2  and  C_3
REMARK    3  A    between atoms: C_6  and  C_7
REMARK    4  A    between atoms: C_7  and  C_8
REMARK    5  A    between atoms: C_7  and  N_9
REMARK    6  A    between atoms: N_9  and  C_10
REMARK    7  A    between atoms: C_13  and  C_14
REMARK                            x       y       z     vdW  Elec       q    Type
REMARK                         _______ _______ _______ _____ _____    ______ ____
ROOT
ATOM      1  N   UNL     1       4.137   5.532  -2.578  0.00  0.00    +0.000 N 
ATOM      2  H   UNL     1       3.553   5.491  -1.741  0.00  0.00    +0.000 HD
ENDROOT
BRANCH   1   3
ATOM      3  C   UNL     1       4.735   6.781  -2.717  0.00  0.00    +0.000 A 
ATOM      4  C   UNL     1       5.830   7.085  -3.510  0.00  0.00    +0.000 A 
ATOM      5  N   UNL     1       6.336   8.326  -3.704  0.00  0.00    +0.000 NA
ATOM      6  C   UNL     1       5.678   9.328  -3.074  0.00  0.00    +0.000 A 
ATOM      7  N   UNL     1       4.592   9.180  -2.299  0.00  0.00    +0.000 NA
ATOM      8  C   UNL     1       4.147   7.913  -2.161  0.00  0.00    +0.000 A 
BRANCH   6   9
ATOM      9  C   UNL     1       6.211  10.726  -3.289  0.00  0.00    +0.000 C 
ATOM     10  N   UNL     1       7.296  10.823  -4.131  0.00  0.00    +0.000 N 
ATOM     11  O   UNL     1       5.737  11.731  -2.771  0.00  0.00    +0.000 OA
ATOM     12  H   UNL     1       7.672   9.993  -4.574  0.00  0.00    +0.000 HD
ATOM     13  H   UNL     1       7.681  11.735  -4.331  0.00  0.00    +0.000 HD
ENDBRANCH   6   9
ENDBRANCH   1   3
BRANCH   1  14
ATOM     14  C   UNL     1       4.870   4.274  -2.775  0.00  0.00    +0.000 C 
ATOM     15  C   UNL     1       4.859   3.842  -4.243  0.00  0.00    +0.000 C 
BRANCH  14  19
ATOM     16  C   UNL     1       2.964   1.315  -0.218  0.00  0.00    +0.000 A 
ATOM     17  C   UNL     1       4.302   1.660  -0.027  0.00  0.00    +0.000 A 
ATOM     18  C   UNL     1       4.917   2.600  -0.864  0.00  0.00    +0.000 A 
ATOM     19  C   UNL     1       4.206   3.208  -1.908  0.00  0.00    +0.000 A 
ATOM     20  C   UNL     1       2.865   2.838  -2.104  0.00  0.00    +0.000 A 
ATOM     21  C   UNL     1       2.254   1.901  -1.266  0.00  0.00    +0.000 A 
BRANCH  16  23
ATOM     22  C   UNL     1       2.909  -0.138   1.661  0.00  0.00    +0.000 C 
ATOM     23  O   UNL     1       2.244   0.435   0.542  0.00  0.00    +0.000 OA
ENDBRANCH  16  23
ENDBRANCH  14  19
ENDBRANCH   1  14
TORSDOF 5
