REMARK  Name = 
REMARK  5 active torsions:
REMARK  status: ('A' for Active; 'I' for Inactive)
REMARK    1  A    between atoms: C_1  and  O_2
REMARK    2  A    between atoms: O_2  and  C_3
REMARK    3  A    between atoms: C_7  and  C_8
REMARK    4  A    between atoms: C_8  and  N_9
REMARK    5  A    between atoms: C_14  and  C_15
REMARK                            x       y       z     vdW  Elec       q    Type
REMARK                         _______ _______ _______ _____ _____    ______ ____
ROOT
ATOM      1  N   UNL     1       6.414   0.929  -4.660  0.00  0.00    +0.000 N 
ATOM      2  C   UNL     1       6.494   0.419  -5.932  0.00  0.00    +0.000 A 
ATOM      3  C   UNL     1       7.084   1.370  -6.732  0.00  0.00    +0.000 A 
ATOM      4  C   UNL     1       7.380   2.498  -5.919  0.00  0.00    +0.000 A 
ATOM      5  C   UNL     1       7.958   3.758  -6.181  0.00  0.00    +0.000 A 
ATOM      6  C   UNL     1       8.110   4.686  -5.139  0.00  0.00    +0.000 A 
ATOM      7  C   UNL     1       7.708   4.342  -3.843  0.00  0.00    +0.000 A 
ATOM      8  C   UNL     1       7.143   3.095  -3.557  0.00  0.00    +0.000 A 
ATOM      9  C   UNL     1       6.977   2.192  -4.617  0.00  0.00    +0.000 A 
ENDROOT
BRANCH   6  10
ATOM     10  C   UNL     1       8.677   6.051  -5.346  0.00  0.00    +0.000 C 
ATOM     11  N   UNL     1       9.084   6.412  -6.599  0.00  0.00    +0.000 N 
ATOM     12  O   UNL     1       8.777   6.849  -4.421  0.00  0.00    +0.000 OA
ATOM     13  H   UNL     1       9.046   5.827  -7.418  0.00  0.00    +0.000 HD
ATOM     14  H   UNL     1       9.457   7.346  -6.702  0.00  0.00    +0.000 HD
ENDBRANCH   6  10
BRANCH   1  15
ATOM     15  C   UNL     1       5.862   0.209  -3.521  0.00  0.00    +0.000 C 
BRANCH  15  20
ATOM     16  C   UNL     1       2.438  -0.457  -2.394  0.00  0.00    +0.000 A 
ATOM     17  C   UNL     1       1.733   0.713  -2.599  0.00  0.00    +0.000 A 
ATOM     18  C   UNL     1       2.393   1.776  -3.201  0.00  0.00    +0.000 A 
ATOM     19  C   UNL     1       3.735   1.634  -3.557  0.00  0.00    +0.000 A 
ATOM     20  C   UNL     1       4.384   0.425  -3.303  0.00  0.00    +0.000 A 
ATOM     21  N   UNL     1       3.737  -0.617  -2.724  0.00  0.00    +0.000 NA
BRANCH  16  23
ATOM     22  C   UNL     1       2.535  -2.687  -1.715  0.00  0.00    +0.000 C 
ATOM     23  O   UNL     1       1.756  -1.496  -1.794  0.00  0.00    +0.000 OA
ENDBRANCH  16  23
ENDBRANCH  15  20
ENDBRANCH   1  15
TORSDOF 4
