REMARK  Name = 
REMARK  8 active torsions:
REMARK  status: ('A' for Active; 'I' for Inactive)
REMARK    1  A    between atoms: C_1  and  O_2
REMARK    2  A    between atoms: O_2  and  C_3
REMARK    3  A    between atoms: C_5  and  C_6
REMARK    4  A    between atoms: C_14  and  C_15
REMARK    5  A    between atoms: C_15  and  C_16
REMARK    6  A    between atoms: C_16  and  N_17
REMARK    7  A    between atoms: N_17  and  C_18
REMARK    8  A    between atoms: C_21  and  C_22
REMARK                            x       y       z     vdW  Elec       q    Type
REMARK                         _______ _______ _______ _____ _____    ______ ____
ROOT
ATOM      1  C   UNL     1       6.232  -2.761   0.529  0.00  0.00    +0.000 C 
ATOM      2  C   UNL     1       7.528  -2.595  -0.267  0.00  0.00    +0.000 C 
ATOM      3  C   UNL     1       7.100  -3.961   0.184  0.00  0.00    +0.000 C 
ENDROOT
BRANCH   1   8
ATOM      4  C   UNL     1       2.623  -1.561  -0.318  0.00  0.00    +0.000 A 
ATOM      5  C   UNL     1       2.502  -1.921  -1.654  0.00  0.00    +0.000 A 
ATOM      6  C   UNL     1       3.563  -2.545  -2.332  0.00  0.00    +0.000 A 
ATOM      7  C   UNL     1       4.738  -2.824  -1.600  0.00  0.00    +0.000 A 
ATOM      8  C   UNL     1       4.908  -2.491  -0.240  0.00  0.00    +0.000 A 
ATOM      9  C   UNL     1       3.810  -1.847   0.362  0.00  0.00    +0.000 A 
BRANCH   6  10
ATOM     10  C   UNL     1       3.459  -2.871  -3.772  0.00  0.00    +0.000 A 
ATOM     11  C   UNL     1       2.772  -2.029  -4.662  0.00  0.00    +0.000 A 
ATOM     12  C   UNL     1       2.692  -2.368  -6.006  0.00  0.00    +0.000 A 
ATOM     13  N   UNL     1       3.255  -3.471  -6.532  0.00  0.00    +0.000 NA
ATOM     14  C   UNL     1       3.920  -4.264  -5.671  0.00  0.00    +0.000 A 
ATOM     15 CL   UNL     1       4.638  -5.649  -6.385  0.00  0.00    +0.000 Cl
ATOM     16  C   UNL     1       4.047  -4.022  -4.313  0.00  0.00    +0.000 A 
ENDBRANCH   6  10
BRANCH   4  18
ATOM     17  C   UNL     1       0.490  -0.510  -0.217  0.00  0.00    +0.000 C 
ATOM     18  O   UNL     1       1.679  -0.926   0.440  0.00  0.00    +0.000 OA
ENDBRANCH   4  18
ENDBRANCH   1   8
BRANCH   1  19
ATOM     19  C   UNL     1       6.341  -2.206   1.944  0.00  0.00    +0.000 C 
BRANCH  19  20
ATOM     20  N   UNL     1       5.358  -2.766   2.876  0.00  0.00    +0.000 N 
ATOM     21  H   UNL     1       5.362  -3.784   2.891  0.00  0.00    +0.000 HD
BRANCH  20  22
ATOM     22  C   UNL     1       5.372  -2.180   4.150  0.00  0.00    +0.000 A 
ATOM     23  C   UNL     1       5.645  -0.836   4.376  0.00  0.00    +0.000 A 
ATOM     24  N   UNL     1       5.703  -0.242   5.579  0.00  0.00    +0.000 NA
ATOM     25  C   UNL     1       5.406  -1.042   6.625  0.00  0.00    +0.000 A 
ATOM     26  N   UNL     1       5.028  -2.334   6.547  0.00  0.00    +0.000 NA
ATOM     27  C   UNL     1       4.998  -2.858   5.300  0.00  0.00    +0.000 A 
BRANCH  25  28
ATOM     28  C   UNL     1       5.553  -0.390   7.975  0.00  0.00    +0.000 C 
ATOM     29  N   UNL     1       5.967   0.922   7.946  0.00  0.00    +0.000 N 
ATOM     30  O   UNL     1       5.336  -0.951   9.036  0.00  0.00    +0.000 OA
ATOM     31  H   UNL     1       6.133   1.377   7.055  0.00  0.00    +0.000 HD
ATOM     32  H   UNL     1       6.081   1.430   8.810  0.00  0.00    +0.000 HD
ENDBRANCH  25  28
ENDBRANCH  20  22
ENDBRANCH  19  20
ENDBRANCH   1  19
TORSDOF 7
