REMARK  Name = 
REMARK  6 active torsions:
REMARK  status: ('A' for Active; 'I' for Inactive)
REMARK    1  A    between atoms: C_1  and  C_2
REMARK    2  A    between atoms: C_4  and  C_5
REMARK    3  A    between atoms: C_10  and  C_11
REMARK    4  A    between atoms: C_11  and  N_12
REMARK    5  A    between atoms: N_12  and  C_13
REMARK    6  A    between atoms: C_16  and  C_17
REMARK                            x       y       z     vdW  Elec       q    Type
REMARK                         _______ _______ _______ _____ _____    ______ ____
ROOT
ATOM      1  C   UNL     1       0.853  -2.454  -0.085  0.00  0.00    +0.000 C 
ATOM      2  C   UNL     1       1.492  -3.236   1.048  0.00  0.00    +0.000 C 
ATOM      3  C   UNL     1       2.334  -2.807  -0.099  0.00  0.00    +0.000 C 
ENDROOT
BRANCH   1  10
ATOM      4  C   UNL     1       1.691   0.219  -1.368  0.00  0.00    +0.000 C 
ATOM      5  C   UNL     1       0.562   0.116  -0.379  0.00  0.00    +0.000 A 
ATOM      6  C   UNL     1      -0.259   1.243  -0.168  0.00  0.00    +0.000 A 
ATOM      7  C   UNL     1      -1.350   1.205   0.714  0.00  0.00    +0.000 A 
ATOM      8  C   UNL     1      -1.564   0.056   1.464  0.00  0.00    +0.000 A 
ATOM      9  C   UNL     1      -0.752  -1.062   1.263  0.00  0.00    +0.000 A 
ATOM     10  C   UNL     1       0.277  -1.091   0.295  0.00  0.00    +0.000 A 
BRANCH   7  11
ATOM     11  C   UNL     1      -2.258   2.385   0.773  0.00  0.00    +0.000 C 
ATOM     12  N   UNL     1      -3.379   2.311   1.555  0.00  0.00    +0.000 N 
ATOM     13  O   UNL     1      -2.036   3.396   0.119  0.00  0.00    +0.000 OA
ATOM     14  H   UNL     1      -3.685   1.497   2.063  0.00  0.00    +0.000 HD
ATOM     15  H   UNL     1      -4.004   3.107   1.524  0.00  0.00    +0.000 HD
ENDBRANCH   7  11
ENDBRANCH   1  10
BRANCH   1  16
ATOM     16  N   UNL     1       0.181  -3.021  -1.264  0.00  0.00    +0.000 N 
ATOM     17  H   UNL     1       0.328  -2.471  -2.106  0.00  0.00    +0.000 HD
BRANCH  16  18
ATOM     18  C   UNL     1      -1.049  -3.699  -1.321  0.00  0.00    +0.000 A 
ATOM     19  C   UNL     1      -1.752  -4.179  -0.218  0.00  0.00    +0.000 A 
ATOM     20  C   UNL     1      -2.875  -5.003  -0.393  0.00  0.00    +0.000 A 
ATOM     21  C   UNL     1      -3.287  -5.383  -1.677  0.00  0.00    +0.000 A 
ATOM     22  C   UNL     1      -2.598  -4.897  -2.785  0.00  0.00    +0.000 A 
ATOM     23  C   UNL     1      -1.499  -4.060  -2.603  0.00  0.00    +0.000 A 
BRANCH  21  24
ATOM     24  C   UNL     1      -4.378  -6.383  -1.820  0.00  0.00    +0.000 C 
ATOM     25  N   UNL     1      -5.010  -6.466  -3.030  0.00  0.00    +0.000 N 
ATOM     26  O   UNL     1      -4.705  -7.108  -0.892  0.00  0.00    +0.000 OA
ATOM     27  H   UNL     1      -4.921  -5.774  -3.758  0.00  0.00    +0.000 HD
ATOM     28  H   UNL     1      -5.759  -7.142  -3.106  0.00  0.00    +0.000 HD
ENDBRANCH  21  24
ENDBRANCH  16  18
ENDBRANCH   1  16
TORSDOF 5
