REMARK  Name = 
REMARK  7 active torsions:
REMARK  status: ('A' for Active; 'I' for Inactive)
REMARK    1  A    between atoms: C_1  and  N_2
REMARK    2  A    between atoms: N_2  and  C_3
REMARK    3  A    between atoms: C_3  and  C_4
REMARK    4  A    between atoms: C_7  and  C_8
REMARK    5  A    between atoms: C_8  and  N_9
REMARK    6  A    between atoms: C_10  and  C_12
REMARK    7  A    between atoms: C_24  and  C_26
REMARK                            x       y       z     vdW  Elec       q    Type
REMARK                         _______ _______ _______ _____ _____    ______ ____
ROOT
ATOM      1  C   UNL     1       2.303  -1.635  -1.922  0.00  0.00    +0.000 A 
ATOM      2  C   UNL     1       2.465  -3.028  -1.986  0.00  0.00    +0.000 A 
ATOM      3  C   UNL     1       1.619  -3.806  -2.778  0.00  0.00    +0.000 A 
ATOM      4  C   UNL     1       0.608  -3.205  -3.537  0.00  0.00    +0.000 A 
ATOM      5  C   UNL     1       0.446  -1.814  -3.472  0.00  0.00    +0.000 A 
ATOM      6  C   UNL     1       1.290  -1.034  -2.677  0.00  0.00    +0.000 A 
ENDROOT
BRANCH   1   7
ATOM      7  C   UNL     1       3.193  -0.812  -1.027  0.00  0.00    +0.000 C 
BRANCH   7   9
ATOM      8  C   UNL     1       4.832  -0.552  -2.946  0.00  0.00    +0.000 C 
ATOM      9  N   UNL     1       4.388  -0.197  -1.602  0.00  0.00    +0.000 N 
ATOM     10  C   UNL     1       5.263   0.639  -0.871  0.00  0.00    +0.000 C 
ATOM     11  O   UNL     1       6.282   1.067  -1.422  0.00  0.00    +0.000 OA
BRANCH  10  12
ATOM     12  C   UNL     1       4.958   1.009   0.508  0.00  0.00    +0.000 A 
ATOM     13  C   UNL     1       4.405   0.325   1.578  0.00  0.00    +0.000 A 
ATOM     14  N   UNL     1       4.276   1.028   2.763  0.00  0.00    +0.000 NA
ATOM     15  C   UNL     1       4.794   2.224   2.609  0.00  0.00    +0.000 A 
ATOM     16  S   UNL     1       5.428   2.578   1.061  0.00  0.00    +0.000 S 
ENDBRANCH  10  12
ENDBRANCH   7   9
ENDBRANCH   1   7
BRANCH   4  17
ATOM     17  C   UNL     1      -0.336  -4.040  -4.359  0.00  0.00    +0.000 C 
BRANCH  17  18
ATOM     18  N   UNL     1      -1.493  -4.413  -3.585  0.00  0.00    +0.000 N 
ATOM     19  C   UNL     1      -2.449  -5.247  -4.098  0.00  0.00    +0.000 C 
ATOM     20  O   UNL     1      -2.344  -5.743  -5.218  0.00  0.00    +0.000 OA
ATOM     21  H   UNL     1      -1.700  -3.855  -2.762  0.00  0.00    +0.000 HD
BRANCH  19  22
ATOM     22  C   UNL     1      -3.580  -5.571  -3.220  0.00  0.00    +0.000 A 
ATOM     23  C   UNL     1      -4.321  -6.721  -3.458  0.00  0.00    +0.000 A 
ATOM     24  S   UNL     1      -5.562  -6.985  -2.320  0.00  0.00    +0.000 S 
ATOM     25  C   UNL     1      -5.187  -5.542  -1.497  0.00  0.00    +0.000 A 
ATOM     26  N   UNL     1      -5.906  -5.155  -0.410  0.00  0.00    +0.000 NA
ATOM     27  C   UNL     1      -5.537  -4.025   0.097  0.00  0.00    +0.000 A 
ATOM     28  N   UNL     1      -4.508  -3.254  -0.381  0.00  0.00    +0.000 N 
ATOM     29  C   UNL     1      -3.734  -3.620  -1.457  0.00  0.00    +0.000 A 
ATOM     30  O   UNL     1      -2.793  -2.929  -1.830  0.00  0.00    +0.000 OA
ATOM     31  C   UNL     1      -4.117  -4.877  -2.072  0.00  0.00    +0.000 A 
ATOM     32  H   UNL     1      -4.267  -2.383   0.068  0.00  0.00    +0.000 HD
ENDBRANCH  19  22
ENDBRANCH  17  18
ENDBRANCH   4  17
TORSDOF 6
