REMARK  Name = 
REMARK  9 active torsions:
REMARK  status: ('A' for Active; 'I' for Inactive)
REMARK    1  A    between atoms: C_1  and  O_2
REMARK    2  A    between atoms: O_2  and  C_3
REMARK    3  A    between atoms: C_8  and  N_9
REMARK    4  A    between atoms: N_9  and  C_10
REMARK    5  A    between atoms: N_9  and  C_11
REMARK    6  A    between atoms: C_11  and  C_12
REMARK    7  A    between atoms: C_15  and  C_16
REMARK    8  A    between atoms: C_16  and  N_17
REMARK    9  A    between atoms: C_18  and  C_20
REMARK                            x       y       z     vdW  Elec       q    Type
REMARK                         _______ _______ _______ _____ _____    ______ ____
ROOT
ATOM      1  C   UNL     1       4.205   2.342  -2.819  0.00  0.00    +0.000 A 
ATOM      2  C   UNL     1       3.920   3.705  -2.949  0.00  0.00    +0.000 A 
ATOM      3  C   UNL     1       4.331   4.416  -4.082  0.00  0.00    +0.000 A 
ATOM      4  C   UNL     1       5.062   3.779  -5.096  0.00  0.00    +0.000 A 
ATOM      5  C   UNL     1       5.407   2.432  -4.935  0.00  0.00    +0.000 A 
ATOM      6  C   UNL     1       4.977   1.719  -3.816  0.00  0.00    +0.000 A 
ENDROOT
BRANCH   1   7
ATOM      7  C   UNL     1       3.750   1.541  -1.609  0.00  0.00    +0.000 C 
BRANCH   7   8
ATOM      8  N   UNL     1       2.294   1.554  -1.337  0.00  0.00    +0.000 N 
ATOM      9  C   UNL     1       1.421   1.670  -2.516  0.00  0.00    +0.000 C 
BRANCH   8  15
ATOM     10  C   UNL     1       2.600  -0.020   0.634  0.00  0.00    +0.000 A 
ATOM     11  C   UNL     1       2.004  -0.740   1.691  0.00  0.00    +0.000 A 
ATOM     12  C   UNL     1       0.639  -0.656   1.943  0.00  0.00    +0.000 A 
ATOM     13  C   UNL     1      -0.143   0.168   1.157  0.00  0.00    +0.000 A 
ATOM     14  C   UNL     1       0.437   0.884   0.104  0.00  0.00    +0.000 A 
ATOM     15  C   UNL     1       1.811   0.799  -0.233  0.00  0.00    +0.000 A 
BRANCH  10  17
ATOM     16  C   UNL     1       4.689  -1.164   0.958  0.00  0.00    +0.000 C 
ATOM     17  O   UNL     1       3.965  -0.044   0.464  0.00  0.00    +0.000 OA
ENDBRANCH  10  17
ENDBRANCH   8  15
ENDBRANCH   7   8
ENDBRANCH   1   7
BRANCH   4  18
ATOM     18  C   UNL     1       5.523   4.536  -6.312  0.00  0.00    +0.000 C 
BRANCH  18  19
ATOM     19  N   UNL     1       6.810   5.138  -6.085  0.00  0.00    +0.000 N 
ATOM     20  C   UNL     1       7.400   5.940  -7.028  0.00  0.00    +0.000 C 
ATOM     21  O   UNL     1       6.846   6.214  -8.089  0.00  0.00    +0.000 OA
ATOM     22  H   UNL     1       7.376   4.743  -5.341  0.00  0.00    +0.000 HD
BRANCH  20  23
ATOM     23  C   UNL     1       8.704   6.511  -6.674  0.00  0.00    +0.000 A 
ATOM     24  C   UNL     1       9.133   7.679  -7.290  0.00  0.00    +0.000 A 
ATOM     25  S   UNL     1      10.641   8.238  -6.721  0.00  0.00    +0.000 S 
ATOM     26  C   UNL     1      10.799   6.908  -5.672  0.00  0.00    +0.000 A 
ATOM     27  N   UNL     1      11.904   6.761  -4.891  0.00  0.00    +0.000 NA
ATOM     28  C   UNL     1      11.905   5.696  -4.163  0.00  0.00    +0.000 A 
ATOM     29  N   UNL     1      10.900   4.763  -4.143  0.00  0.00    +0.000 N 
ATOM     30  C   UNL     1       9.757   4.879  -4.895  0.00  0.00    +0.000 A 
ATOM     31  O   UNL     1       8.862   4.044  -4.829  0.00  0.00    +0.000 OA
ATOM     32  C   UNL     1       9.711   6.059  -5.740  0.00  0.00    +0.000 A 
ATOM     33  H   UNL     1      10.960   3.952  -3.543  0.00  0.00    +0.000 HD
ENDBRANCH  20  23
ENDBRANCH  18  19
ENDBRANCH   4  18
TORSDOF 7
