REMARK  Name = 
REMARK  6 active torsions:
REMARK  status: ('A' for Active; 'I' for Inactive)
REMARK    1  A    between atoms: C_1  and  C_2
REMARK    2  A    between atoms: C_2  and  N_3
REMARK    3  A    between atoms: C_2  and  C_16
REMARK    4  A    between atoms: C_4  and  C_6
REMARK    5  A    between atoms: C_19  and  C_20
REMARK    6  A    between atoms: C_20  and  C_21
REMARK                            x       y       z     vdW  Elec       q    Type
REMARK                         _______ _______ _______ _____ _____    ______ ____
ROOT
ATOM      1  C   UNL     1       3.008  -1.612  -0.173  0.00  0.00    +0.000 C 
ATOM      2  C   UNL     1       2.553  -0.157  -0.025  0.00  0.00    +0.000 C 
ENDROOT
BRANCH   2   3
ATOM      3  C   UNL     1       3.021   0.771  -1.137  0.00  0.00    +0.000 A 
ATOM      4  C   UNL     1       3.255   2.121  -0.831  0.00  0.00    +0.000 A 
ATOM      5  C   UNL     1       3.640   3.033  -1.819  0.00  0.00    +0.000 A 
ATOM      6  C   UNL     1       3.805   2.620  -3.146  0.00  0.00    +0.000 A 
ATOM      7  C   UNL     1       3.582   1.270  -3.456  0.00  0.00    +0.000 A 
ATOM      8  C   UNL     1       3.180   0.362  -2.470  0.00  0.00    +0.000 A 
BRANCH   6   9
ATOM      9  C   UNL     1       4.242   3.598  -4.214  0.00  0.00    +0.000 C 
BRANCH   9  10
ATOM     10  C   UNL     1       5.742   3.680  -4.371  0.00  0.00    +0.000 A 
ATOM     11  C   UNL     1       6.416   2.843  -5.266  0.00  0.00    +0.000 A 
ATOM     12  C   UNL     1       7.802   2.881  -5.300  0.00  0.00    +0.000 A 
ATOM     13  N   UNL     1       8.551   3.699  -4.532  0.00  0.00    +0.000 NA
ATOM     14  C   UNL     1       7.882   4.516  -3.690  0.00  0.00    +0.000 A 
ATOM     15  C   UNL     1       6.500   4.546  -3.577  0.00  0.00    +0.000 A 
ENDBRANCH   9  10
ENDBRANCH   6   9
ENDBRANCH   2   3
BRANCH   2  16
ATOM     16  N   UNL     1       1.109  -0.072   0.092  0.00  0.00    +0.000 N 
ATOM     17  C   UNL     1       0.447  -0.297   1.273  0.00  0.00    +0.000 C 
ATOM     18  O   UNL     1       1.038  -0.519   2.328  0.00  0.00    +0.000 OA
ATOM     19  H   UNL     1       0.582  -0.019  -0.773  0.00  0.00    +0.000 HD
BRANCH  17  20
ATOM     20  C   UNL     1      -1.015  -0.204   1.224  0.00  0.00    +0.000 A 
ATOM     21  C   UNL     1      -1.723   0.202   2.346  0.00  0.00    +0.000 A 
ATOM     22  S   UNL     1      -3.412   0.241   2.109  0.00  0.00    +0.000 S 
ATOM     23  C   UNL     1      -3.257  -0.338   0.516  0.00  0.00    +0.000 A 
ATOM     24  N   UNL     1      -4.353  -0.580  -0.252  0.00  0.00    +0.000 NA
ATOM     25  C   UNL     1      -4.087  -1.054  -1.424  0.00  0.00    +0.000 A 
ATOM     26  N   UNL     1      -2.824  -1.292  -1.904  0.00  0.00    +0.000 N 
ATOM     27  C   UNL     1      -1.689  -1.002  -1.189  0.00  0.00    +0.000 A 
ATOM     28  O   UNL     1      -0.573  -1.123  -1.688  0.00  0.00    +0.000 OA
ATOM     29  C   UNL     1      -1.932  -0.513   0.157  0.00  0.00    +0.000 A 
ATOM     30  H   UNL     1      -2.687  -1.635  -2.842  0.00  0.00    +0.000 HD
ENDBRANCH  17  20
ENDBRANCH   2  16
TORSDOF 5
