REMARK  Name = 
REMARK  8 active torsions:
REMARK  status: ('A' for Active; 'I' for Inactive)
REMARK    1  A    between atoms: C_2  and  C_21
REMARK    2  A    between atoms: N_3  and  C_4
REMARK    3  A    between atoms: C_4  and  C_5
REMARK    4  A    between atoms: C_8  and  C_9
REMARK    5  A    between atoms: C_9  and  C_10
REMARK    6  A    between atoms: C_10  and  C_11
REMARK    7  A    between atoms: C_11  and  O_12
REMARK    8  A    between atoms: C_11  and  C_13
REMARK                            x       y       z     vdW  Elec       q    Type
REMARK                         _______ _______ _______ _____ _____    ______ ____
ROOT
ATOM      1  C   UNL     1       6.406 -11.640  -7.251  0.00  0.00    +0.000 A 
ATOM      2  C   UNL     1       6.772 -10.292  -7.349  0.00  0.00    +0.000 A 
ATOM      3  C   UNL     1       7.071  -9.550  -6.206  0.00  0.00    +0.000 A 
ATOM      4  C   UNL     1       7.033 -10.141  -4.937  0.00  0.00    +0.000 A 
ATOM      5  C   UNL     1       6.706 -11.501  -4.840  0.00  0.00    +0.000 A 
ATOM      6  C   UNL     1       6.403 -12.246  -5.987  0.00  0.00    +0.000 A 
ENDROOT
BRANCH   1   7
ATOM      7  C   UNL     1       6.067 -12.416  -8.495  0.00  0.00    +0.000 C 
BRANCH   7  10
ATOM      8  O   UNL     1       7.744 -11.453 -10.578  0.00  0.00    +0.000 OA
ATOM      9  C   UNL     1       8.014 -12.514 -10.022  0.00  0.00    +0.000 C 
ATOM     10  N   UNL     1       7.222 -13.068  -9.052  0.00  0.00    +0.000 N 
ATOM     11  H   UNL     1       7.588 -13.834  -8.498  0.00  0.00    +0.000 HD
BRANCH   9  12
ATOM     12  C   UNL     1       9.192 -13.305 -10.402  0.00  0.00    +0.000 A 
ATOM     13  C   UNL     1       9.754 -13.169 -11.665  0.00  0.00    +0.000 A 
ATOM     14  S   UNL     1      11.115 -14.176 -11.912  0.00  0.00    +0.000 S 
ATOM     15  C   UNL     1      11.016 -14.799 -10.335  0.00  0.00    +0.000 A 
ATOM     16  N   UNL     1      11.914 -15.713  -9.877  0.00  0.00    +0.000 NA
ATOM     17  C   UNL     1      11.741 -16.067  -8.648  0.00  0.00    +0.000 A 
ATOM     18  N   UNL     1      10.741 -15.597  -7.837  0.00  0.00    +0.000 N 
ATOM     19  C   UNL     1       9.761 -14.755  -8.280  0.00  0.00    +0.000 A 
ATOM     20  O   UNL     1       8.787 -14.500  -7.575  0.00  0.00    +0.000 OA
ATOM     21  C   UNL     1       9.941 -14.274  -9.634  0.00  0.00    +0.000 A 
ATOM     22  H   UNL     1      10.626 -15.957  -6.900  0.00  0.00    +0.000 HD
ENDBRANCH   9  12
ENDBRANCH   7  10
ENDBRANCH   1   7
BRANCH   4  23
ATOM     23  C   UNL     1       7.378  -9.340  -3.701  0.00  0.00    +0.000 C 
BRANCH  23  24
ATOM     24  C   UNL     1       6.454  -8.133  -3.492  0.00  0.00    +0.000 C 
BRANCH  24  25
ATOM     25  C   UNL     1       6.807  -7.337  -2.227  0.00  0.00    +0.000 C 
BRANCH  25  26
ATOM     26  C   UNL     1       5.839  -6.180  -2.025  0.00  0.00    +0.000 A 
ATOM     27  C   UNL     1       6.290  -4.860  -2.058  0.00  0.00    +0.000 A 
ATOM     28  C   UNL     1       5.372  -3.826  -1.878  0.00  0.00    +0.000 A 
ATOM     29  C   UNL     1       4.033  -4.132  -1.674  0.00  0.00    +0.000 A 
ATOM     30  C   UNL     1       3.665  -5.466  -1.657  0.00  0.00    +0.000 A 
ATOM     31  N   UNL     1       4.531  -6.493  -1.819  0.00  0.00    +0.000 NA
ENDBRANCH  25  26
BRANCH  25  32
ATOM     32  O   UNL     1       6.755  -8.211  -1.096  0.00  0.00    +0.000 OA
ATOM     33  H   UNL     1       5.814  -8.457  -1.008  0.00  0.00    +0.000 HD
ENDBRANCH  25  32
ENDBRANCH  24  25
ENDBRANCH  23  24
ENDBRANCH   4  23
TORSDOF 8
