REMARK  Name = 
REMARK  9 active torsions:
REMARK  status: ('A' for Active; 'I' for Inactive)
REMARK    1  A    between atoms: C_1  and  C_2
REMARK    2  A    between atoms: C_2  and  C_3
REMARK    3  A    between atoms: C_3  and  N_4
REMARK    4  A    between atoms: C_3  and  C_26
REMARK    5  A    between atoms: N_4  and  C_5
REMARK    6  A    between atoms: C_5  and  C_6
REMARK    7  A    between atoms: C_9  and  C_10
REMARK    8  A    between atoms: C_10  and  N_11
REMARK    9  A    between atoms: C_12  and  C_14
REMARK                            x       y       z     vdW  Elec       q    Type
REMARK                         _______ _______ _______ _____ _____    ______ ____
ROOT
ATOM      1  C   UNL     1       0.708   0.936   3.805  0.00  0.00    +0.000 A 
ATOM      2  C   UNL     1       0.647  -0.363   4.331  0.00  0.00    +0.000 A 
ATOM      3  C   UNL     1       0.237  -0.581   5.648  0.00  0.00    +0.000 A 
ATOM      4  C   UNL     1      -0.108   0.498   6.470  0.00  0.00    +0.000 A 
ATOM      5  C   UNL     1       0.012   1.799   5.968  0.00  0.00    +0.000 A 
ATOM      6  C   UNL     1       0.407   2.016   4.647  0.00  0.00    +0.000 A 
ENDROOT
BRANCH   1   7
ATOM      7  C   UNL     1       1.111   1.177   2.365  0.00  0.00    +0.000 C 
BRANCH   7   8
ATOM      8  N   UNL     1       0.201   0.492   1.443  0.00  0.00    +0.000 NA
ATOM      9  H   UNL     1       0.209  -0.502   1.650  0.00  0.00    +0.000 HD
BRANCH   8  10
ATOM     10  C   UNL     1       0.540   0.688   0.020  0.00  0.00    +0.000 C 
BRANCH  10  11
ATOM     11  C   UNL     1       0.453   2.154  -0.414  0.00  0.00    +0.000 A 
ATOM     12  C   UNL     1      -0.782   2.729  -0.710  0.00  0.00    +0.000 A 
ATOM     13  C   UNL     1      -0.823   4.072  -1.078  0.00  0.00    +0.000 A 
ATOM     14  C   UNL     1       0.356   4.808  -1.124  0.00  0.00    +0.000 A 
ATOM     15  C   UNL     1       1.536   4.169  -0.795  0.00  0.00    +0.000 A 
ATOM     16  N   UNL     1       1.609   2.871  -0.441  0.00  0.00    +0.000 NA
ENDBRANCH  10  11
BRANCH  10  18
ATOM     17  C   UNL     1       2.059  -1.408  -0.127  0.00  0.00    +0.000 C 
ATOM     18  C   UNL     1       1.887   0.073  -0.430  0.00  0.00    +0.000 C 
ENDBRANCH  10  18
ENDBRANCH   8  10
ENDBRANCH   7   8
ENDBRANCH   1   7
BRANCH   4  19
ATOM     19  C   UNL     1      -0.570   0.270   7.883  0.00  0.00    +0.000 C 
BRANCH  19  20
ATOM     20  N   UNL     1       0.542   0.245   8.796  0.00  0.00    +0.000 N 
ATOM     21  C   UNL     1       0.348  -0.022  10.125  0.00  0.00    +0.000 C 
ATOM     22  O   UNL     1      -0.760  -0.301  10.578  0.00  0.00    +0.000 OA
ATOM     23  H   UNL     1       1.407   0.679   8.488  0.00  0.00    +0.000 HD
BRANCH  21  24
ATOM     24  C   UNL     1       1.541  -0.019  10.977  0.00  0.00    +0.000 A 
ATOM     25  C   UNL     1       1.537  -0.748  12.158  0.00  0.00    +0.000 A 
ATOM     26  S   UNL     1       3.006  -0.661  13.019  0.00  0.00    +0.000 S 
ATOM     27  C   UNL     1       3.682   0.393  11.865  0.00  0.00    +0.000 A 
ATOM     28  N   UNL     1       4.941   0.890  12.023  0.00  0.00    +0.000 NA
ATOM     29  C   UNL     1       5.314   1.699  11.095  0.00  0.00    +0.000 A 
ATOM     30  N   UNL     1       4.551   2.053  10.012  0.00  0.00    +0.000 N 
ATOM     31  C   UNL     1       3.289   1.550   9.791  0.00  0.00    +0.000 A 
ATOM     32  O   UNL     1       2.652   1.845   8.784  0.00  0.00    +0.000 OA
ATOM     33  C   UNL     1       2.809   0.652  10.823  0.00  0.00    +0.000 A 
ATOM     34  H   UNL     1       4.909   2.682   9.307  0.00  0.00    +0.000 HD
ENDBRANCH  21  24
ENDBRANCH  19  20
ENDBRANCH   4  19
TORSDOF 8
