REMARK  Name = 
REMARK  8 active torsions:
REMARK  status: ('A' for Active; 'I' for Inactive)
REMARK    1  A    between atoms: C_1  and  C_2
REMARK    2  A    between atoms: C_2  and  C_3
REMARK    3  A    between atoms: C_2  and  C_5
REMARK    4  A    between atoms: C_2  and  C_16
REMARK    5  A    between atoms: C_5  and  O_6
REMARK    6  A    between atoms: O_6  and  C_7
REMARK    7  A    between atoms: C_10  and  C_11
REMARK    8  A    between atoms: C_20  and  C_21
REMARK                            x       y       z     vdW  Elec       q    Type
REMARK                         _______ _______ _______ _____ _____    ______ ____
ROOT
ATOM      1  C   UNL     1       2.950   1.332  -0.564  0.00  0.00    +0.000 C 
ATOM      2  C   UNL     1       2.510  -0.068  -0.073  0.00  0.00    +0.000 C 
ENDROOT
BRANCH   2   3
ATOM      3  C   UNL     1       3.022  -1.223  -0.952  0.00  0.00    +0.000 A 
ATOM      4  C   UNL     1       3.841  -1.018  -2.077  0.00  0.00    +0.000 A 
ATOM      5  C   UNL     1       4.276  -2.092  -2.857  0.00  0.00    +0.000 A 
ATOM      6  C   UNL     1       3.924  -3.396  -2.520  0.00  0.00    +0.000 A 
ATOM      7  C   UNL     1       3.129  -3.643  -1.397  0.00  0.00    +0.000 A 
ATOM      8  C   UNL     1       2.668  -2.552  -0.639  0.00  0.00    +0.000 A 
BRANCH   7   9
ATOM      9  C   UNL     1       2.791  -5.051  -0.971  0.00  0.00    +0.000 C 
ATOM     10  F   UNL     1       3.336  -6.008  -1.773  0.00  0.00    +0.000 F 
ATOM     11  F   UNL     1       3.234  -5.324   0.288  0.00  0.00    +0.000 F 
ATOM     12  F   UNL     1       1.451  -5.290  -0.956  0.00  0.00    +0.000 F 
ENDBRANCH   7   9
ENDBRANCH   2   3
BRANCH   2  13
ATOM     13  C   UNL     1       0.990  -0.068  -0.073  0.00  0.00    +0.000 C 
ATOM     14  N   UNL     1      -0.271  -0.068  -0.073  0.00  0.00    +0.000 NA
ENDBRANCH   2  13
BRANCH   2  15
ATOM     15  C   UNL     1       2.999  -0.249   1.390  0.00  0.00    +0.000 C 
BRANCH  15  16
ATOM     16  O   UNL     1       2.569   0.842   2.232  0.00  0.00    +0.000 OA
BRANCH  16  17
ATOM     17  C   UNL     1       2.918   0.660   3.551  0.00  0.00    +0.000 A 
ATOM     18  C   UNL     1       2.560   1.625   4.491  0.00  0.00    +0.000 A 
ATOM     19  N   UNL     1       2.848   1.518   5.818  0.00  0.00    +0.000 NA
ATOM     20  C   UNL     1       3.511   0.378   6.163  0.00  0.00    +0.000 A 
ATOM     21  C   UNL     1       3.872  -0.583   5.224  0.00  0.00    +0.000 A 
ATOM     22  N   UNL     1       3.590  -0.458   3.903  0.00  0.00    +0.000 NA
BRANCH  20  23
ATOM     23  C   UNL     1       3.849   0.151   7.598  0.00  0.00    +0.000 C 
ATOM     24  N   UNL     1       3.469   1.120   8.487  0.00  0.00    +0.000 N 
ATOM     25  O   UNL     1       4.436  -0.856   7.971  0.00  0.00    +0.000 OA
ATOM     26  H   UNL     1       2.972   1.951   8.184  0.00  0.00    +0.000 HD
ATOM     27  H   UNL     1       3.675   0.986   9.465  0.00  0.00    +0.000 HD
ENDBRANCH  20  23
ENDBRANCH  16  17
ENDBRANCH  15  16
ENDBRANCH   2  15
TORSDOF 7
