REMARK  Name = 
REMARK  6 active torsions:
REMARK  status: ('A' for Active; 'I' for Inactive)
REMARK    1  A    between atoms: C_2  and  C_4
REMARK    2  A    between atoms: N_8  and  C_9
REMARK    3  A    between atoms: C_9  and  C_10
REMARK    4  A    between atoms: C_10  and  C_11
REMARK    5  A    between atoms: C_15  and  O_16
REMARK    6  A    between atoms: O_16  and  C_17
REMARK                            x       y       z     vdW  Elec       q    Type
REMARK                         _______ _______ _______ _____ _____    ______ ____
ROOT
ATOM      1  C   UNL     1       2.985   1.062   0.992  0.00  0.00    +0.000 A 
ATOM      2  C   UNL     1       2.403   1.339   2.224  0.00  0.00    +0.000 A 
ATOM      3  C   UNL     1       3.195   1.866   3.243  0.00  0.00    +0.000 A 
ATOM      4  C   UNL     1       4.553   2.084   3.026  0.00  0.00    +0.000 A 
ATOM      5  N   UNL     1       5.383   2.676   3.967  0.00  0.00    +0.000 N 
ATOM      6  N   UNL     1       5.134   1.788   1.846  0.00  0.00    +0.000 NA
ATOM      7  C   UNL     1       4.346   1.281   0.858  0.00  0.00    +0.000 A 
ATOM      8  H   UNL     1       6.334   2.575   3.621  0.00  0.00    +0.000 HD
ENDROOT
BRANCH   1  10
ATOM      9  N   UNL     1       0.880   0.861  -0.201  0.00  0.00    +0.000 N 
ATOM     10  C   UNL     1       2.212   0.550  -0.158  0.00  0.00    +0.000 C 
ATOM     11  O   UNL     1       2.743  -0.091  -1.054  0.00  0.00    +0.000 OA
ATOM     12  H   UNL     1       0.385   0.600  -1.045  0.00  0.00    +0.000 HD
ATOM     13  H   UNL     1       0.470   1.583   0.372  0.00  0.00    +0.000 HD
ENDBRANCH   1  10
BRANCH   5  14
ATOM     14  C   UNL     1       5.178   2.358   5.375  0.00  0.00    +0.000 C 
BRANCH  14  15
ATOM     15  C   UNL     1       6.244   3.032   6.247  0.00  0.00    +0.000 C 
BRANCH  15  16
ATOM     16  C   UNL     1       5.960   2.820   7.716  0.00  0.00    +0.000 A 
ATOM     17  C   UNL     1       5.144   3.714   8.420  0.00  0.00    +0.000 A 
ATOM     18  C   UNL     1       4.847   3.489   9.766  0.00  0.00    +0.000 A 
ATOM     19  C   UNL     1       5.360   2.370  10.426  0.00  0.00    +0.000 A 
ATOM     20  C   UNL     1       6.172   1.475   9.735  0.00  0.00    +0.000 A 
ATOM     21  C   UNL     1       6.463   1.695   8.386  0.00  0.00    +0.000 A 
BRANCH  20  22
ATOM     22  O   UNL     1       6.697   0.325  10.270  0.00  0.00    +0.000 OA
BRANCH  22  23
ATOM     23  C   UNL     1       6.915   0.250  11.696  0.00  0.00    +0.000 C 
ATOM     24  C   UNL     1       8.017   1.158  12.288  0.00  0.00    +0.000 C 
ATOM     25  C   UNL     1       8.596  -0.052  13.031  0.00  0.00    +0.000 C 
ATOM     26  C   UNL     1       7.759  -0.971  12.136  0.00  0.00    +0.000 C 
ENDBRANCH  22  23
ENDBRANCH  20  22
ENDBRANCH  15  16
ENDBRANCH  14  15
ENDBRANCH   5  14
TORSDOF 6
