REMARK  Name = 
REMARK  6 active torsions:
REMARK  status: ('A' for Active; 'I' for Inactive)
REMARK    1  A    between atoms: C_1  and  S_2
REMARK    2  A    between atoms: S_2  and  C_5
REMARK    3  A    between atoms: N_12  and  C_13
REMARK    4  A    between atoms: C_13  and  C_14
REMARK    5  A    between atoms: C_17  and  C_18
REMARK    6  A    between atoms: C_18  and  N_19
REMARK                            x       y       z     vdW  Elec       q    Type
REMARK                         _______ _______ _______ _____ _____    ______ ____
ROOT
ATOM      1  C   UNL     1       3.306  -0.639  -1.556  0.00  0.00    +0.000 A 
ATOM      2  C   UNL     1       3.667   0.314  -2.509  0.00  0.00    +0.000 A 
ATOM      3  C   UNL     1       4.056  -0.081  -3.794  0.00  0.00    +0.000 A 
ATOM      4  C   UNL     1       4.080  -1.455  -4.091  0.00  0.00    +0.000 A 
ATOM      5  C   UNL     1       3.697  -2.416  -3.146  0.00  0.00    +0.000 A 
ATOM      6  C   UNL     1       3.797  -3.688  -3.768  0.00  0.00    +0.000 A 
ATOM      7  C   UNL     1       4.259  -3.493  -5.047  0.00  0.00    +0.000 A 
ATOM      8  N   UNL     1       4.463  -2.145  -5.231  0.00  0.00    +0.000 N 
ATOM      9  C   UNL     1       3.318  -2.006  -1.853  0.00  0.00    +0.000 A 
ENDROOT
BRANCH   1  11
ATOM     10  C   UNL     1       1.112   0.081  -0.001  0.00  0.00    +0.000 C 
ATOM     11  S   UNL     1       2.872  -0.117   0.087  0.00  0.00    +0.000 S 
ATOM     12  O   UNL     1       3.460   1.190   0.302  0.00  0.00    +0.000 OA
ATOM     13  O   UNL     1       3.155  -1.216   0.990  0.00  0.00    +0.000 OA
ENDBRANCH   1  11
BRANCH   8  14
ATOM     14  C   UNL     1       5.103  -1.580  -6.421  0.00  0.00    +0.000 C 
BRANCH  14  15
ATOM     15  C   UNL     1       4.096  -1.280  -7.501  0.00  0.00    +0.000 A 
ATOM     16  C   UNL     1       3.543  -0.000  -7.622  0.00  0.00    +0.000 A 
ATOM     17  C   UNL     1       2.478   0.232  -8.496  0.00  0.00    +0.000 A 
ATOM     18  C   UNL     1       1.949  -0.806  -9.275  0.00  0.00    +0.000 A 
ATOM     19  C   UNL     1       2.565  -2.063  -9.220  0.00  0.00    +0.000 A 
ATOM     20  C   UNL     1       3.633  -2.296  -8.349  0.00  0.00    +0.000 A 
BRANCH  18  21
ATOM     21  C   UNL     1       0.646  -0.589 -10.007  0.00  0.00    +0.000 C 
BRANCH  21  22
ATOM     22  N   UNL     1       0.519  -1.367 -11.236  0.00  0.00    +0.000 NA
ATOM     23  H   UNL     1       1.223  -1.048 -11.897  0.00  0.00    +0.000 HD
ATOM     24  H   UNL     1      -0.385  -1.167 -11.655  0.00  0.00    +0.000 HD
ENDBRANCH  21  22
ENDBRANCH  18  21
ENDBRANCH  14  15
ENDBRANCH   8  14
TORSDOF 5
