REMARK  Name = 
REMARK  5 active torsions:
REMARK  status: ('A' for Active; 'I' for Inactive)
REMARK    1  A    between atoms: N_1  and  C_2
REMARK    2  A    between atoms: C_2  and  C_3
REMARK    3  A    between atoms: C_3  and  C_4
REMARK    4  A    between atoms: C_8  and  C_9
REMARK    5  A    between atoms: C_9  and  N_10
REMARK                            x       y       z     vdW  Elec       q    Type
REMARK                         _______ _______ _______ _____ _____    ______ ____
ROOT
ATOM      1  C   UNL     1       4.456  -1.131   0.687  0.00  0.00    +0.000 A 
ATOM      2  C   UNL     1       5.138  -0.078   0.064  0.00  0.00    +0.000 A 
ATOM      3  C   UNL     1       6.533  -0.043   0.062  0.00  0.00    +0.000 A 
ATOM      4  C   UNL     1       7.260  -1.037   0.719  0.00  0.00    +0.000 A 
ATOM      5  C   UNL     1       6.600  -2.065   1.404  0.00  0.00    +0.000 A 
ATOM      6  C   UNL     1       5.196  -2.119   1.355  0.00  0.00    +0.000 A 
ENDROOT
BRANCH   1   7
ATOM      7  C   UNL     1       2.946  -1.199   0.640  0.00  0.00    +0.000 C 
BRANCH   7   8
ATOM      8  C   UNL     1       2.284  -0.508   1.837  0.00  0.00    +0.000 C 
BRANCH   8   9
ATOM      9  N   UNL     1       0.824  -0.607   1.764  0.00  0.00    +0.000 NA
ATOM     10  H   UNL     1       0.415  -0.146   2.576  0.00  0.00    +0.000 HD
ATOM     11  H   UNL     1       0.544  -1.585   1.823  0.00  0.00    +0.000 HD
ENDBRANCH   8   9
ENDBRANCH   7   8
ENDBRANCH   1   7
BRANCH   5  12
ATOM     12  C   UNL     1       7.376  -3.086   2.204  0.00  0.00    +0.000 C 
BRANCH  12  13
ATOM     13  N   UNL     1       7.723  -4.262   1.419  0.00  0.00    +0.000 N 
ATOM     14  N   UNL     1       6.902  -5.341   1.444  0.00  0.00    +0.000 NA
ATOM     15  C   UNL     1       7.481  -6.182   0.578  0.00  0.00    +0.000 A 
ATOM     16  C   UNL     1       8.676  -5.674   0.040  0.00  0.00    +0.000 A 
ATOM     17  N   UNL     1       9.545  -6.194  -0.860  0.00  0.00    +0.000 NA
ATOM     18  C   UNL     1      10.603  -5.401  -1.137  0.00  0.00    +0.000 A 
ATOM     19  C   UNL     1      10.864  -4.167  -0.556  0.00  0.00    +0.000 A 
ATOM     20  C   UNL     1       9.973  -3.651   0.382  0.00  0.00    +0.000 A 
ATOM     21  C   UNL     1       8.848  -4.433   0.646  0.00  0.00    +0.000 A 
ENDBRANCH  12  13
ENDBRANCH   5  12
TORSDOF 5
