REMARK  Name = 
REMARK  10 active torsions:
REMARK  status: ('A' for Active; 'I' for Inactive)
REMARK    1  A    between atoms: N_1  and  C_2
REMARK    2  A    between atoms: C_2  and  C_3
REMARK    3  A    between atoms: C_3  and  C_4
REMARK    4  A    between atoms: C_4  and  N_5
REMARK    5  A    between atoms: C_8  and  C_9
REMARK    6  A    between atoms: N_11  and  C_12
REMARK    7  A    between atoms: C_12  and  C_13
REMARK    8  A    between atoms: C_16  and  C_17
REMARK    9  A    between atoms: C_17  and  N_18
REMARK   10  A    between atoms: C_19  and  C_21
REMARK                            x       y       z     vdW  Elec       q    Type
REMARK                         _______ _______ _______ _____ _____    ______ ____
ROOT
ATOM      1  C   UNL     1       8.207  -6.111   0.614  0.00  0.00    +0.000 A 
ATOM      2  C   UNL     1       8.750  -7.252   0.009  0.00  0.00    +0.000 A 
ATOM      3  C   UNL     1       8.421  -8.528   0.476  0.00  0.00    +0.000 A 
ATOM      4  C   UNL     1       7.529  -8.688   1.544  0.00  0.00    +0.000 A 
ATOM      5  C   UNL     1       6.994  -7.545   2.154  0.00  0.00    +0.000 A 
ATOM      6  C   UNL     1       7.321  -6.270   1.686  0.00  0.00    +0.000 A 
ENDROOT
BRANCH   1   7
ATOM      7  C   UNL     1       8.545  -4.738   0.100  0.00  0.00    +0.000 C 
BRANCH   7  10
ATOM      8  C   UNL     1       7.746  -3.087  -1.519  0.00  0.00    +0.000 C 
ATOM      9  O   UNL     1       8.611  -2.288  -1.167  0.00  0.00    +0.000 OA
ATOM     10  N   UNL     1       7.656  -4.343  -0.968  0.00  0.00    +0.000 N 
ATOM     11  H   UNL     1       6.906  -4.970  -1.226  0.00  0.00    +0.000 HD
BRANCH   8  15
ATOM     12  N   UNL     1       5.136  -1.057  -3.005  0.00  0.00    +0.000 NA
ATOM     13  C   UNL     1       4.559  -2.373  -3.331  0.00  0.00    +0.000 C 
ATOM     14  C   UNL     1       5.391  -3.370  -2.544  0.00  0.00    +0.000 C 
ATOM     15  C   UNL     1       6.801  -2.815  -2.680  0.00  0.00    +0.000 C 
ATOM     16  C   UNL     1       6.594  -1.310  -2.902  0.00  0.00    +0.000 C 
BRANCH  12  17
ATOM     17  C   UNL     1       4.563  -0.546  -1.741  0.00  0.00    +0.000 C 
BRANCH  17  18
ATOM     18  C   UNL     1       5.033   0.872  -1.385  0.00  0.00    +0.000 C 
BRANCH  18  19
ATOM     19  C   UNL     1       4.428   1.377  -0.074  0.00  0.00    +0.000 C 
BRANCH  19  20
ATOM     20  N   UNL     1       4.766   0.514   1.055  0.00  0.00    +0.000 NA
ATOM     21  H   UNL     1       4.437   0.940   1.920  0.00  0.00    +0.000 HD
ATOM     22  H   UNL     1       5.781   0.442   1.138  0.00  0.00    +0.000 HD
ENDBRANCH  19  20
ENDBRANCH  18  19
ENDBRANCH  17  18
ENDBRANCH  12  17
ENDBRANCH   8  15
ENDBRANCH   7  10
ENDBRANCH   1   7
BRANCH   4  23
ATOM     23  C   UNL     1       7.176 -10.060   2.056  0.00  0.00    +0.000 C 
BRANCH  23  24
ATOM     24  N   UNL     1       8.089 -10.490   3.085  0.00  0.00    +0.000 N 
ATOM     25  C   UNL     1       8.001 -11.748   3.625  0.00  0.00    +0.000 C 
ATOM     26  O   UNL     1       7.186 -12.571   3.218  0.00  0.00    +0.000 OA
ATOM     27  H   UNL     1       8.610  -9.768   3.573  0.00  0.00    +0.000 HD
BRANCH  25  28
ATOM     28  C   UNL     1       8.967 -12.085   4.679  0.00  0.00    +0.000 A 
ATOM     29  C   UNL     1       9.262 -13.417   4.936  0.00  0.00    +0.000 A 
ATOM     30  S   UNL     1      10.430 -13.637   6.158  0.00  0.00    +0.000 S 
ATOM     31  C   UNL     1      10.547 -11.961   6.423  0.00  0.00    +0.000 A 
ATOM     32  N   UNL     1      11.374 -11.461   7.380  0.00  0.00    +0.000 NA
ATOM     33  C   UNL     1      11.341 -10.176   7.496  0.00  0.00    +0.000 A 
ATOM     34  N   UNL     1      10.560  -9.344   6.736  0.00  0.00    +0.000 N 
ATOM     35  C   UNL     1       9.733  -9.800   5.738  0.00  0.00    +0.000 A 
ATOM     36  O   UNL     1       9.079  -9.024   5.047  0.00  0.00    +0.000 OA
ATOM     37  C   UNL     1       9.721 -11.241   5.576  0.00  0.00    +0.000 A 
ATOM     38  H   UNL     1      10.589  -8.344   6.870  0.00  0.00    +0.000 HD
ENDBRANCH  25  28
ENDBRANCH  23  24
ENDBRANCH   4  23
TORSDOF 10
