REMARK  Name = 
REMARK  7 active torsions:
REMARK  status: ('A' for Active; 'I' for Inactive)
REMARK    1  A    between atoms: C_2  and  C_3
REMARK    2  A    between atoms: C_3  and  N_4
REMARK    3  A    between atoms: C_3  and  C_27
REMARK    4  A    between atoms: C_5  and  C_7
REMARK    5  A    between atoms: C_10  and  C_11
REMARK    6  A    between atoms: C_11  and  N_12
REMARK    7  A    between atoms: C_13  and  C_15
REMARK                            x       y       z     vdW  Elec       q    Type
REMARK                         _______ _______ _______ _____ _____    ______ ____
ROOT
ATOM      1  C   UNL     1       1.641  -1.169  -9.435  0.00  0.00    +0.000 C 
ATOM      2  C   UNL     1       1.022  -2.260 -10.326  0.00  0.00    +0.000 C 
ATOM      3  C   UNL     1      -0.476  -2.031 -10.561  0.00  0.00    +0.000 C 
ATOM      4  C   UNL     1      -0.775  -0.643 -11.150  0.00  0.00    +0.000 C 
ATOM      5  C   UNL     1      -0.134   0.448 -10.272  0.00  0.00    +0.000 C 
ATOM      6  C   UNL     1       1.360   0.220 -10.029  0.00  0.00    +0.000 C 
ENDROOT
BRANCH   1   8
ATOM      7  N   UNL     1       1.629  -0.386  -7.106  0.00  0.00    +0.000 N 
ATOM      8  C   UNL     1       1.153  -1.320  -7.989  0.00  0.00    +0.000 C 
ATOM      9  O   UNL     1       0.406  -2.224  -7.621  0.00  0.00    +0.000 OA
ATOM     10  H   UNL     1       2.254   0.344  -7.424  0.00  0.00    +0.000 HD
BRANCH   7  11
ATOM     11  C   UNL     1       1.290  -0.441  -5.683  0.00  0.00    +0.000 C 
BRANCH  11  12
ATOM     12  C   UNL     1       0.605   0.876  -5.268  0.00  0.00    +0.000 C 
ATOM     13  C   UNL     1       0.187   0.932  -3.796  0.00  0.00    +0.000 C 
ATOM     14  C   UNL     1      -0.903   1.999  -3.724  0.00  0.00    +0.000 C 
ATOM     15  C   UNL     1      -1.393   2.221  -5.152  0.00  0.00    +0.000 C 
ATOM     16  C   UNL     1      -0.713   1.154  -6.001  0.00  0.00    +0.000 C 
ENDBRANCH  11  12
BRANCH  11  18
ATOM     17  N   UNL     1       3.490  -0.902  -4.281  0.00  0.00    +0.000 NA
ATOM     18  C   UNL     1       2.512  -0.700  -4.890  0.00  0.00    +0.000 C 
ENDBRANCH  11  18
ENDBRANCH   7  11
ENDBRANCH   1   8
BRANCH   4  19
ATOM     19  C   UNL     1      -0.298  -0.562 -12.611  0.00  0.00    +0.000 C 
BRANCH  19  20
ATOM     20  N   UNL     1      -0.955  -1.537 -13.455  0.00  0.00    +0.000 N 
ATOM     21  C   UNL     1      -0.313  -2.055 -14.551  0.00  0.00    +0.000 C 
ATOM     22  O   UNL     1       0.832  -1.735 -14.857  0.00  0.00    +0.000 OA
ATOM     23  H   UNL     1      -1.965  -1.636 -13.382  0.00  0.00    +0.000 HD
BRANCH  21  24
ATOM     24  C   UNL     1      -1.040  -3.076 -15.303  0.00  0.00    +0.000 A 
ATOM     25  C   UNL     1      -0.342  -4.071 -15.973  0.00  0.00    +0.000 A 
ATOM     26  S   UNL     1      -1.356  -5.170 -16.793  0.00  0.00    +0.000 S 
ATOM     27  C   UNL     1      -2.754  -4.329 -16.307  0.00  0.00    +0.000 A 
ATOM     28  N   UNL     1      -3.990  -4.730 -16.705  0.00  0.00    +0.000 NA
ATOM     29  C   UNL     1      -4.954  -3.981 -16.286  0.00  0.00    +0.000 A 
ATOM     30  N   UNL     1      -4.797  -2.869 -15.497  0.00  0.00    +0.000 N 
ATOM     31  C   UNL     1      -3.571  -2.444 -15.042  0.00  0.00    +0.000 A 
ATOM     32  O   UNL     1      -3.469  -1.486 -14.285  0.00  0.00    +0.000 OA
ATOM     33  C   UNL     1      -2.454  -3.242 -15.508  0.00  0.00    +0.000 A 
ATOM     34  H   UNL     1      -5.596  -2.336 -15.188  0.00  0.00    +0.000 HD
ENDBRANCH  21  24
ENDBRANCH  19  20
ENDBRANCH   4  19
TORSDOF 7
