REMARK  Name = 
REMARK  6 active torsions:
REMARK  status: ('A' for Active; 'I' for Inactive)
REMARK    1  A    between atoms: C_2  and  C_25
REMARK    2  A    between atoms: N_3  and  C_4
REMARK    3  A    between atoms: C_4  and  C_5
REMARK    4  A    between atoms: C_8  and  C_9
REMARK    5  A    between atoms: C_9  and  N_10
REMARK    6  A    between atoms: C_11  and  C_13
REMARK                            x       y       z     vdW  Elec       q    Type
REMARK                         _______ _______ _______ _____ _____    ______ ____
ROOT
ATOM      1  C   UNL     1       3.114   1.852   3.235  0.00  0.00    +0.000 A 
ATOM      2  C   UNL     1       3.147   3.247   3.367  0.00  0.00    +0.000 A 
ATOM      3  C   UNL     1       3.946   3.858   4.343  0.00  0.00    +0.000 A 
ATOM      4  C   UNL     1       4.749   3.088   5.194  0.00  0.00    +0.000 A 
ATOM      5  C   UNL     1       4.722   1.694   5.055  0.00  0.00    +0.000 A 
ATOM      6  C   UNL     1       3.925   1.083   4.080  0.00  0.00    +0.000 A 
ENDROOT
BRANCH   1   7
ATOM      7  C   UNL     1       2.188   1.199   2.239  0.00  0.00    +0.000 C 
BRANCH   7  10
ATOM      8  O   UNL     1       0.925  -0.001   0.083  0.00  0.00    +0.000 OA
ATOM      9  C   UNL     1       2.050   0.456  -0.086  0.00  0.00    +0.000 C 
ATOM     10  N   UNL     1       2.771   1.058   0.926  0.00  0.00    +0.000 N 
ATOM     11  H   UNL     1       3.592   1.599   0.701  0.00  0.00    +0.000 HD
BRANCH   9  12
ATOM     12  C   UNL     1       2.712   0.417  -1.365  0.00  0.00    +0.000 A 
ATOM     13  C   UNL     1       3.991   0.736  -1.774  0.00  0.00    +0.000 A 
ATOM     14  C   UNL     1       4.023   0.452  -3.150  0.00  0.00    +0.000 A 
ATOM     15  N   UNL     1       2.855  -0.012  -3.598  0.00  0.00    +0.000 NA
ATOM     16  N   UNL     1       2.080  -0.032  -2.497  0.00  0.00    +0.000 N 
ATOM     17  H   UNL     1       1.123  -0.361  -2.575  0.00  0.00    +0.000 HD
ENDBRANCH   9  12
ENDBRANCH   7  10
ENDBRANCH   1   7
BRANCH   4  18
ATOM     18  C   UNL     1       5.610   3.734   6.257  0.00  0.00    +0.000 C 
BRANCH  18  19
ATOM     19  N   UNL     1       4.909   3.859   7.509  0.00  0.00    +0.000 N 
ATOM     20  C   UNL     1       5.494   4.456   8.600  0.00  0.00    +0.000 C 
ATOM     21  O   UNL     1       6.624   4.936   8.552  0.00  0.00    +0.000 OA
ATOM     22  H   UNL     1       4.113   3.242   7.658  0.00  0.00    +0.000 HD
BRANCH  20  23
ATOM     23  C   UNL     1       4.671   4.554   9.811  0.00  0.00    +0.000 A 
ATOM     24  C   UNL     1       4.916   5.558  10.741  0.00  0.00    +0.000 A 
ATOM     25  S   UNL     1       3.832   5.552  12.057  0.00  0.00    +0.000 S 
ATOM     26  C   UNL     1       3.029   4.175  11.461  0.00  0.00    +0.000 A 
ATOM     27  N   UNL     1       1.993   3.616  12.143  0.00  0.00    +0.000 NA
ATOM     28  C   UNL     1       1.505   2.554  11.593  0.00  0.00    +0.000 A 
ATOM     29  N   UNL     1       1.950   2.007  10.418  0.00  0.00    +0.000 N 
ATOM     30  C   UNL     1       2.966   2.558   9.677  0.00  0.00    +0.000 A 
ATOM     31  O   UNL     1       3.304   2.075   8.600  0.00  0.00    +0.000 OA
ATOM     32  C   UNL     1       3.565   3.742  10.261  0.00  0.00    +0.000 A 
ATOM     33  H   UNL     1       1.516   1.180  10.035  0.00  0.00    +0.000 HD
ENDBRANCH  20  23
ENDBRANCH  18  19
ENDBRANCH   4  18
TORSDOF 6
