REMARK  Name = 
REMARK  7 active torsions:
REMARK  status: ('A' for Active; 'I' for Inactive)
REMARK    1  A    between atoms: C_1  and  C_2
REMARK    2  A    between atoms: C_2  and  N_3
REMARK    3  A    between atoms: C_2  and  C_16
REMARK    4  A    between atoms: C_4  and  C_6
REMARK    5  A    between atoms: C_19  and  C_20
REMARK    6  A    between atoms: C_20  and  N_21
REMARK    7  A    between atoms: C_22  and  C_24
REMARK                            x       y       z     vdW  Elec       q    Type
REMARK                         _______ _______ _______ _____ _____    ______ ____
ROOT
ATOM      1  C   UNL     1       0.999  -0.533  -0.319  0.00  0.00    +0.000 C 
ATOM      2  C   UNL     1       2.433  -0.136   0.058  0.00  0.00    +0.000 C 
ENDROOT
BRANCH   2   3
ATOM      3  C   UNL     1       2.947   0.829  -1.007  0.00  0.00    +0.000 A 
ATOM      4  C   UNL     1       2.741   2.209  -0.847  0.00  0.00    +0.000 A 
ATOM      5  C   UNL     1       3.069   3.109  -1.867  0.00  0.00    +0.000 A 
ATOM      6  C   UNL     1       3.607   2.651  -3.076  0.00  0.00    +0.000 A 
ATOM      7  C   UNL     1       3.857   1.286  -3.214  0.00  0.00    +0.000 A 
ATOM      8  F   UNL     1       4.396   0.817  -4.349  0.00  0.00    +0.000 F 
ATOM      9  C   UNL     1       3.525   0.380  -2.206  0.00  0.00    +0.000 A 
BRANCH   6  10
ATOM     10  C   UNL     1       3.889   3.606  -4.200  0.00  0.00    +0.000 C 
BRANCH  10  11
ATOM     11  N   UNL     1       5.214   4.164  -4.125  0.00  0.00    +0.000 N 
ATOM     12  C   UNL     1       5.497   5.359  -3.506  0.00  0.00    +0.000 C 
ATOM     13  O   UNL     1       4.642   6.033  -2.938  0.00  0.00    +0.000 OA
ATOM     14  H   UNL     1       5.991   3.645  -4.518  0.00  0.00    +0.000 HD
BRANCH  12  15
ATOM     15  C   UNL     1       6.891   5.744  -3.601  0.00  0.00    +0.000 A 
ATOM     16  C   UNL     1       7.581   6.820  -3.076  0.00  0.00    +0.000 A 
ATOM     17  C   UNL     1       8.919   6.705  -3.521  0.00  0.00    +0.000 A 
ATOM     18  C   UNL     1       8.970   5.568  -4.292  0.00  0.00    +0.000 A 
ATOM     19  O   UNL     1       7.752   4.972  -4.343  0.00  0.00    +0.000 OA
ENDBRANCH  12  15
ENDBRANCH  10  11
ENDBRANCH   6  10
ENDBRANCH   2   3
BRANCH   2  20
ATOM     20  N   UNL     1       3.306  -1.289   0.209  0.00  0.00    +0.000 N 
ATOM     21  C   UNL     1       3.070  -2.279   1.135  0.00  0.00    +0.000 C 
ATOM     22  O   UNL     1       2.094  -2.274   1.879  0.00  0.00    +0.000 OA
ATOM     23  H   UNL     1       4.269  -1.162  -0.090  0.00  0.00    +0.000 HD
BRANCH  21  24
ATOM     24  C   UNL     1       4.019  -3.398   1.149  0.00  0.00    +0.000 A 
ATOM     25  C   UNL     1       3.594  -4.654   1.565  0.00  0.00    +0.000 A 
ATOM     26  S   UNL     1       4.817  -5.841   1.508  0.00  0.00    +0.000 S 
ATOM     27  C   UNL     1       5.966  -4.709   0.968  0.00  0.00    +0.000 A 
ATOM     28  N   UNL     1       7.260  -5.070   0.757  0.00  0.00    +0.000 NA
ATOM     29  C   UNL     1       8.029  -4.102   0.382  0.00  0.00    +0.000 A 
ATOM     30  N   UNL     1       7.619  -2.809   0.184  0.00  0.00    +0.000 N 
ATOM     31  C   UNL     1       6.312  -2.409   0.341  0.00  0.00    +0.000 A 
ATOM     32  O   UNL     1       5.956  -1.265   0.085  0.00  0.00    +0.000 OA
ATOM     33  C   UNL     1       5.416  -3.452   0.799  0.00  0.00    +0.000 A 
ATOM     34  H   UNL     1       8.266  -2.102  -0.130  0.00  0.00    +0.000 HD
ENDBRANCH  21  24
ENDBRANCH   2  20
TORSDOF 6
