REMARK  Name = 
REMARK  6 active torsions:
REMARK  status: ('A' for Active; 'I' for Inactive)
REMARK    1  A    between atoms: C_1  and  C_2
REMARK    2  A    between atoms: C_2  and  N_3
REMARK    3  A    between atoms: C_2  and  C_16
REMARK    4  A    between atoms: C_4  and  C_6
REMARK    5  A    between atoms: C_19  and  O_20
REMARK    6  A    between atoms: O_20  and  C_21
REMARK                            x       y       z     vdW  Elec       q    Type
REMARK                         _______ _______ _______ _____ _____    ______ ____
ROOT
ATOM      1  C   UNL     1       2.890   0.635   1.361  0.00  0.00    +0.000 C 
ATOM      2  C   UNL     1       2.377  -0.113   0.129  0.00  0.00    +0.000 C 
ENDROOT
BRANCH   2   3
ATOM      3  C   UNL     1       2.951  -1.509  -0.037  0.00  0.00    +0.000 A 
ATOM      4  C   UNL     1       3.181  -2.007  -1.330  0.00  0.00    +0.000 A 
ATOM      5  C   UNL     1       3.609  -3.323  -1.526  0.00  0.00    +0.000 A 
ATOM      6  C   UNL     1       3.837  -4.155  -0.429  0.00  0.00    +0.000 A 
ATOM      7  C   UNL     1       3.614  -3.671   0.859  0.00  0.00    +0.000 A 
ATOM      8  C   UNL     1       3.176  -2.360   1.055  0.00  0.00    +0.000 A 
BRANCH   6   9
ATOM      9  O   UNL     1       4.169  -5.487  -0.514  0.00  0.00    +0.000 OA
BRANCH   9  10
ATOM     10  C   UNL     1       5.002  -5.905  -1.540  0.00  0.00    +0.000 A 
ATOM     11  C   UNL     1       4.856  -7.222  -1.951  0.00  0.00    +0.000 A 
ATOM     12  C   UNL     1       5.679  -7.686  -2.972  0.00  0.00    +0.000 A 
ATOM     13  C   UNL     1       6.616  -6.825  -3.534  0.00  0.00    +0.000 A 
ATOM     14  C   UNL     1       6.705  -5.534  -3.040  0.00  0.00    +0.000 A 
ATOM     15  N   UNL     1       5.927  -5.059  -2.045  0.00  0.00    +0.000 NA
ENDBRANCH   9  10
ENDBRANCH   6   9
ENDBRANCH   2   3
BRANCH   2  16
ATOM     16  N   UNL     1       0.929  -0.212   0.165  0.00  0.00    +0.000 N 
ATOM     17  C   UNL     1       0.121   0.752  -0.389  0.00  0.00    +0.000 C 
ATOM     18  O   UNL     1       0.564   1.739  -0.964  0.00  0.00    +0.000 OA
ATOM     19  H   UNL     1       0.522  -0.948   0.723  0.00  0.00    +0.000 HD
BRANCH  17  20
ATOM     20  C   UNL     1      -1.316   0.486  -0.303  0.00  0.00    +0.000 A 
ATOM     21  C   UNL     1      -1.876  -0.782  -0.336  0.00  0.00    +0.000 A 
ATOM     22  S   UNL     1      -3.585  -0.756  -0.416  0.00  0.00    +0.000 S 
ATOM     23  C   UNL     1      -3.618   0.947  -0.412  0.00  0.00    +0.000 A 
ATOM     24  N   UNL     1      -4.784   1.635  -0.538  0.00  0.00    +0.000 NA
ATOM     25  C   UNL     1      -4.638   2.921  -0.550  0.00  0.00    +0.000 A 
ATOM     26  N   UNL     1      -3.441   3.577  -0.409  0.00  0.00    +0.000 N 
ATOM     27  C   UNL     1      -2.259   2.923  -0.142  0.00  0.00    +0.000 A 
ATOM     28  O   UNL     1      -1.274   3.534   0.256  0.00  0.00    +0.000 OA
ATOM     29  C   UNL     1      -2.352   1.481  -0.268  0.00  0.00    +0.000 A 
ATOM     30  H   UNL     1      -3.410   4.582  -0.330  0.00  0.00    +0.000 HD
ENDBRANCH  17  20
ENDBRANCH   2  16
TORSDOF 5
