REMARK  Name = 
REMARK  15 active torsions:
REMARK  status: ('A' for Active; 'I' for Inactive)
REMARK    1  A    between atoms: C_1  and  O_2
REMARK    2  A    between atoms: O_2  and  C_3
REMARK    3  A    between atoms: C_10  and  C_11
REMARK    4  A    between atoms: N_13  and  C_14
REMARK    5  A    between atoms: C_14  and  C_15
REMARK    6  A    between atoms: C_18  and  C_19
REMARK    7  A    between atoms: C_19  and  O_20
REMARK    8  A    between atoms: C_19  and  C_21
REMARK    9  A    between atoms: C_21  and  N_22
REMARK   10  A    between atoms: N_22  and  C_23
REMARK   11  A    between atoms: C_27  and  O_29
REMARK   12  A    between atoms: O_29  and  C_30
REMARK   13  A    between atoms: C_30  and  C_31
REMARK   14  A    between atoms: C_30  and  C_32
REMARK   15  A    between atoms: C_30  and  C_33
REMARK                            x       y       z     vdW  Elec       q    Type
REMARK                         _______ _______ _______ _____ _____    ______ ____
ROOT
ATOM      1  C   UNL     1       2.423  -2.921   1.505  0.00  0.00    +0.000 A 
ATOM      2  C   UNL     1       2.551  -1.836   2.382  0.00  0.00    +0.000 A 
ATOM      3  C   UNL     1       1.621  -1.641   3.417  0.00  0.00    +0.000 A 
ATOM      4  C   UNL     1       0.550  -2.531   3.610  0.00  0.00    +0.000 A 
ATOM      5  C   UNL     1       0.443  -3.592   2.703  0.00  0.00    +0.000 A 
ATOM      6  C   UNL     1       1.364  -3.796   1.681  0.00  0.00    +0.000 A 
ENDROOT
BRANCH   1   7
ATOM      7  C   UNL     1       3.429  -3.222   0.436  0.00  0.00    +0.000 C 
BRANCH   7  10
ATOM      8  C   UNL     1       5.459  -4.568   0.179  0.00  0.00    +0.000 C 
ATOM      9  O   UNL     1       5.522  -4.291  -1.017  0.00  0.00    +0.000 OA
ATOM     10  N   UNL     1       4.463  -4.073   0.965  0.00  0.00    +0.000 N 
ATOM     11  H   UNL     1       4.416  -4.316   1.946  0.00  0.00    +0.000 HD
BRANCH   8  19
ATOM     12  C   UNL     1       5.838  -5.798   3.381  0.00  0.00    +0.000 A 
ATOM     13  N   UNL     1       6.196  -6.456   4.502  0.00  0.00    +0.000 NA
ATOM     14  C   UNL     1       7.266  -7.254   4.451  0.00  0.00    +0.000 A 
ATOM     15  N   UNL     1       8.048  -7.479   3.399  0.00  0.00    +0.000 NA
ATOM     16  C   UNL     1       7.654  -6.812   2.300  0.00  0.00    +0.000 A 
ATOM     17  S   UNL     1       8.542  -6.980   0.864  0.00  0.00    +0.000 S 
ATOM     18  C   UNL     1       7.485  -5.942   0.033  0.00  0.00    +0.000 A 
ATOM     19  C   UNL     1       6.446  -5.451   0.815  0.00  0.00    +0.000 A 
ATOM     20  C   UNL     1       6.561  -5.958   2.183  0.00  0.00    +0.000 A 
BRANCH  12  22
ATOM     21  C   UNL     1       4.104  -4.919   4.708  0.00  0.00    +0.000 C 
ATOM     22  O   UNL     1       4.753  -4.947   3.439  0.00  0.00    +0.000 OA
ENDBRANCH  12  22
ENDBRANCH   8  19
ENDBRANCH   7  10
ENDBRANCH   1   7
BRANCH   4  23
ATOM     23  C   UNL     1      -0.446  -2.282   4.738  0.00  0.00    +0.000 C 
BRANCH  23  24
ATOM     24  O   UNL     1      -1.477  -1.422   4.258  0.00  0.00    +0.000 OA
ATOM     25  H   UNL     1      -1.892  -1.887   3.506  0.00  0.00    +0.000 HD
ENDBRANCH  23  24
BRANCH  23  26
ATOM     26  C   UNL     1      -1.057  -3.537   5.461  0.00  0.00    +0.000 C 
BRANCH  26  27
ATOM     27  N   UNL     1      -2.012  -4.319   4.663  0.00  0.00    +0.000 NA
ATOM     28  H   UNL     1      -1.675  -4.483   3.734  0.00  0.00    +0.000 HD
BRANCH  27  29
ATOM     29  C   UNL     1      -2.511  -5.582   5.217  0.00  0.00    +0.000 C 
ATOM     30  C   UNL     1      -1.481  -6.583   5.781  0.00  0.00    +0.000 C 
ATOM     31  C   UNL     1      -0.713  -7.388   4.733  0.00  0.00    +0.000 C 
ATOM     32  N   UNL     1      -1.603  -7.940   3.710  0.00  0.00    +0.000 N 
ATOM     33  C   UNL     1      -1.498  -9.276   3.364  0.00  0.00    +0.000 C 
ATOM     34  O   UNL     1      -0.733 -10.050   3.927  0.00  0.00    +0.000 OA
ATOM     35  C   UNL     1      -2.480  -6.984   3.063  0.00  0.00    +0.000 C 
ATOM     36  C   UNL     1      -3.343  -6.268   4.105  0.00  0.00    +0.000 C 
BRANCH  33  37
ATOM     37  O   UNL     1      -2.335  -9.632   2.344  0.00  0.00    +0.000 OA
BRANCH  37  38
ATOM     38  C   UNL     1      -2.340 -11.013   1.864  0.00  0.00    +0.000 C 
ATOM     39  C   UNL     1      -2.839 -11.971   2.955  0.00  0.00    +0.000 C 
ATOM     40  C   UNL     1      -3.347 -11.059   0.699  0.00  0.00    +0.000 C 
ATOM     41  C   UNL     1      -0.970 -11.421   1.310  0.00  0.00    +0.000 C 
ENDBRANCH  37  38
ENDBRANCH  33  37
ENDBRANCH  27  29
ENDBRANCH  26  27
ENDBRANCH  23  26
ENDBRANCH   4  23
TORSDOF 11
