REMARK  Name = 
REMARK  7 active torsions:
REMARK  status: ('A' for Active; 'I' for Inactive)
REMARK    1  A    between atoms: N_1  and  C_2
REMARK    2  A    between atoms: C_2  and  C_3
REMARK    3  A    between atoms: C_6  and  C_7
REMARK    4  A    between atoms: C_7  and  S_8
REMARK    5  A    between atoms: S_8  and  C_9
REMARK    6  A    between atoms: C_12  and  C_13
REMARK    7  A    between atoms: C_13  and  O_14
REMARK                            x       y       z     vdW  Elec       q    Type
REMARK                         _______ _______ _______ _____ _____    ______ ____
ROOT
ATOM      1  C   UNL     1       4.069  -3.728  -4.038  0.00  0.00    +0.000 C 
ENDROOT
BRANCH   1   5
ATOM      2  C   UNL     1       2.968  -1.102  -0.756  0.00  0.00    +0.000 A 
ATOM      3  C   UNL     1       2.152  -1.208  -1.892  0.00  0.00    +0.000 A 
ATOM      4  C   UNL     1       2.517  -2.034  -2.962  0.00  0.00    +0.000 A 
ATOM      5  C   UNL     1       3.703  -2.777  -2.920  0.00  0.00    +0.000 A 
ATOM      6  C   UNL     1       4.539  -2.638  -1.802  0.00  0.00    +0.000 A 
ATOM      7  C   UNL     1       4.174  -1.813  -0.731  0.00  0.00    +0.000 A 
BRANCH   2   8
ATOM      8  C   UNL     1       2.559  -0.233   0.407  0.00  0.00    +0.000 C 
BRANCH   8   9
ATOM      9  N   UNL     1       1.297  -0.677   0.991  0.00  0.00    +0.000 NA
ATOM     10  H   UNL     1       1.099  -0.122   1.821  0.00  0.00    +0.000 HD
ATOM     11  H   UNL     1       1.404  -1.640   1.306  0.00  0.00    +0.000 HD
ENDBRANCH   8   9
ENDBRANCH   2   8
ENDBRANCH   1   5
BRANCH   1  12
ATOM     12  S   UNL     1       5.123  -2.948  -5.305  0.00  0.00    +0.000 S 
BRANCH  12  13
ATOM     13  C   UNL     1       5.348  -4.261  -6.505  0.00  0.00    +0.000 A 
ATOM     14  C   UNL     1       5.494  -3.890  -7.848  0.00  0.00    +0.000 A 
ATOM     15  C   UNL     1       5.708  -4.851  -8.847  0.00  0.00    +0.000 A 
ATOM     16  C   UNL     1       5.789  -6.208  -8.522  0.00  0.00    +0.000 A 
ATOM     17  C   UNL     1       5.665  -6.579  -7.176  0.00  0.00    +0.000 A 
ATOM     18  C   UNL     1       5.451  -5.615  -6.178  0.00  0.00    +0.000 A 
BRANCH  16  19
ATOM     19  C   UNL     1       5.976  -7.252  -9.592  0.00  0.00    +0.000 C 
BRANCH  19  20
ATOM     20  O   UNL     1       7.163  -7.996  -9.370  0.00  0.00    +0.000 OA
ATOM     21  H   UNL     1       7.879  -7.351  -9.236  0.00  0.00    +0.000 HD
ENDBRANCH  19  20
ENDBRANCH  16  19
ENDBRANCH  12  13
ENDBRANCH   1  12
TORSDOF 7
