REMARK  Name = 
REMARK  5 active torsions:
REMARK  status: ('A' for Active; 'I' for Inactive)
REMARK    1  A    between atoms: C_2  and  C_4
REMARK    2  A    between atoms: C_7  and  N_8
REMARK    3  A    between atoms: N_8  and  C_9
REMARK    4  A    between atoms: C_9  and  C_10
REMARK    5  A    between atoms: C_14  and  N_15
REMARK                            x       y       z     vdW  Elec       q    Type
REMARK                         _______ _______ _______ _____ _____    ______ ____
ROOT
ATOM      1  N   UNL     1       5.783   2.632   4.043  0.00  0.00    +0.000 N 
ATOM      2  H   UNL     1       6.562   3.051   3.546  0.00  0.00    +0.000 HD
ENDROOT
BRANCH   1   6
ATOM      3  C   UNL     1       3.746  -0.387   1.890  0.00  0.00    +0.000 A 
ATOM      4  C   UNL     1       3.015   0.543   2.628  0.00  0.00    +0.000 A 
ATOM      5  C   UNL     1       3.678   1.559   3.323  0.00  0.00    +0.000 A 
ATOM      6  C   UNL     1       5.073   1.696   3.278  0.00  0.00    +0.000 A 
ATOM      7  C   UNL     1       5.793   0.752   2.530  0.00  0.00    +0.000 A 
ATOM      8  C   UNL     1       5.139  -0.284   1.848  0.00  0.00    +0.000 A 
BRANCH   3  10
ATOM      9  N   UNL     1       1.786  -1.340   0.800  0.00  0.00    +0.000 N 
ATOM     10  C   UNL     1       3.081  -1.523   1.202  0.00  0.00    +0.000 C 
ATOM     11  O   UNL     1       3.668  -2.575   0.980  0.00  0.00    +0.000 OA
ATOM     12  H   UNL     1       1.370  -2.093   0.266  0.00  0.00    +0.000 HD
ATOM     13  H   UNL     1       1.356  -0.430   0.746  0.00  0.00    +0.000 HD
ENDBRANCH   3  10
ENDBRANCH   1   6
BRANCH   1  14
ATOM     14  C   UNL     1       5.033   3.557   4.878  0.00  0.00    +0.000 C 
BRANCH  14  15
ATOM     15  C   UNL     1       5.923   4.511   5.635  0.00  0.00    +0.000 A 
ATOM     16  C   UNL     1       5.770   5.889   5.466  0.00  0.00    +0.000 A 
ATOM     17  C   UNL     1       6.463   6.770   6.286  0.00  0.00    +0.000 A 
ATOM     18  C   UNL     1       7.303   6.276   7.286  0.00  0.00    +0.000 A 
ATOM     19  C   UNL     1       7.495   4.901   7.488  0.00  0.00    +0.000 A 
ATOM     20  C   UNL     1       6.808   4.037   6.621  0.00  0.00    +0.000 A 
BRANCH  19  21
ATOM     21  N   UNL     1       8.286   4.431   8.513  0.00  0.00    +0.000 N 
ATOM     22  C   UNL     1       9.046   3.175   8.439  0.00  0.00    +0.000 C 
ATOM     23  C   UNL     1       8.709   2.291   9.649  0.00  0.00    +0.000 C 
ATOM     24  O   UNL     1       8.929   2.986  10.890  0.00  0.00    +0.000 OA
ATOM     25  C   UNL     1       8.107   4.165  10.950  0.00  0.00    +0.000 C 
ATOM     26  C   UNL     1       8.415   5.137   9.797  0.00  0.00    +0.000 C 
ENDBRANCH  19  21
ENDBRANCH  14  15
ENDBRANCH   1  14
TORSDOF 5
