REMARK  Name = 
REMARK  8 active torsions:
REMARK  status: ('A' for Active; 'I' for Inactive)
REMARK    1  A    between atoms: C_2  and  C_3
REMARK    2  A    between atoms: C_2  and  C_22
REMARK    3  A    between atoms: C_3  and  O_4
REMARK    4  A    between atoms: O_4  and  C_5
REMARK    5  A    between atoms: C_8  and  C_9
REMARK    6  A    between atoms: C_9  and  N_10
REMARK    7  A    between atoms: C_11  and  C_13
REMARK    8  A    between atoms: C_15  and  O_16
REMARK                            x       y       z     vdW  Elec       q    Type
REMARK                         _______ _______ _______ _____ _____    ______ ____
ROOT
ATOM      1  C   UNL     1       2.535   2.903   2.143  0.00  0.00    +0.000 A 
ATOM      2  C   UNL     1       3.574   3.662   1.608  0.00  0.00    +0.000 A 
ATOM      3  C   UNL     1       3.911   4.897   2.183  0.00  0.00    +0.000 A 
ATOM      4  C   UNL     1       3.231   5.377   3.310  0.00  0.00    +0.000 A 
ATOM      5  C   UNL     1       2.184   4.610   3.836  0.00  0.00    +0.000 A 
ATOM      6  C   UNL     1       1.838   3.392   3.254  0.00  0.00    +0.000 A 
ENDROOT
BRANCH   1   7
ATOM      7  O   UNL     1       2.066   1.721   1.648  0.00  0.00    +0.000 OA
BRANCH   7   8
ATOM      8  C   UNL     1       2.987   0.892   0.947  0.00  0.00    +0.000 C 
BRANCH   8  10
ATOM      9  O   UNL     1       1.129  -0.651   0.745  0.00  0.00    +0.000 OA
ATOM     10  C   UNL     1       2.302  -0.403   0.477  0.00  0.00    +0.000 C 
BRANCH  10  11
ATOM     11  C   UNL     1       3.112  -1.375  -0.278  0.00  0.00    +0.000 A 
ATOM     12  C   UNL     1       4.472  -1.551  -0.075  0.00  0.00    +0.000 A 
ATOM     13  S   UNL     1       5.137  -2.814  -1.016  0.00  0.00    +0.000 S 
ATOM     14  C   UNL     1       3.630  -3.156  -1.730  0.00  0.00    +0.000 A 
ATOM     15  N   UNL     1       3.499  -4.158  -2.641  0.00  0.00    +0.000 NA
ATOM     16  C   UNL     1       2.298  -4.310  -3.091  0.00  0.00    +0.000 A 
ATOM     17  N   UNL     1       1.222  -3.544  -2.724  0.00  0.00    +0.000 N 
ATOM     18  C   UNL     1       1.325  -2.457  -1.882  0.00  0.00    +0.000 A 
ATOM     19  O   UNL     1       0.389  -1.678  -1.751  0.00  0.00    +0.000 OA
ATOM     20  C   UNL     1       2.639  -2.302  -1.280  0.00  0.00    +0.000 A 
ATOM     21  H   UNL     1       0.323  -3.669  -3.165  0.00  0.00    +0.000 HD
ENDBRANCH  10  11
ENDBRANCH   8  10
ENDBRANCH   7   8
ENDBRANCH   1   7
BRANCH   4  22
ATOM     22  C   UNL     1       3.587   6.705   3.923  0.00  0.00    +0.000 C 
BRANCH  22  23
ATOM     23  N   UNL     1       2.796   7.778   3.370  0.00  0.00    +0.000 N 
ATOM     24  C   UNL     1       3.275   8.682   2.449  0.00  0.00    +0.000 C 
ATOM     25  O   UNL     1       4.391   8.598   1.943  0.00  0.00    +0.000 OA
ATOM     26  H   UNL     1       1.835   7.906   3.669  0.00  0.00    +0.000 HD
BRANCH  24  27
ATOM     27  C   UNL     1       2.244   9.770   2.048  0.00  0.00    +0.000 C 
ATOM     28  C   UNL     1       2.882  11.034   1.474  0.00  0.00    +0.000 C 
ATOM     29  C   UNL     1       3.572  11.870   2.553  0.00  0.00    +0.000 C 
ATOM     30  C   UNL     1       2.655  12.124   3.745  0.00  0.00    +0.000 C 
ATOM     31  C   UNL     1       1.954  10.860   4.229  0.00  0.00    +0.000 C 
ATOM     32  N   UNL     1       1.308  10.092   3.159  0.00  0.00    +0.000 NA
ATOM     33  H   UNL     1       0.549  10.656   2.771  0.00  0.00    +0.000 HD
BRANCH  29  34
ATOM     34  O   UNL     1       3.964  13.129   1.997  0.00  0.00    +0.000 OA
ATOM     35  H   UNL     1       3.174  13.586   1.678  0.00  0.00    +0.000 HD
ENDBRANCH  29  34
ENDBRANCH  24  27
ENDBRANCH  22  23
ENDBRANCH   4  22
TORSDOF 8
