REMARK  Name = 
REMARK  5 active torsions:
REMARK  status: ('A' for Active; 'I' for Inactive)
REMARK    1  A    between atoms: C_2  and  C_4
REMARK    2  A    between atoms: N_8  and  C_9
REMARK    3  A    between atoms: C_9  and  C_10
REMARK    4  A    between atoms: C_10  and  C_13
REMARK    5  A    between atoms: C_17  and  N_18
REMARK                            x       y       z     vdW  Elec       q    Type
REMARK                         _______ _______ _______ _____ _____    ______ ____
ROOT
ATOM      1  C   UNL     1       6.123   7.101   1.107  0.00  0.00    +0.000 C 
ATOM      2  F   UNL     1       7.371   6.558   1.221  0.00  0.00    +0.000 F 
ATOM      3  F   UNL     1       6.074   7.633  -0.152  0.00  0.00    +0.000 F 
ENDROOT
BRANCH   1   4
ATOM      4  C   UNL     1       5.853   8.151   2.167  0.00  0.00    +0.000 A 
ATOM      5  C   UNL     1       5.026   9.247   1.874  0.00  0.00    +0.000 A 
ATOM      6  C   UNL     1       4.726  10.186   2.855  0.00  0.00    +0.000 A 
ATOM      7  C   UNL     1       5.224  10.021   4.144  0.00  0.00    +0.000 A 
ATOM      8  C   UNL     1       6.032   8.924   4.474  0.00  0.00    +0.000 A 
ATOM      9  C   UNL     1       6.370   8.011   3.467  0.00  0.00    +0.000 A 
BRANCH   8  10
ATOM     10  N   UNL     1       6.446   8.684   5.800  0.00  0.00    +0.000 N 
ATOM     11  C   UNL     1       5.788   8.991   6.940  0.00  0.00    +0.000 A 
ATOM     12  C   UNL     1       4.374   9.029   7.068  0.00  0.00    +0.000 A 
ATOM     13  C   UNL     1       4.136   9.398   8.365  0.00  0.00    +0.000 A 
ATOM     14  N   UNL     1       5.364   9.524   8.938  0.00  0.00    +0.000 N 
ATOM     15  N   UNL     1       6.382   9.250   8.105  0.00  0.00    +0.000 NA
ATOM     16  H   UNL     1       7.450   8.560   5.886  0.00  0.00    +0.000 HD
ATOM     17  H   UNL     1       5.582   9.790   9.893  0.00  0.00    +0.000 HD
ENDBRANCH   8  10
ENDBRANCH   1   4
BRANCH   1  18
ATOM     18  C   UNL     1       5.079   5.955   1.209  0.00  0.00    +0.000 C 
BRANCH  18  23
ATOM     19  C   UNL     1       2.850   1.577  -0.206  0.00  0.00    +0.000 A 
ATOM     20  C   UNL     1       2.289   2.702   0.389  0.00  0.00    +0.000 A 
ATOM     21  C   UNL     1       3.067   3.851   0.538  0.00  0.00    +0.000 A 
ATOM     22  C   UNL     1       4.390   3.852   0.105  0.00  0.00    +0.000 A 
ATOM     23  N   UNL     1       5.190   4.977   0.120  0.00  0.00    +0.000 N 
ATOM     24  N   UNL     1       4.952   2.756  -0.437  0.00  0.00    +0.000 NA
ATOM     25  C   UNL     1       4.182   1.643  -0.577  0.00  0.00    +0.000 A 
ATOM     26  H   UNL     1       6.140   4.702  -0.129  0.00  0.00    +0.000 HD
BRANCH  19  28
ATOM     27  N   UNL     1       0.735   0.469  -0.642  0.00  0.00    +0.000 N 
ATOM     28  C   UNL     1       2.085   0.339  -0.459  0.00  0.00    +0.000 C 
ATOM     29  O   UNL     1       2.638  -0.750  -0.544  0.00  0.00    +0.000 OA
ATOM     30  H   UNL     1       0.240  -0.364  -0.935  0.00  0.00    +0.000 HD
ATOM     31  H   UNL     1       0.300   1.360  -0.842  0.00  0.00    +0.000 HD
ENDBRANCH  19  28
ENDBRANCH  18  23
ENDBRANCH   1  18
TORSDOF 5
