REMARK  Name = 
REMARK  7 active torsions:
REMARK  status: ('A' for Active; 'I' for Inactive)
REMARK    1  A    between atoms: C_1  and  O_2
REMARK    2  A    between atoms: O_2  and  C_3
REMARK    3  A    between atoms: N_9  and  C_10
REMARK    4  A    between atoms: C_10  and  C_11
REMARK    5  A    between atoms: C_14  and  C_15
REMARK    6  A    between atoms: C_15  and  C_16
REMARK    7  A    between atoms: C_15  and  N_17
REMARK                            x       y       z     vdW  Elec       q    Type
REMARK                         _______ _______ _______ _____ _____    ______ ____
ROOT
ATOM      1  C   UNL     1       0.146   2.701  -7.130  0.00  0.00    +0.000 C 
ENDROOT
BRANCH   1   8
ATOM      2  C   UNL     1      -2.665  -0.657  -8.468  0.00  0.00    +0.000 A 
ATOM      3  C   UNL     1      -3.829  -0.724  -7.706  0.00  0.00    +0.000 A 
ATOM      4  C   UNL     1      -4.011   0.125  -6.609  0.00  0.00    +0.000 A 
ATOM      5  C   UNL     1      -3.020   1.068  -6.281  0.00  0.00    +0.000 A 
ATOM      6  C   UNL     1      -2.905   2.050  -5.265  0.00  0.00    +0.000 A 
ATOM      7  C   UNL     1      -1.715   2.712  -5.455  0.00  0.00    +0.000 A 
ATOM      8  N   UNL     1      -1.091   2.168  -6.554  0.00  0.00    +0.000 N 
ATOM      9  C   UNL     1      -1.856   1.134  -7.059  0.00  0.00    +0.000 A 
ATOM     10  C   UNL     1      -1.647   0.250  -8.135  0.00  0.00    +0.000 A 
BRANCH   2  12
ATOM     11  C   UNL     1      -3.551  -1.837 -10.306  0.00  0.00    +0.000 C 
ATOM     12  O   UNL     1      -2.402  -1.451  -9.554  0.00  0.00    +0.000 OA
ENDBRANCH   2  12
ENDBRANCH   1   8
BRANCH   1  13
ATOM     13  C   UNL     1       1.357   2.117  -6.449  0.00  0.00    +0.000 A 
ATOM     14  C   UNL     1       2.006   1.002  -6.992  0.00  0.00    +0.000 A 
ATOM     15  C   UNL     1       2.980   0.324  -6.258  0.00  0.00    +0.000 A 
ATOM     16  C   UNL     1       3.319   0.743  -4.965  0.00  0.00    +0.000 A 
ATOM     17  C   UNL     1       2.762   1.935  -4.477  0.00  0.00    +0.000 A 
ATOM     18  C   UNL     1       1.790   2.615  -5.212  0.00  0.00    +0.000 A 
BRANCH  16  19
ATOM     19  C   UNL     1       4.172  -0.153  -4.089  0.00  0.00    +0.000 C 
ATOM     20  C   UNL     1       3.392  -0.598  -2.847  0.00  0.00    +0.000 C 
BRANCH  19  21
ATOM     21  N   UNL     1       5.429   0.482  -3.701  0.00  0.00    +0.000 NA
ATOM     22  H   UNL     1       5.235   1.358  -3.222  0.00  0.00    +0.000 HD
ATOM     23  H   UNL     1       5.942   0.727  -4.546  0.00  0.00    +0.000 HD
ENDBRANCH  19  21
ENDBRANCH  16  19
ENDBRANCH   1  13
TORSDOF 5
