REMARK  Name = 
REMARK  5 active torsions:
REMARK  status: ('A' for Active; 'I' for Inactive)
REMARK    1  A    between atoms: C_2  and  C_4
REMARK    2  A    between atoms: C_7  and  N_8
REMARK    3  A    between atoms: N_8  and  C_9
REMARK    4  A    between atoms: C_9  and  C_10
REMARK    5  A    between atoms: C_15  and  O_16
REMARK                            x       y       z     vdW  Elec       q    Type
REMARK                         _______ _______ _______ _____ _____    ______ ____
ROOT
ATOM      1  C   UNL     1       3.050   1.149   0.860  0.00  0.00    +0.000 A 
ATOM      2  C   UNL     1       2.468   2.289   1.420  0.00  0.00    +0.000 A 
ATOM      3  C   UNL     1       3.264   3.228   2.087  0.00  0.00    +0.000 A 
ATOM      4  C   UNL     1       4.644   3.035   2.228  0.00  0.00    +0.000 A 
ATOM      5  C   UNL     1       5.221   1.928   1.598  0.00  0.00    +0.000 A 
ATOM      6  C   UNL     1       4.433   0.974   0.944  0.00  0.00    +0.000 A 
ENDROOT
BRANCH   1   8
ATOM      7  N   UNL     1       1.043   0.474  -0.345  0.00  0.00    +0.000 N 
ATOM      8  C   UNL     1       2.231   0.091   0.214  0.00  0.00    +0.000 C 
ATOM      9  O   UNL     1       2.606  -1.073   0.159  0.00  0.00    +0.000 OA
ATOM     10  H   UNL     1       0.541  -0.238  -0.859  0.00  0.00    +0.000 HD
ATOM     11  H   UNL     1       0.828   1.440  -0.545  0.00  0.00    +0.000 HD
ENDBRANCH   1   8
BRANCH   4  12
ATOM     12  N   UNL     1       5.484   3.910   2.917  0.00  0.00    +0.000 N 
ATOM     13  H   UNL     1       5.991   4.550   2.305  0.00  0.00    +0.000 HD
BRANCH  12  14
ATOM     14  C   UNL     1       4.931   4.638   4.066  0.00  0.00    +0.000 C 
BRANCH  14  15
ATOM     15  C   UNL     1       5.969   5.540   4.710  0.00  0.00    +0.000 A 
ATOM     16  N   UNL     1       6.878   6.146   3.890  0.00  0.00    +0.000 NA
ATOM     17  C   UNL     1       7.758   6.995   4.465  0.00  0.00    +0.000 A 
ATOM     18  C   UNL     1       7.769   7.298   5.816  0.00  0.00    +0.000 A 
ATOM     19  C   UNL     1       6.824   6.694   6.640  0.00  0.00    +0.000 A 
ATOM     20  C   UNL     1       5.910   5.808   6.079  0.00  0.00    +0.000 A 
BRANCH  20  21
ATOM     21  O   UNL     1       4.956   5.221   6.860  0.00  0.00    +0.000 OA
ATOM     22  H   UNL     1       5.147   5.415   7.793  0.00  0.00    +0.000 HD
ENDBRANCH  20  21
ENDBRANCH  14  15
ENDBRANCH  12  14
ENDBRANCH   4  12
TORSDOF 5
