REMARK  Name = 
REMARK  7 active torsions:
REMARK  status: ('A' for Active; 'I' for Inactive)
REMARK    1  A    between atoms: C_1  and  C_2
REMARK    2  A    between atoms: C_4  and  C_5
REMARK    3  A    between atoms: C_5  and  N_6
REMARK    4  A    between atoms: C_7  and  C_9
REMARK    5  A    between atoms: C_16  and  C_17
REMARK    6  A    between atoms: C_17  and  N_18
REMARK    7  A    between atoms: C_19  and  C_21
REMARK                            x       y       z     vdW  Elec       q    Type
REMARK                         _______ _______ _______ _____ _____    ______ ____
ROOT
ATOM      1  C   UNL     1       2.567   0.244  -0.149  0.00  0.00    +0.000 C 
ATOM      2  C   UNL     1       1.068   0.131  -0.100  0.00  0.00    +0.000 A 
ATOM      3  C   UNL     1       0.308   1.318  -0.085  0.00  0.00    +0.000 A 
ATOM      4  C   UNL     1      -1.091   1.296  -0.017  0.00  0.00    +0.000 A 
ATOM      5  C   UNL     1      -1.738   0.057  -0.017  0.00  0.00    +0.000 A 
ATOM      6  C   UNL     1      -0.997  -1.131  -0.020  0.00  0.00    +0.000 A 
ATOM      7  C   UNL     1       0.411  -1.115  -0.027  0.00  0.00    +0.000 A 
ENDROOT
BRANCH   4   8
ATOM      8  C   UNL     1      -1.871   2.586   0.027  0.00  0.00    +0.000 C 
BRANCH   8   9
ATOM      9  N   UNL     1      -2.131   3.088  -1.299  0.00  0.00    +0.000 N 
ATOM     10  C   UNL     1      -2.868   4.230  -1.523  0.00  0.00    +0.000 C 
ATOM     11  O   UNL     1      -3.339   4.882  -0.596  0.00  0.00    +0.000 OA
ATOM     12  H   UNL     1      -1.708   2.616  -2.088  0.00  0.00    +0.000 HD
BRANCH  10  13
ATOM     13  C   UNL     1      -3.039   4.599  -2.915  0.00  0.00    +0.000 A 
ATOM     14  C   UNL     1      -3.685   5.712  -3.424  0.00  0.00    +0.000 A 
ATOM     15  N   UNL     1      -3.720   5.812  -4.804  0.00  0.00    +0.000 NA
ATOM     16  C   UNL     1      -3.107   4.775  -5.328  0.00  0.00    +0.000 A 
ATOM     17  S   UNL     1      -2.449   3.648  -4.219  0.00  0.00    +0.000 S 
ENDBRANCH  10  13
ENDBRANCH   8   9
ENDBRANCH   4   8
BRANCH   7  18
ATOM     18  C   UNL     1       1.154  -2.437   0.016  0.00  0.00    +0.000 C 
BRANCH  18  19
ATOM     19  N   UNL     1       1.336  -2.978  -1.307  0.00  0.00    +0.000 N 
ATOM     20  C   UNL     1       1.804  -4.246  -1.527  0.00  0.00    +0.000 C 
ATOM     21  O   UNL     1       2.073  -5.017  -0.606  0.00  0.00    +0.000 OA
ATOM     22  H   UNL     1       1.380  -2.299  -2.059  0.00  0.00    +0.000 HD
BRANCH  20  23
ATOM     23  C   UNL     1       1.899  -4.670  -2.935  0.00  0.00    +0.000 A 
ATOM     24  C   UNL     1       1.927  -6.019  -3.260  0.00  0.00    +0.000 A 
ATOM     25  S   UNL     1       1.906  -6.319  -4.940  0.00  0.00    +0.000 S 
ATOM     26  C   UNL     1       1.910  -4.654  -5.293  0.00  0.00    +0.000 A 
ATOM     27  N   UNL     1       1.877  -4.210  -6.579  0.00  0.00    +0.000 NA
ATOM     28  C   UNL     1       1.899  -2.923  -6.700  0.00  0.00    +0.000 A 
ATOM     29  N   UNL     1       1.968  -2.044  -5.651  0.00  0.00    +0.000 N 
ATOM     30  C   UNL     1       2.018  -2.448  -4.341  0.00  0.00    +0.000 A 
ATOM     31  O   UNL     1       2.108  -1.633  -3.429  0.00  0.00    +0.000 OA
ATOM     32  C   UNL     1       1.950  -3.883  -4.146  0.00  0.00    +0.000 A 
ATOM     33  H   UNL     1       2.003  -1.047  -5.811  0.00  0.00    +0.000 HD
ENDBRANCH  20  23
ENDBRANCH  18  19
ENDBRANCH   7  18
TORSDOF 6
