REMARK  Name = 
REMARK  6 active torsions:
REMARK  status: ('A' for Active; 'I' for Inactive)
REMARK    1  A    between atoms: C_2  and  C_20
REMARK    2  A    between atoms: N_3  and  C_4
REMARK    3  A    between atoms: C_4  and  C_5
REMARK    4  A    between atoms: C_8  and  C_9
REMARK    5  A    between atoms: C_9  and  N_10
REMARK    6  A    between atoms: C_11  and  C_13
REMARK                            x       y       z     vdW  Elec       q    Type
REMARK                         _______ _______ _______ _____ _____    ______ ____
ROOT
ATOM      1  C   UNL     1       3.393  -1.675  -3.205  0.00  0.00    +0.000 A 
ATOM      2  C   UNL     1       4.241  -0.774  -3.863  0.00  0.00    +0.000 A 
ATOM      3  C   UNL     1       5.153  -1.223  -4.825  0.00  0.00    +0.000 A 
ATOM      4  C   UNL     1       5.220  -2.580  -5.165  0.00  0.00    +0.000 A 
ATOM      5  C   UNL     1       4.368  -3.480  -4.512  0.00  0.00    +0.000 A 
ATOM      6  C   UNL     1       3.456  -3.031  -3.550  0.00  0.00    +0.000 A 
ENDROOT
BRANCH   1   7
ATOM      7  C   UNL     1       2.391  -1.183  -2.191  0.00  0.00    +0.000 C 
BRANCH   7  10
ATOM      8  O   UNL     1       0.057  -0.376  -0.882  0.00  0.00    +0.000 OA
ATOM      9  C   UNL     1       0.061  -0.411  -2.109  0.00  0.00    +0.000 C 
ATOM     10  N   UNL     1       1.138  -0.863  -2.826  0.00  0.00    +0.000 N 
ATOM     11  H   UNL     1       1.177  -0.680  -3.823  0.00  0.00    +0.000 HD
BRANCH   9  12
ATOM     12  C   UNL     1      -1.114  -0.012  -2.894  0.00  0.00    +0.000 A 
ATOM     13  C   UNL     1      -2.379  -0.048  -2.323  0.00  0.00    +0.000 A 
ATOM     14  S   UNL     1      -3.624   0.414  -3.395  0.00  0.00    +0.000 S 
ATOM     15  C   UNL     1      -2.511   0.725  -4.644  0.00  0.00    +0.000 A 
ATOM     16  N   UNL     1      -2.925   1.180  -5.857  0.00  0.00    +0.000 NA
ATOM     17  C   UNL     1      -1.970   1.405  -6.697  0.00  0.00    +0.000 A 
ATOM     18  N   UNL     1      -0.638   1.214  -6.436  0.00  0.00    +0.000 N 
ATOM     19  C   UNL     1      -0.177   0.729  -5.238  0.00  0.00    +0.000 A 
ATOM     20  O   UNL     1       1.019   0.526  -5.053  0.00  0.00    +0.000 OA
ATOM     21  C   UNL     1      -1.209   0.467  -4.254  0.00  0.00    +0.000 A 
ATOM     22  H   UNL     1       0.061   1.397  -7.140  0.00  0.00    +0.000 HD
ENDBRANCH   9  12
ENDBRANCH   7  10
ENDBRANCH   1   7
BRANCH   4  23
ATOM     23  C   UNL     1       6.176  -3.061  -6.225  0.00  0.00    +0.000 C 
BRANCH  23  24
ATOM     24  N   UNL     1       7.438  -3.494  -5.685  0.00  0.00    +0.000 N 
ATOM     25  C   UNL     1       8.433  -3.973  -6.507  0.00  0.00    +0.000 C 
ATOM     26  O   UNL     1       8.286  -4.127  -7.717  0.00  0.00    +0.000 OA
ATOM     27  H   UNL     1       7.704  -3.286  -4.725  0.00  0.00    +0.000 HD
BRANCH  25  28
ATOM     28  C   UNL     1       9.723  -4.383  -5.789  0.00  0.00    +0.000 C 
ATOM     29  C   UNL     1       9.691  -5.835  -5.355  0.00  0.00    +0.000 C 
ATOM     30  C   UNL     1      10.768  -5.891  -4.290  0.00  0.00    +0.000 C 
ATOM     31  C   UNL     1      10.784  -4.494  -3.682  0.00  0.00    +0.000 C 
ATOM     32  N   UNL     1       9.890  -3.665  -4.499  0.00  0.00    +0.000 NA
ATOM     33  H   UNL     1      10.313  -2.753  -4.671  0.00  0.00    +0.000 HD
ENDBRANCH  25  28
ENDBRANCH  23  24
ENDBRANCH   4  23
TORSDOF 6
