REMARK  Name = 
REMARK  7 active torsions:
REMARK  status: ('A' for Active; 'I' for Inactive)
REMARK    1  A    between atoms: C_2  and  C_19
REMARK    2  A    between atoms: N_3  and  C_4
REMARK    3  A    between atoms: C_4  and  C_5
REMARK    4  A    between atoms: C_8  and  C_9
REMARK    5  A    between atoms: C_9  and  O_10
REMARK    6  A    between atoms: C_9  and  C_11
REMARK    7  A    between atoms: C_11  and  N_12
REMARK                            x       y       z     vdW  Elec       q    Type
REMARK                         _______ _______ _______ _____ _____    ______ ____
ROOT
ATOM      1  C   UNL     1       2.298   1.589   1.938  0.00  0.00    +0.000 C 
ENDROOT
BRANCH   1   2
ATOM      2  C   UNL     1       3.226   2.407   2.789  0.00  0.00    +0.000 A 
ATOM      3  C   UNL     1       3.152   3.800   2.806  0.00  0.00    +0.000 A 
ATOM      4  C   UNL     1       4.008   4.530   3.624  0.00  0.00    +0.000 A 
ATOM      5  C   UNL     1       4.933   3.848   4.412  0.00  0.00    +0.000 A 
ATOM      6  N   UNL     1       5.025   2.491   4.419  0.00  0.00    +0.000 NA
ATOM      7  C   UNL     1       4.194   1.813   3.591  0.00  0.00    +0.000 A 
BRANCH   5   8
ATOM      8  C   UNL     1       5.843   4.612   5.356  0.00  0.00    +0.000 C 
BRANCH   8   9
ATOM      9  O   UNL     1       5.692   4.075   6.683  0.00  0.00    +0.000 OA
ATOM     10  H   UNL     1       5.528   3.120   6.544  0.00  0.00    +0.000 HD
ENDBRANCH   8   9
BRANCH   8  11
ATOM     11  C   UNL     1       7.338   4.498   4.974  0.00  0.00    +0.000 C 
BRANCH  11  12
ATOM     12  N   UNL     1       7.723   5.059   3.672  0.00  0.00    +0.000 NA
ATOM     13  C   UNL     1       7.452   6.493   3.556  0.00  0.00    +0.000 C 
ATOM     14  C   UNL     1       8.629   7.011   2.753  0.00  0.00    +0.000 C 
ATOM     15  N   UNL     1       9.737   6.188   3.242  0.00  0.00    +0.000 NA
ATOM     16  C   UNL     1       9.141   4.864   3.389  0.00  0.00    +0.000 C 
ATOM     17  H   UNL     1       9.979   6.505   4.179  0.00  0.00    +0.000 HD
ENDBRANCH  11  12
ENDBRANCH   8  11
ENDBRANCH   5   8
ENDBRANCH   1   2
BRANCH   1  20
ATOM     18  O   UNL     1       1.550   3.137  -0.285  0.00  0.00    +0.000 OA
ATOM     19  C   UNL     1       2.395   2.259  -0.434  0.00  0.00    +0.000 C 
ATOM     20  N   UNL     1       2.792   1.443   0.594  0.00  0.00    +0.000 N 
ATOM     21  H   UNL     1       3.597   0.839   0.465  0.00  0.00    +0.000 HD
BRANCH  19  22
ATOM     22  C   UNL     1       2.993   1.991  -1.749  0.00  0.00    +0.000 A 
ATOM     23  C   UNL     1       2.331   2.396  -2.899  0.00  0.00    +0.000 A 
ATOM     24  S   UNL     1       3.160   2.011  -4.338  0.00  0.00    +0.000 S 
ATOM     25  C   UNL     1       4.456   1.328  -3.473  0.00  0.00    +0.000 A 
ATOM     26  N   UNL     1       5.546   0.834  -4.120  0.00  0.00    +0.000 NA
ATOM     27  C   UNL     1       6.472   0.386  -3.340  0.00  0.00    +0.000 A 
ATOM     28  N   UNL     1       6.399   0.372  -1.972  0.00  0.00    +0.000 N 
ATOM     29  C   UNL     1       5.285   0.778  -1.278  0.00  0.00    +0.000 A 
ATOM     30  O   UNL     1       5.189   0.612  -0.067  0.00  0.00    +0.000 OA
ATOM     31  C   UNL     1       4.239   1.355  -2.106  0.00  0.00    +0.000 A 
ATOM     32  H   UNL     1       7.146  -0.026  -1.420  0.00  0.00    +0.000 HD
ENDBRANCH  19  22
ENDBRANCH   1  20
TORSDOF 7
