REMARK  Name = 
REMARK  8 active torsions:
REMARK  status: ('A' for Active; 'I' for Inactive)
REMARK    1  A    between atoms: N_1  and  C_2
REMARK    2  A    between atoms: C_2  and  C_3
REMARK    3  A    between atoms: C_3  and  N_4
REMARK    4  A    between atoms: C_5  and  C_7
REMARK    5  A    between atoms: C_9  and  C_10
REMARK    6  A    between atoms: C_10  and  N_11
REMARK    7  A    between atoms: C_14  and  N_15
REMARK    8  A    between atoms: C_16  and  C_18
REMARK                            x       y       z     vdW  Elec       q    Type
REMARK                         _______ _______ _______ _____ _____    ______ ____
ROOT
ATOM      1  N   UNL     1       8.666   1.466   2.140  0.00  0.00    +0.000 NA
ATOM      2  C   UNL     1       7.821   1.842   0.994  0.00  0.00    +0.000 C 
ATOM      3  C   UNL     1       6.833   2.971   1.296  0.00  0.00    +0.000 C 
ATOM      4  C   UNL     1       5.936   2.643   2.487  0.00  0.00    +0.000 C 
ATOM      5  C   UNL     1       6.835   2.334   3.684  0.00  0.00    +0.000 C 
ATOM      6  C   UNL     1       7.870   1.243   3.370  0.00  0.00    +0.000 C 
ENDROOT
BRANCH   4   7
ATOM      7  N   UNL     1       5.038   1.531   2.179  0.00  0.00    +0.000 N 
ATOM      8  C   UNL     1       3.748   1.414   2.629  0.00  0.00    +0.000 C 
ATOM      9  O   UNL     1       3.184   2.311   3.252  0.00  0.00    +0.000 OA
ATOM     10  H   UNL     1       5.475   0.704   1.789  0.00  0.00    +0.000 HD
BRANCH   8  11
ATOM     11  C   UNL     1       3.051   0.155   2.296  0.00  0.00    +0.000 A 
ATOM     12  C   UNL     1       1.663   0.102   2.342  0.00  0.00    +0.000 A 
ATOM     13  S   UNL     1       1.017  -1.434   1.974  0.00  0.00    +0.000 S 
ATOM     14  C   UNL     1       2.567  -2.088   1.725  0.00  0.00    +0.000 A 
ATOM     15  N   UNL     1       2.727  -3.395   1.380  0.00  0.00    +0.000 NA
ATOM     16  C   UNL     1       3.952  -3.761   1.217  0.00  0.00    +0.000 A 
ATOM     17  N   UNL     1       5.037  -2.940   1.368  0.00  0.00    +0.000 N 
ATOM     18  C   UNL     1       4.920  -1.611   1.690  0.00  0.00    +0.000 A 
ATOM     19  O   UNL     1       5.913  -0.896   1.749  0.00  0.00    +0.000 OA
ATOM     20  C   UNL     1       3.564  -1.145   1.906  0.00  0.00    +0.000 A 
ATOM     21  H   UNL     1       5.972  -3.278   1.202  0.00  0.00    +0.000 HD
ENDBRANCH   8  11
ENDBRANCH   4   7
BRANCH   1  22
ATOM     22  C   UNL     1       9.442   0.237   1.829  0.00  0.00    +0.000 C 
BRANCH  22  25
ATOM     23  C   UNL     1      11.191   0.265  -1.597  0.00  0.00    +0.000 A 
ATOM     24  C   UNL     1      10.202   0.106  -0.614  0.00  0.00    +0.000 A 
ATOM     25  C   UNL     1      10.488   0.388   0.732  0.00  0.00    +0.000 A 
ATOM     26  C   UNL     1      11.785   0.807   1.038  0.00  0.00    +0.000 A 
ATOM     27  C   UNL     1      12.717   0.905   0.005  0.00  0.00    +0.000 A 
ATOM     28  N   UNL     1      12.462   0.652  -1.306  0.00  0.00    +0.000 NA
BRANCH  23  30
ATOM     29  N   UNL     1      11.807   0.208  -4.011  0.00  0.00    +0.000 N 
ATOM     30  C   UNL     1      10.834  -0.009  -3.046  0.00  0.00    +0.000 C 
ATOM     31  O   UNL     1       9.715  -0.422  -3.334  0.00  0.00    +0.000 OA
ATOM     32  H   UNL     1      12.734   0.430  -3.668  0.00  0.00    +0.000 HD
BRANCH  29  33
ATOM     33  C   UNL     1      11.644  -0.211  -5.411  0.00  0.00    +0.000 C 
BRANCH  33  34
ATOM     34  C   UNL     1      10.665   0.637  -6.258  0.00  0.00    +0.000 C 
BRANCH  34  35
ATOM     35  N   UNL     1      10.662   0.260  -7.685  0.00  0.00    +0.000 NA
ATOM     36  H   UNL     1      10.205   0.999  -8.221  0.00  0.00    +0.000 HD
ATOM     37  H   UNL     1      10.073  -0.564  -7.815  0.00  0.00    +0.000 HD
ENDBRANCH  34  35
ENDBRANCH  33  34
ENDBRANCH  29  33
ENDBRANCH  23  30
ENDBRANCH  22  25
ENDBRANCH   1  22
TORSDOF 8
