REMARK  Name = 
REMARK  9 active torsions:
REMARK  status: ('A' for Active; 'I' for Inactive)
REMARK    1  A    between atoms: C_1  and  O_2
REMARK    2  A    between atoms: O_2  and  C_3
REMARK    3  A    between atoms: C_5  and  C_6
REMARK    4  A    between atoms: C_11  and  O_12
REMARK    5  A    between atoms: O_12  and  C_13
REMARK    6  A    between atoms: C_13  and  C_14
REMARK    7  A    between atoms: C_18  and  C_19
REMARK    8  A    between atoms: C_22  and  O_23
REMARK    9  A    between atoms: O_23  and  C_24
REMARK                            x       y       z     vdW  Elec       q    Type
REMARK                         _______ _______ _______ _____ _____    ______ ____
ROOT
ATOM      1  C   UNL     1       4.151   2.773   2.325  0.00  0.00    +0.000 A 
ATOM      2  C   UNL     1       4.028   4.019   1.706  0.00  0.00    +0.000 A 
ATOM      3  C   UNL     1       4.250   5.184   2.435  0.00  0.00    +0.000 A 
ATOM      4  C   UNL     1       4.572   5.111   3.794  0.00  0.00    +0.000 A 
ATOM      5  C   UNL     1       4.669   3.879   4.463  0.00  0.00    +0.000 A 
ATOM      6  C   UNL     1       4.485   2.716   3.692  0.00  0.00    +0.000 A 
ENDROOT
BRANCH   5   7
ATOM      7  C   UNL     1       4.827   3.800   5.934  0.00  0.00    +0.000 A 
ATOM      8  C   UNL     1       4.185   4.732   6.770  0.00  0.00    +0.000 A 
ATOM      9  C   UNL     1       4.220   4.624   8.164  0.00  0.00    +0.000 A 
ATOM     10  C   UNL     1       4.881   3.555   8.760  0.00  0.00    +0.000 A 
ATOM     11  C   UNL     1       5.572   2.649   7.958  0.00  0.00    +0.000 A 
ATOM     12  C   UNL     1       5.545   2.770   6.561  0.00  0.00    +0.000 A 
BRANCH  10  13
ATOM     13  O   UNL     1       4.924   3.306  10.103  0.00  0.00    +0.000 OA
BRANCH  13  14
ATOM     14  C   UNL     1       3.823   3.813  10.844  0.00  0.00    +0.000 C 
ATOM     15  F   UNL     1       3.734   3.086  11.988  0.00  0.00    +0.000 F 
ATOM     16  F   UNL     1       4.096   5.088  11.212  0.00  0.00    +0.000 F 
ENDBRANCH  13  14
ENDBRANCH  10  13
ENDBRANCH   5   7
BRANCH   1  17
ATOM     17  C   UNL     1       3.734   1.508   1.610  0.00  0.00    +0.000 C 
BRANCH  17  18
ATOM     18  O   UNL     1       4.320   1.393   0.315  0.00  0.00    +0.000 OA
BRANCH  18  24
ATOM     19  C   UNL     1       3.109  -0.766  -0.078  0.00  0.00    +0.000 A 
ATOM     20  C   UNL     1       2.956  -1.852  -0.952  0.00  0.00    +0.000 A 
ATOM     21  C   UNL     1       3.687  -1.943  -2.143  0.00  0.00    +0.000 A 
ATOM     22  C   UNL     1       4.587  -0.924  -2.468  0.00  0.00    +0.000 A 
ATOM     23  C   UNL     1       4.749   0.163  -1.599  0.00  0.00    +0.000 A 
ATOM     24  C   UNL     1       4.021   0.256  -0.404  0.00  0.00    +0.000 A 
BRANCH  21  25
ATOM     25  C   UNL     1       3.443  -3.139  -3.003  0.00  0.00    +0.000 C 
ATOM     26  N   UNL     1       4.101  -3.244  -4.192  0.00  0.00    +0.000 N 
ATOM     27  O   UNL     1       2.662  -4.022  -2.658  0.00  0.00    +0.000 OA
ATOM     28  H   UNL     1       4.739  -2.565  -4.571  0.00  0.00    +0.000 HD
ATOM     29  H   UNL     1       3.900  -4.065  -4.750  0.00  0.00    +0.000 HD
ENDBRANCH  21  25
BRANCH  19  31
ATOM     30  C   UNL     1       1.772  -1.809   1.616  0.00  0.00    +0.000 C 
ATOM     31  O   UNL     1       2.349  -0.639   1.054  0.00  0.00    +0.000 OA
ENDBRANCH  19  31
ENDBRANCH  18  24
ENDBRANCH  17  18
ENDBRANCH   1  17
TORSDOF 8
