REMARK  Name = 
REMARK  5 active torsions:
REMARK  status: ('A' for Active; 'I' for Inactive)
REMARK    1  A    between atoms: N_1  and  C_2
REMARK    2  A    between atoms: C_2  and  C_3
REMARK    3  A    between atoms: C_3  and  C_4
REMARK    4  A    between atoms: C_7  and  C_8
REMARK    5  A    between atoms: C_8  and  N_9
REMARK                            x       y       z     vdW  Elec       q    Type
REMARK                         _______ _______ _______ _____ _____    ______ ____
ROOT
ATOM      1  C   UNL     1       4.524   0.640  -1.187  0.00  0.00    +0.000 A 
ATOM      2  C   UNL     1       5.280   1.799  -0.969  0.00  0.00    +0.000 A 
ATOM      3  C   UNL     1       6.674   1.731  -0.876  0.00  0.00    +0.000 A 
ATOM      4  C   UNL     1       7.340   0.503  -1.002  0.00  0.00    +0.000 A 
ATOM      5  C   UNL     1       6.578  -0.649  -1.236  0.00  0.00    +0.000 A 
ATOM      6  C   UNL     1       5.187  -0.582  -1.335  0.00  0.00    +0.000 A 
ENDROOT
BRANCH   1   7
ATOM      7  C   UNL     1       3.017   0.701  -1.249  0.00  0.00    +0.000 C 
BRANCH   7   8
ATOM      8  C   UNL     1       2.503   0.942  -2.670  0.00  0.00    +0.000 C 
BRANCH   8   9
ATOM      9  N   UNL     1       1.040   0.978  -2.703  0.00  0.00    +0.000 NA
ATOM     10  H   UNL     1       0.731   1.159  -3.658  0.00  0.00    +0.000 HD
ATOM     11  H   UNL     1       0.701   1.758  -2.141  0.00  0.00    +0.000 HD
ENDBRANCH   8   9
ENDBRANCH   7   8
ENDBRANCH   1   7
BRANCH   4  12
ATOM     12  C   UNL     1       8.837   0.402  -0.781  0.00  0.00    +0.000 C 
BRANCH  12  13
ATOM     13  N   UNL     1       9.111   0.029   0.602  0.00  0.00    +0.000 N 
ATOM     14  N   UNL     1       9.186  -1.282   0.935  0.00  0.00    +0.000 NA
ATOM     15  C   UNL     1       8.894  -1.277   2.239  0.00  0.00    +0.000 A 
ATOM     16  C   UNL     1       8.730   0.027   2.757  0.00  0.00    +0.000 A 
ATOM     17  C   UNL     1       8.357   0.589   3.989  0.00  0.00    +0.000 A 
ATOM     18  C   UNL     1       8.375   1.982   4.127  0.00  0.00    +0.000 A 
ATOM     19  C   UNL     1       8.793   2.800   3.077  0.00  0.00    +0.000 A 
ATOM     20  C   UNL     1       9.127   2.261   1.831  0.00  0.00    +0.000 A 
ATOM     21  C   UNL     1       9.042   0.869   1.693  0.00  0.00    +0.000 A 
ENDBRANCH  12  13
ENDBRANCH   4  12
TORSDOF 5
