REMARK  Name = 
REMARK  6 active torsions:
REMARK  status: ('A' for Active; 'I' for Inactive)
REMARK    1  A    between atoms: C_2  and  C_4
REMARK    2  A    between atoms: C_7  and  N_8
REMARK    3  A    between atoms: N_8  and  C_9
REMARK    4  A    between atoms: C_9  and  C_10
REMARK    5  A    between atoms: C_10  and  C_13
REMARK    6  A    between atoms: C_17  and  C_18
REMARK                            x       y       z     vdW  Elec       q    Type
REMARK                         _______ _______ _______ _____ _____    ______ ____
ROOT
ATOM      1  C   UNL     1       5.986   6.576   3.153  0.00  0.00    +0.000 C 
ATOM      2  F   UNL     1       6.603   5.362   3.290  0.00  0.00    +0.000 F 
ATOM      3  F   UNL     1       6.859   7.339   2.426  0.00  0.00    +0.000 F 
ENDROOT
BRANCH   1   4
ATOM      4  C   UNL     1       5.648   7.193   4.499  0.00  0.00    +0.000 A 
ATOM      5  C   UNL     1       5.254   6.352   5.550  0.00  0.00    +0.000 A 
ATOM      6  C   UNL     1       4.859   6.890   6.766  0.00  0.00    +0.000 A 
ATOM      7  C   UNL     1       4.868   8.271   6.947  0.00  0.00    +0.000 A 
ATOM      8  C   UNL     1       5.315   9.151   5.941  0.00  0.00    +0.000 A 
ATOM      9  C   UNL     1       5.681   8.590   4.705  0.00  0.00    +0.000 A 
BRANCH   8  10
ATOM     10  C   UNL     1       5.355  10.650   6.266  0.00  0.00    +0.000 C 
ATOM     11  C   UNL     1       5.826  11.631   5.171  0.00  0.00    +0.000 C 
ATOM     12  C   UNL     1       7.348  11.680   4.998  0.00  0.00    +0.000 C 
ATOM     13  C   UNL     1       8.129  11.684   6.315  0.00  0.00    +0.000 C 
ATOM     14  N   UNL     1       7.619  10.722   7.286  0.00  0.00    +0.000 NA
ATOM     15  C   UNL     1       6.193  10.944   7.534  0.00  0.00    +0.000 C 
ATOM     16  H   UNL     1       8.139  10.801   8.158  0.00  0.00    +0.000 HD
ENDBRANCH   8  10
ENDBRANCH   1   4
BRANCH   1  17
ATOM     17  C   UNL     1       4.693   6.385   2.312  0.00  0.00    +0.000 C 
BRANCH  17  18
ATOM     18  N   UNL     1       4.922   5.698   1.026  0.00  0.00    +0.000 N 
ATOM     19  H   UNL     1       5.853   5.838   0.636  0.00  0.00    +0.000 HD
BRANCH  18  23
ATOM     20  C   UNL     1       1.910   5.084  -1.866  0.00  0.00    +0.000 A 
ATOM     21  C   UNL     1       1.578   5.657  -0.637  0.00  0.00    +0.000 A 
ATOM     22  C   UNL     1       2.569   5.880   0.325  0.00  0.00    +0.000 A 
ATOM     23  C   UNL     1       3.912   5.569   0.077  0.00  0.00    +0.000 A 
ATOM     24  C   UNL     1       4.219   4.962  -1.149  0.00  0.00    +0.000 A 
ATOM     25  C   UNL     1       3.235   4.720  -2.115  0.00  0.00    +0.000 A 
BRANCH  20  27
ATOM     26  N   UNL     1      -0.217   5.624  -2.919  0.00  0.00    +0.000 N 
ATOM     27  C   UNL     1       0.882   4.816  -2.913  0.00  0.00    +0.000 C 
ATOM     28  O   UNL     1       1.042   3.939  -3.762  0.00  0.00    +0.000 OA
ATOM     29  H   UNL     1      -0.848   5.503  -3.709  0.00  0.00    +0.000 HD
ATOM     30  H   UNL     1      -0.253   6.498  -2.420  0.00  0.00    +0.000 HD
ENDBRANCH  20  27
ENDBRANCH  18  23
ENDBRANCH  17  18
ENDBRANCH   1  17
TORSDOF 6
