REMARK  Name = 
REMARK  5 active torsions:
REMARK  status: ('A' for Active; 'I' for Inactive)
REMARK    1  A    between atoms: C_1  and  C_2
REMARK    2  A    between atoms: C_2  and  N_3
REMARK    3  A    between atoms: C_2  and  C_13
REMARK    4  A    between atoms: C_7  and  C_8
REMARK    5  A    between atoms: C_16  and  C_17
REMARK                            x       y       z     vdW  Elec       q    Type
REMARK                         _______ _______ _______ _____ _____    ______ ____
ROOT
ATOM      1  C   UNL     1       0.981   0.023   0.256  0.00  0.00    +0.000 C 
ATOM      2  C   UNL     1       2.491   0.094   0.003  0.00  0.00    +0.000 C 
ENDROOT
BRANCH   2   3
ATOM      3  N   UNL     1       2.798   0.308  -1.408  0.00  0.00    +0.000 N 
ATOM      4  C   UNL     1       2.926  -0.713  -2.325  0.00  0.00    +0.000 A 
ATOM      5  C   UNL     1       2.266  -1.944  -2.259  0.00  0.00    +0.000 A 
ATOM      6  N   UNL     1       2.354  -2.921  -3.198  0.00  0.00    +0.000 NA
ATOM      7  C   UNL     1       3.128  -2.605  -4.267  0.00  0.00    +0.000 A 
ATOM      8  C   UNL     1       3.786  -1.392  -4.365  0.00  0.00    +0.000 A 
ATOM      9  N   UNL     1       3.706  -0.433  -3.395  0.00  0.00    +0.000 NA
ATOM     10  H   UNL     1       3.541   0.980  -1.599  0.00  0.00    +0.000 HD
BRANCH   7  11
ATOM     11  C   UNL     1       3.236  -3.620  -5.351  0.00  0.00    +0.000 C 
ATOM     12  N   UNL     1       2.550  -4.788  -5.160  0.00  0.00    +0.000 N 
ATOM     13  O   UNL     1       3.899  -3.424  -6.366  0.00  0.00    +0.000 OA
ATOM     14  H   UNL     1       2.002  -4.930  -4.317  0.00  0.00    +0.000 HD
ATOM     15  H   UNL     1       2.577  -5.502  -5.874  0.00  0.00    +0.000 HD
ENDBRANCH   7  11
ENDBRANCH   2   3
BRANCH   2  16
ATOM     16  C   UNL     1       3.082   1.248   0.803  0.00  0.00    +0.000 A 
ATOM     17  C   UNL     1       4.057   0.991   1.776  0.00  0.00    +0.000 A 
ATOM     18  C   UNL     1       4.666   2.043   2.465  0.00  0.00    +0.000 A 
ATOM     19  C   UNL     1       4.311   3.373   2.197  0.00  0.00    +0.000 A 
ATOM     20  C   UNL     1       3.311   3.621   1.262  0.00  0.00    +0.000 A 
ATOM     21  F   UNL     1       2.941   4.879   0.995  0.00  0.00    +0.000 F 
ATOM     22  C   UNL     1       2.697   2.578   0.569  0.00  0.00    +0.000 A 
BRANCH  19  23
ATOM     23  C   UNL     1       5.010   4.517   2.866  0.00  0.00    +0.000 C 
ATOM     24  F   UNL     1       5.972   4.106   3.744  0.00  0.00    +0.000 F 
ATOM     25  F   UNL     1       5.653   5.332   1.985  0.00  0.00    +0.000 F 
ATOM     26  F   UNL     1       4.175   5.312   3.589  0.00  0.00    +0.000 F 
ENDBRANCH  19  23
ENDBRANCH   2  16
TORSDOF 4
