REMARK  Name = 
REMARK  5 active torsions:
REMARK  status: ('A' for Active; 'I' for Inactive)
REMARK    1  A    between atoms: C_2  and  C_4
REMARK    2  A    between atoms: C_7  and  C_8
REMARK    3  A    between atoms: C_8  and  O_9
REMARK    4  A    between atoms: O_9  and  C_10
REMARK    5  A    between atoms: C_12  and  C_13
REMARK                            x       y       z     vdW  Elec       q    Type
REMARK                         _______ _______ _______ _____ _____    ______ ____
ROOT
ATOM      1  O   UNL     1       5.171  -3.659   4.678  0.00  0.00    +0.000 OA
ENDROOT
BRANCH   1   2
ATOM      2  C   UNL     1       5.675  -4.409   5.726  0.00  0.00    +0.000 A 
ATOM      3  C   UNL     1       6.151  -3.715   6.816  0.00  0.00    +0.000 A 
ATOM      4  C   UNL     1       6.614  -4.476   7.874  0.00  0.00    +0.000 A 
ATOM      5  N   UNL     1       6.622  -5.828   7.817  0.00  0.00    +0.000 NA
ATOM      6  C   UNL     1       6.141  -6.395   6.705  0.00  0.00    +0.000 A 
ATOM      7  N   UNL     1       5.661  -5.749   5.641  0.00  0.00    +0.000 NA
BRANCH   4   8
ATOM      8  C   UNL     1       7.095  -3.907   9.152  0.00  0.00    +0.000 A 
ATOM      9  C   UNL     1       6.597  -2.696   9.671  0.00  0.00    +0.000 A 
ATOM     10  C   UNL     1       7.012  -2.208  10.917  0.00  0.00    +0.000 A 
ATOM     11  C   UNL     1       7.939  -2.921  11.671  0.00  0.00    +0.000 A 
ATOM     12  C   UNL     1       8.449  -4.110  11.170  0.00  0.00    +0.000 A 
ATOM     13  F   UNL     1       9.338  -4.803  11.894  0.00  0.00    +0.000 F 
ATOM     14  C   UNL     1       8.040  -4.601   9.933  0.00  0.00    +0.000 A 
ENDBRANCH   4   8
ENDBRANCH   1   2
BRANCH   1  15
ATOM     15  C   UNL     1       4.637  -4.479   3.634  0.00  0.00    +0.000 C 
BRANCH  15  19
ATOM     16  C   UNL     1       2.760  -2.054   0.580  0.00  0.00    +0.000 A 
ATOM     17  C   UNL     1       4.107  -1.854   0.904  0.00  0.00    +0.000 A 
ATOM     18  C   UNL     1       4.713  -2.632   1.897  0.00  0.00    +0.000 A 
ATOM     19  C   UNL     1       3.980  -3.614   2.580  0.00  0.00    +0.000 A 
ATOM     20  C   UNL     1       2.631  -3.808   2.248  0.00  0.00    +0.000 A 
ATOM     21  C   UNL     1       2.024  -3.029   1.261  0.00  0.00    +0.000 A 
BRANCH  16  23
ATOM     22  N   UNL     1       2.829  -0.705  -1.450  0.00  0.00    +0.000 N 
ATOM     23  C   UNL     1       2.064  -1.240  -0.450  0.00  0.00    +0.000 C 
ATOM     24  O   UNL     1       0.851  -1.079  -0.434  0.00  0.00    +0.000 OA
ATOM     25  H   UNL     1       2.325  -0.244  -2.197  0.00  0.00    +0.000 HD
ATOM     26  H   UNL     1       3.767  -1.025  -1.643  0.00  0.00    +0.000 HD
ENDBRANCH  16  23
ENDBRANCH  15  19
ENDBRANCH   1  15
TORSDOF 5
