REMARK  Name = 
REMARK  3 active torsions:
REMARK  status: ('A' for Active; 'I' for Inactive)
REMARK    1  A    between atoms: C_2  and  C_3
REMARK    2  A    between atoms: N_7  and  C_8
REMARK    3  A    between atoms: C_8  and  C_9
REMARK                            x       y       z     vdW  Elec       q    Type
REMARK                         _______ _______ _______ _____ _____    ______ ____
ROOT
ATOM      1  C   UNL     1       4.481  -0.301   3.241  0.00  0.00    +0.000 A 
ATOM      2  C   UNL     1       4.226   0.321   2.033  0.00  0.00    +0.000 A 
ATOM      3  C   UNL     1       5.215   0.288   1.052  0.00  0.00    +0.000 A 
ATOM      4  C   UNL     1       6.424  -0.361   1.292  0.00  0.00    +0.000 A 
ATOM      5  N   UNL     1       7.334  -0.411   0.206  0.00  0.00    +0.000 N 
ATOM      6  N   UNL     1       6.628  -0.962   2.482  0.00  0.00    +0.000 NA
ATOM      7  N   UNL     1       5.652  -0.922   3.476  0.00  0.00    +0.000 NA
ATOM      8  H   UNL     1       7.416   0.529  -0.176  0.00  0.00    +0.000 HD
ENDROOT
BRANCH   5   9
ATOM      9  C   UNL     1       8.645  -1.094   0.292  0.00  0.00    +0.000 C 
ATOM     10  C   UNL     1       8.853  -2.171  -0.767  0.00  0.00    +0.000 C 
ATOM     11  C   UNL     1       8.788  -2.548   0.676  0.00  0.00    +0.000 C 
BRANCH   9  12
ATOM     12  C   UNL     1       9.766  -0.102   0.551  0.00  0.00    +0.000 A 
ATOM     13  C   UNL     1      10.051   0.373   1.838  0.00  0.00    +0.000 A 
ATOM     14  C   UNL     1      10.873   1.485   2.018  0.00  0.00    +0.000 A 
ATOM     15  C   UNL     1      11.421   2.085   0.899  0.00  0.00    +0.000 A 
ATOM     16  N   UNL     1      11.243   1.626  -0.356  0.00  0.00    +0.000 NA
ATOM     17  C   UNL     1      10.432   0.550  -0.493  0.00  0.00    +0.000 A 
ENDBRANCH   9  12
ENDBRANCH   5   9
BRANCH   1  19
ATOM     18  N   UNL     1       2.685  -0.312   5.113  0.00  0.00    +0.000 NA
ATOM     19  C   UNL     1       3.504  -0.324   4.292  0.00  0.00    +0.000 C 
ENDBRANCH   1  19
TORSDOF 3
