REMARK  Name = 
REMARK  7 active torsions:
REMARK  status: ('A' for Active; 'I' for Inactive)
REMARK    1  A    between atoms: C_2  and  C_3
REMARK    2  A    between atoms: C_3  and  N_4
REMARK    3  A    between atoms: C_5  and  C_7
REMARK    4  A    between atoms: N_17  and  C_18
REMARK    5  A    between atoms: C_18  and  C_19
REMARK    6  A    between atoms: C_22  and  C_23
REMARK    7  A    between atoms: C_23  and  N_24
REMARK                            x       y       z     vdW  Elec       q    Type
REMARK                         _______ _______ _______ _____ _____    ______ ____
ROOT
ATOM      1  O   UNL     1       2.020  -0.816   0.435  0.00  0.00    +0.000 OA
ATOM      2  C   UNL     1       2.130  -0.238  -0.643  0.00  0.00    +0.000 C 
ATOM      3  N   UNL     1       3.300  -0.199  -1.372  0.00  0.00    +0.000 N 
ATOM      4  H   UNL     1       3.364   0.464  -2.138  0.00  0.00    +0.000 HD
ENDROOT
BRANCH   2   5
ATOM      5  C   UNL     1       0.986   0.580  -1.246  0.00  0.00    +0.000 C 
BRANCH   5   6
ATOM      6  N   UNL     1       0.967   1.923  -0.707  0.00  0.00    +0.000 N 
ATOM      7  C   UNL     1       1.615   2.966  -1.310  0.00  0.00    +0.000 C 
ATOM      8  O   UNL     1       2.289   2.787  -2.325  0.00  0.00    +0.000 OA
ATOM      9  H   UNL     1       0.505   2.047   0.191  0.00  0.00    +0.000 HD
BRANCH   7  10
ATOM     10  C   UNL     1       1.481   4.299  -0.701  0.00  0.00    +0.000 A 
ATOM     11  C   UNL     1       2.101   5.388  -1.303  0.00  0.00    +0.000 A 
ATOM     12  S   UNL     1       1.865   6.862  -0.482  0.00  0.00    +0.000 S 
ATOM     13  C   UNL     1       0.925   6.107   0.716  0.00  0.00    +0.000 A 
ATOM     14  N   UNL     1       0.419   6.824   1.756  0.00  0.00    +0.000 NA
ATOM     15  C   UNL     1      -0.270   6.131   2.598  0.00  0.00    +0.000 A 
ATOM     16  N   UNL     1      -0.510   4.786   2.488  0.00  0.00    +0.000 N 
ATOM     17  C   UNL     1      -0.034   4.024   1.448  0.00  0.00    +0.000 A 
ATOM     18  O   UNL     1      -0.290   2.828   1.373  0.00  0.00    +0.000 OA
ATOM     19  C   UNL     1       0.774   4.750   0.483  0.00  0.00    +0.000 A 
ATOM     20  H   UNL     1      -1.066   4.301   3.177  0.00  0.00    +0.000 HD
ENDBRANCH   7  10
ENDBRANCH   5   6
ENDBRANCH   2   5
BRANCH   3  21
ATOM     21  C   UNL     1       4.508  -0.864  -0.936  0.00  0.00    +0.000 C 
BRANCH  21  22
ATOM     22  C   UNL     1       5.025  -1.823  -1.982  0.00  0.00    +0.000 A 
ATOM     23  C   UNL     1       5.897  -1.395  -2.992  0.00  0.00    +0.000 A 
ATOM     24  C   UNL     1       6.344  -2.285  -3.979  0.00  0.00    +0.000 A 
ATOM     25  C   UNL     1       5.917  -3.621  -3.990  0.00  0.00    +0.000 A 
ATOM     26  C   UNL     1       5.071  -4.056  -2.960  0.00  0.00    +0.000 A 
ATOM     27  C   UNL     1       4.622  -3.166  -1.975  0.00  0.00    +0.000 A 
BRANCH  25  28
ATOM     28  C   UNL     1       6.311  -4.560  -5.108  0.00  0.00    +0.000 C 
BRANCH  28  29
ATOM     29  N   UNL     1       7.556  -5.252  -4.854  0.00  0.00    +0.000 N 
ATOM     30  C   UNL     1       7.984  -6.208  -5.745  0.00  0.00    +0.000 C 
ATOM     31  O   UNL     1       7.317  -6.562  -6.715  0.00  0.00    +0.000 OA
ATOM     32  N   UNL     1       9.219  -6.749  -5.463  0.00  0.00    +0.000 N 
ATOM     33  C   UNL     1      10.042  -6.548  -4.284  0.00  0.00    +0.000 C 
ATOM     34  C   UNL     1      11.433  -6.917  -4.768  0.00  0.00    +0.000 C 
ATOM     35  C   UNL     1      11.174  -8.076  -5.723  0.00  0.00    +0.000 C 
ATOM     36  C   UNL     1       9.786  -7.797  -6.300  0.00  0.00    +0.000 C 
ATOM     37  H   UNL     1       8.278  -4.697  -4.435  0.00  0.00    +0.000 HD
ENDBRANCH  28  29
ENDBRANCH  25  28
ENDBRANCH  21  22
ENDBRANCH   3  21
TORSDOF 7
