REMARK  Name = 
REMARK  5 active torsions:
REMARK  status: ('A' for Active; 'I' for Inactive)
REMARK    1  A    between atoms: C_2  and  C_18
REMARK    2  A    between atoms: N_3  and  C_4
REMARK    3  A    between atoms: C_4  and  C_5
REMARK    4  A    between atoms: C_8  and  O_9
REMARK    5  A    between atoms: O_9  and  C_10
REMARK                            x       y       z     vdW  Elec       q    Type
REMARK                         _______ _______ _______ _____ _____    ______ ____
ROOT
ATOM      1  O   UNL     1       2.764   0.682   2.211  0.00  0.00    +0.000 OA
ATOM      2  C   UNL     1       3.152   0.284   1.115  0.00  0.00    +0.000 C 
ATOM      3  N   UNL     1       2.876  -0.972   0.645  0.00  0.00    +0.000 N 
ATOM      4  H   UNL     1       3.343  -1.308  -0.190  0.00  0.00    +0.000 HD
ENDROOT
BRANCH   2   5
ATOM      5  C   UNL     1       3.911   1.158   0.213  0.00  0.00    +0.000 A 
ATOM      6  C   UNL     1       3.797   2.538   0.324  0.00  0.00    +0.000 A 
ATOM      7  S   UNL     1       4.775   3.393  -0.781  0.00  0.00    +0.000 S 
ATOM      8  C   UNL     1       5.410   1.949  -1.423  0.00  0.00    +0.000 A 
ATOM      9  N   UNL     1       6.361   1.971  -2.393  0.00  0.00    +0.000 NA
ATOM     10  C   UNL     1       6.781   0.806  -2.752  0.00  0.00    +0.000 A 
ATOM     11  N   UNL     1       6.320  -0.384  -2.249  0.00  0.00    +0.000 N 
ATOM     12  C   UNL     1       5.293  -0.456  -1.339  0.00  0.00    +0.000 A 
ATOM     13  O   UNL     1       4.784  -1.530  -1.041  0.00  0.00    +0.000 OA
ATOM     14  C   UNL     1       4.843   0.831  -0.838  0.00  0.00    +0.000 A 
ATOM     15  H   UNL     1       6.654  -1.264  -2.610  0.00  0.00    +0.000 HD
ENDBRANCH   2   5
BRANCH   3  16
ATOM     16  C   UNL     1       2.179  -1.961   1.424  0.00  0.00    +0.000 C 
BRANCH  16  17
ATOM     17  C   UNL     1       3.124  -2.869   2.165  0.00  0.00    +0.000 A 
ATOM     18  C   UNL     1       3.621  -2.487   3.418  0.00  0.00    +0.000 A 
ATOM     19  C   UNL     1       4.450  -3.343   4.145  0.00  0.00    +0.000 A 
ATOM     20  C   UNL     1       4.769  -4.607   3.644  0.00  0.00    +0.000 A 
ATOM     21  C   UNL     1       4.333  -4.968   2.367  0.00  0.00    +0.000 A 
ATOM     22  C   UNL     1       3.520  -4.102   1.628  0.00  0.00    +0.000 A 
BRANCH  20  23
ATOM     23  O   UNL     1       5.565  -5.520   4.298  0.00  0.00    +0.000 OA
BRANCH  23  24
ATOM     24  C   UNL     1       5.497  -5.595   5.685  0.00  0.00    +0.000 A 
ATOM     25  N   UNL     1       4.366  -5.261   6.312  0.00  0.00    +0.000 NA
ATOM     26  C   UNL     1       4.433  -5.331   7.636  0.00  0.00    +0.000 A 
ATOM     27  N   UNL     1       5.486  -5.731   8.344  0.00  0.00    +0.000 NA
ATOM     28  C   UNL     1       6.532  -6.085   7.601  0.00  0.00    +0.000 A 
ATOM     29  N   UNL     1       6.605  -6.042   6.275  0.00  0.00    +0.000 NA
ENDBRANCH  23  24
ENDBRANCH  20  23
ENDBRANCH  16  17
ENDBRANCH   3  16
TORSDOF 5
