REMARK  Name = 
REMARK  9 active torsions:
REMARK  status: ('A' for Active; 'I' for Inactive)
REMARK    1  A    between atoms: C_1  and  C_2
REMARK    2  A    between atoms: C_2  and  N_3
REMARK    3  A    between atoms: N_3  and  C_4
REMARK    4  A    between atoms: N_3  and  C_25
REMARK    5  A    between atoms: C_4  and  C_5
REMARK    6  A    between atoms: C_8  and  C_9
REMARK    7  A    between atoms: N_11  and  C_12
REMARK    8  A    between atoms: C_12  and  C_13
REMARK    9  A    between atoms: C_25  and  C_26
REMARK                            x       y       z     vdW  Elec       q    Type
REMARK                         _______ _______ _______ _____ _____    ______ ____
ROOT
ATOM      1  C   UNL     1       0.786   0.903   2.458  0.00  0.00    +0.000 A 
ATOM      2  C   UNL     1       0.256   0.123   3.486  0.00  0.00    +0.000 A 
ATOM      3  C   UNL     1      -1.131   0.002   3.597  0.00  0.00    +0.000 A 
ATOM      4  C   UNL     1      -1.952   0.668   2.686  0.00  0.00    +0.000 A 
ATOM      5  C   UNL     1      -1.351   1.480   1.743  0.00  0.00    +0.000 A 
ATOM      6  N   UNL     1      -0.012   1.616   1.622  0.00  0.00    +0.000 NA
ENDROOT
BRANCH   4   7
ATOM      7  C   UNL     1      -3.425   0.545   2.676  0.00  0.00    +0.000 C 
ATOM      8  O   UNL     1      -4.118   1.459   2.247  0.00  0.00    +0.000 OA
ATOM      9  N   UNL     1      -3.923  -0.655   3.124  0.00  0.00    +0.000 N 
ATOM     10  H   UNL     1      -3.287  -1.450   3.124  0.00  0.00    +0.000 HD
BRANCH   9  11
ATOM     11  C   UNL     1      -5.324  -0.968   3.030  0.00  0.00    +0.000 C 
BRANCH  11  12
ATOM     12  C   UNL     1      -5.750  -1.856   4.166  0.00  0.00    +0.000 A 
ATOM     13  C   UNL     1      -7.010  -1.752   4.737  0.00  0.00    +0.000 A 
ATOM     14  S   UNL     1      -7.259  -2.825   6.039  0.00  0.00    +0.000 S 
ATOM     15  C   UNL     1      -5.695  -3.475   5.880  0.00  0.00    +0.000 A 
ATOM     16  N   UNL     1      -5.244  -4.432   6.732  0.00  0.00    +0.000 NA
ATOM     17  C   UNL     1      -4.045  -4.840   6.492  0.00  0.00    +0.000 A 
ATOM     18  N   UNL     1      -3.258  -4.392   5.459  0.00  0.00    +0.000 N 
ATOM     19  C   UNL     1      -3.675  -3.438   4.560  0.00  0.00    +0.000 A 
ATOM     20  O   UNL     1      -2.955  -3.076   3.635  0.00  0.00    +0.000 OA
ATOM     21  C   UNL     1      -5.006  -2.912   4.817  0.00  0.00    +0.000 A 
ATOM     22  H   UNL     1      -2.335  -4.776   5.313  0.00  0.00    +0.000 HD
ENDBRANCH  11  12
ENDBRANCH   9  11
ENDBRANCH   4   7
BRANCH   1  23
ATOM     23  C   UNL     1       2.296   0.949   2.237  0.00  0.00    +0.000 C 
BRANCH  23  24
ATOM     24  N   UNL     1       2.785   1.033   0.834  0.00  0.00    +0.000 NA
BRANCH  24  26
ATOM     25  C   UNL     1       2.984   3.558   0.945  0.00  0.00    +0.000 C 
ATOM     26  C   UNL     1       2.516   2.326   0.179  0.00  0.00    +0.000 C 
ENDBRANCH  24  26
BRANCH  24  27
ATOM     27  C   UNL     1       2.265  -0.100   0.036  0.00  0.00    +0.000 C 
BRANCH  27  28
ATOM     28  C   UNL     1       2.852  -0.215  -1.394  0.00  0.00    +0.000 C 
ATOM     29  C   UNL     1       2.224  -1.392  -2.160  0.00  0.00    +0.000 C 
ATOM     30  C   UNL     1       2.739  -2.745  -1.673  0.00  0.00    +0.000 C 
ATOM     31  N   UNL     1       4.201  -2.819  -1.714  0.00  0.00    +0.000 NA
ATOM     32  C   UNL     1       4.814  -1.751  -0.917  0.00  0.00    +0.000 C 
ATOM     33  C   UNL     1       4.379  -0.366  -1.394  0.00  0.00    +0.000 C 
ATOM     34  H   UNL     1       4.505  -2.713  -2.683  0.00  0.00    +0.000 HD
ENDBRANCH  27  28
ENDBRANCH  24  27
ENDBRANCH  23  24
ENDBRANCH   1  23
TORSDOF 8
