REMARK  Name = 
REMARK  4 active torsions:
REMARK  status: ('A' for Active; 'I' for Inactive)
REMARK    1  A    between atoms: C_2  and  C_4
REMARK    2  A    between atoms: N_8  and  C_9
REMARK    3  A    between atoms: C_9  and  C_10
REMARK    4  A    between atoms: C_14  and  C_15
REMARK                            x       y       z     vdW  Elec       q    Type
REMARK                         _______ _______ _______ _____ _____    ______ ____
ROOT
ATOM      1  C   UNL     1       5.142  -5.979   0.290  0.00  0.00    +0.000 C 
ENDROOT
BRANCH   1   6
ATOM      2  C   UNL     1       7.813  -2.325  -2.212  0.00  0.00    +0.000 A 
ATOM      3  C   UNL     1       7.478  -3.617  -2.602  0.00  0.00    +0.000 A 
ATOM      4  C   UNL     1       6.740  -4.420  -1.731  0.00  0.00    +0.000 A 
ATOM      5  C   UNL     1       6.353  -3.923  -0.492  0.00  0.00    +0.000 A 
ATOM      6  N   UNL     1       5.600  -4.619   0.408  0.00  0.00    +0.000 N 
ATOM      7  N   UNL     1       6.700  -2.683  -0.094  0.00  0.00    +0.000 NA
ATOM      8  C   UNL     1       7.423  -1.913  -0.950  0.00  0.00    +0.000 A 
ATOM      9  H   UNL     1       5.475  -4.135   1.288  0.00  0.00    +0.000 HD
BRANCH   2  11
ATOM     10  N   UNL     1       8.470  -1.581  -4.426  0.00  0.00    +0.000 N 
ATOM     11  C   UNL     1       8.571  -1.398  -3.074  0.00  0.00    +0.000 C 
ATOM     12  O   UNL     1       9.232  -0.481  -2.605  0.00  0.00    +0.000 OA
ATOM     13  H   UNL     1       8.906  -0.877  -5.008  0.00  0.00    +0.000 HD
ATOM     14  H   UNL     1       7.748  -2.150  -4.846  0.00  0.00    +0.000 HD
ENDBRANCH   2  11
ENDBRANCH   1   6
BRANCH   1  15
ATOM     15  C   UNL     1       6.128  -7.016   0.782  0.00  0.00    +0.000 A 
ATOM     16  C   UNL     1       7.364  -6.704   1.358  0.00  0.00    +0.000 A 
ATOM     17  C   UNL     1       8.201  -7.716   1.825  0.00  0.00    +0.000 A 
ATOM     18  C   UNL     1       7.809  -9.054   1.734  0.00  0.00    +0.000 A 
ATOM     19  C   UNL     1       6.572  -9.414   1.175  0.00  0.00    +0.000 A 
ATOM     20  C   UNL     1       5.755  -8.373   0.694  0.00  0.00    +0.000 A 
BRANCH  19  21
ATOM     21  C   UNL     1       6.121 -10.820   1.129  0.00  0.00    +0.000 A 
ATOM     22  C   UNL     1       6.381 -11.716   2.175  0.00  0.00    +0.000 A 
ATOM     23  N   UNL     1       5.974 -13.011   2.219  0.00  0.00    +0.000 NA
ATOM     24  C   UNL     1       5.254 -13.449   1.164  0.00  0.00    +0.000 A 
ATOM     25  C   UNL     1       4.937 -12.653   0.081  0.00  0.00    +0.000 A 
ATOM     26  F   UNL     1       4.212 -13.138  -0.934  0.00  0.00    +0.000 F 
ATOM     27  C   UNL     1       5.376 -11.334   0.057  0.00  0.00    +0.000 A 
ENDBRANCH  19  21
ENDBRANCH   1  15
TORSDOF 4
