REMARK  Name = 
REMARK  5 active torsions:
REMARK  status: ('A' for Active; 'I' for Inactive)
REMARK    1  A    between atoms: C_2  and  C_3
REMARK    2  A    between atoms: N_7  and  C_8
REMARK    3  A    between atoms: C_8  and  C_9
REMARK    4  A    between atoms: C_9  and  C_12
REMARK    5  A    between atoms: C_16  and  C_17
REMARK                            x       y       z     vdW  Elec       q    Type
REMARK                         _______ _______ _______ _____ _____    ______ ____
ROOT
ATOM      1  C   UNL     1      -5.911   1.132  -0.322  0.00  0.00    +0.000 C 
ATOM      2  F   UNL     1      -6.151   0.446  -1.479  0.00  0.00    +0.000 F 
ATOM      3  F   UNL     1      -6.364   0.320   0.680  0.00  0.00    +0.000 F 
ENDROOT
BRANCH   1   4
ATOM      4  C   UNL     1      -6.604   2.488  -0.294  0.00  0.00    +0.000 A 
ATOM      5  C   UNL     1      -7.037   3.021   0.931  0.00  0.00    +0.000 A 
ATOM      6  C   UNL     1      -7.601   4.296   0.998  0.00  0.00    +0.000 A 
ATOM      7  C   UNL     1      -7.732   5.065  -0.159  0.00  0.00    +0.000 A 
ATOM      8  C   UNL     1      -7.318   4.550  -1.392  0.00  0.00    +0.000 A 
ATOM      9  C   UNL     1      -6.764   3.259  -1.458  0.00  0.00    +0.000 A 
BRANCH   8  10
ATOM     10  C   UNL     1      -7.365   5.373  -2.630  0.00  0.00    +0.000 C 
ATOM     11  N   UNL     1      -8.260   6.405  -2.679  0.00  0.00    +0.000 N 
ATOM     12  O   UNL     1      -6.624   5.138  -3.576  0.00  0.00    +0.000 OA
ATOM     13  H   UNL     1      -9.006   6.535  -2.012  0.00  0.00    +0.000 HD
ATOM     14  H   UNL     1      -8.310   6.924  -3.548  0.00  0.00    +0.000 HD
ENDBRANCH   8  10
ENDBRANCH   1   4
BRANCH   1  15
ATOM     15  C   UNL     1      -4.375   1.317  -0.164  0.00  0.00    +0.000 C 
BRANCH  15  20
ATOM     16  C   UNL     1       0.520  -0.023   0.190  0.00  0.00    +0.000 A 
ATOM     17  C   UNL     1      -0.137   1.077   0.726  0.00  0.00    +0.000 A 
ATOM     18  C   UNL     1      -1.530   1.136   0.668  0.00  0.00    +0.000 A 
ATOM     19  C   UNL     1      -2.245   0.101   0.069  0.00  0.00    +0.000 A 
ATOM     20  N   UNL     1      -3.629   0.063   0.039  0.00  0.00    +0.000 N 
ATOM     21  N   UNL     1      -1.615  -0.964  -0.462  0.00  0.00    +0.000 NA
ATOM     22  C   UNL     1      -0.257  -1.009  -0.392  0.00  0.00    +0.000 A 
ATOM     23  H   UNL     1      -3.924  -0.721  -0.542  0.00  0.00    +0.000 HD
BRANCH  16  25
ATOM     24  N   UNL     1       3.099  -0.232   0.293  0.00  0.00    +0.000 NA
ATOM     25  C   UNL     1       1.941  -0.142   0.246  0.00  0.00    +0.000 C 
ENDBRANCH  16  25
ENDBRANCH  15  20
ENDBRANCH   1  15
TORSDOF 5
