REMARK  Name = 
REMARK  6 active torsions:
REMARK  status: ('A' for Active; 'I' for Inactive)
REMARK    1  A    between atoms: C_2  and  C_4
REMARK    2  A    between atoms: N_8  and  C_9
REMARK    3  A    between atoms: C_9  and  C_10
REMARK    4  A    between atoms: C_10  and  C_13
REMARK    5  A    between atoms: C_18  and  C_19
REMARK    6  A    between atoms: C_19  and  C_20
REMARK                            x       y       z     vdW  Elec       q    Type
REMARK                         _______ _______ _______ _____ _____    ______ ____
ROOT
ATOM      1  C   UNL     1       6.057   5.977   3.752  0.00  0.00    +0.000 C 
ATOM      2  F   UNL     1       5.684   6.691   2.644  0.00  0.00    +0.000 F 
ATOM      3  F   UNL     1       5.424   4.773   3.630  0.00  0.00    +0.000 F 
ENDROOT
BRANCH   1   4
ATOM      4  C   UNL     1       5.695   6.691   5.040  0.00  0.00    +0.000 A 
ATOM      5  C   UNL     1       5.323   5.957   6.175  0.00  0.00    +0.000 A 
ATOM      6  C   UNL     1       5.079   6.619   7.371  0.00  0.00    +0.000 A 
ATOM      7  F   UNL     1       4.734   5.912   8.456  0.00  0.00    +0.000 F 
ATOM      8  C   UNL     1       5.201   8.001   7.467  0.00  0.00    +0.000 A 
ATOM      9  C   UNL     1       5.557   8.756   6.340  0.00  0.00    +0.000 A 
ATOM     10  C   UNL     1       5.790   8.090   5.128  0.00  0.00    +0.000 A 
BRANCH   9  11
ATOM     11  C   UNL     1       5.709  10.253   6.436  0.00  0.00    +0.000 C 
BRANCH  11  12
ATOM     12  C   UNL     1       7.135  10.629   6.818  0.00  0.00    +0.000 C 
ATOM     13  C   UNL     1       7.388  12.148   6.877  0.00  0.00    +0.000 C 
ATOM     14  N   UNL     1       8.615  11.975   6.089  0.00  0.00    +0.000 NA
ATOM     15  C   UNL     1       8.220  10.607   5.722  0.00  0.00    +0.000 C 
ATOM     16  H   UNL     1       9.469  12.021   6.645  0.00  0.00    +0.000 HD
ENDBRANCH  11  12
ENDBRANCH   9  11
ENDBRANCH   1   4
BRANCH   1  17
ATOM     17  C   UNL     1       7.590   5.761   3.685  0.00  0.00    +0.000 C 
BRANCH  17  22
ATOM     18  C   UNL     1      12.137   4.640   2.001  0.00  0.00    +0.000 A 
ATOM     19  C   UNL     1      11.280   4.169   1.011  0.00  0.00    +0.000 A 
ATOM     20  C   UNL     1       9.902   4.318   1.178  0.00  0.00    +0.000 A 
ATOM     21  C   UNL     1       9.405   4.942   2.320  0.00  0.00    +0.000 A 
ATOM     22  N   UNL     1       8.016   5.036   2.471  0.00  0.00    +0.000 N 
ATOM     23  N   UNL     1      10.228   5.384   3.293  0.00  0.00    +0.000 NA
ATOM     24  C   UNL     1      11.566   5.221   3.123  0.00  0.00    +0.000 A 
ATOM     25  H   UNL     1       7.587   5.416   1.630  0.00  0.00    +0.000 HD
BRANCH  18  27
ATOM     26  N   UNL     1      14.161   4.465   0.671  0.00  0.00    +0.000 N 
ATOM     27  C   UNL     1      13.607   4.526   1.920  0.00  0.00    +0.000 C 
ATOM     28  O   UNL     1      14.305   4.525   2.924  0.00  0.00    +0.000 OA
ATOM     29  H   UNL     1      15.172   4.488   0.627  0.00  0.00    +0.000 HD
ATOM     30  H   UNL     1      13.652   4.706  -0.167  0.00  0.00    +0.000 HD
ENDBRANCH  18  27
ENDBRANCH  17  22
ENDBRANCH   1  17
TORSDOF 6
