REMARK  Name = 
REMARK  9 active torsions:
REMARK  status: ('A' for Active; 'I' for Inactive)
REMARK    1  A    between atoms: C_1  and  C_2
REMARK    2  A    between atoms: N_4  and  C_5
REMARK    3  A    between atoms: C_7  and  C_8
REMARK    4  A    between atoms: C_8  and  C_9
REMARK    5  A    between atoms: C_9  and  N_10
REMARK    6  A    between atoms: N_10  and  C_11
REMARK    7  A    between atoms: C_14  and  C_15
REMARK    8  A    between atoms: C_21  and  C_22
REMARK    9  A    between atoms: C_28  and  C_29
REMARK                            x       y       z     vdW  Elec       q    Type
REMARK                         _______ _______ _______ _____ _____    ______ ____
ROOT
ATOM      1  C   UNL     1       1.920   1.347  -3.247  0.00  0.00    +0.000 A 
ATOM      2  C   UNL     1       2.332   2.614  -3.699  0.00  0.00    +0.000 A 
ATOM      3  C   UNL     1       1.595   3.367  -4.629  0.00  0.00    +0.000 A 
ATOM      4  C   UNL     1       0.382   2.859  -5.097  0.00  0.00    +0.000 A 
ATOM      5  C   UNL     1      -0.073   1.607  -4.665  0.00  0.00    +0.000 A 
ATOM      6  C   UNL     1       0.693   0.880  -3.732  0.00  0.00    +0.000 A 
ENDROOT
BRANCH   1  10
ATOM      7  C   UNL     1       2.001  -2.421  -3.066  0.00  0.00    +0.000 C 
ATOM      8  C   UNL     1       2.702  -1.824  -1.849  0.00  0.00    +0.000 C 
ATOM      9  C   UNL     1       2.188  -0.419  -1.468  0.00  0.00    +0.000 C 
ATOM     10  N   UNL     1       2.706   0.620  -2.374  0.00  0.00    +0.000 N 
ATOM     11  C   UNL     1       4.169   0.563  -2.558  0.00  0.00    +0.000 C 
ATOM     12  C   UNL     1       4.607  -0.866  -2.950  0.00  0.00    +0.000 C 
ATOM     13  C   UNL     1       6.127  -0.967  -2.989  0.00  0.00    +0.000 C 
ATOM     14  O   UNL     1       4.134  -1.846  -2.008  0.00  0.00    +0.000 OA
ENDBRANCH   1  10
BRANCH   5  15
ATOM     15  C   UNL     1      -1.337   1.002  -5.222  0.00  0.00    +0.000 C 
ATOM     16  F   UNL     1      -1.969   1.799  -6.128  0.00  0.00    +0.000 F 
ATOM     17  F   UNL     1      -1.105  -0.177  -5.864  0.00  0.00    +0.000 F 
ATOM     18  F   UNL     1      -2.260   0.727  -4.259  0.00  0.00    +0.000 F 
ENDBRANCH   5  15
BRANCH   3  19
ATOM     19  C   UNL     1       2.113   4.699  -5.118  0.00  0.00    +0.000 C 
BRANCH  19  20
ATOM     20  C   UNL     1       1.666   5.860  -4.227  0.00  0.00    +0.000 C 
BRANCH  20  21
ATOM     21  N   UNL     1       2.150   7.141  -4.764  0.00  0.00    +0.000 N 
ATOM     22  H   UNL     1       1.953   7.246  -5.757  0.00  0.00    +0.000 HD
BRANCH  21  23
ATOM     23  C   UNL     1       1.828   8.306  -4.047  0.00  0.00    +0.000 A 
ATOM     24  C   UNL     1       1.667   8.327  -2.660  0.00  0.00    +0.000 A 
ATOM     25  C   UNL     1       1.414   9.520  -1.986  0.00  0.00    +0.000 A 
ATOM     26  C   UNL     1       1.356  10.691  -2.722  0.00  0.00    +0.000 A 
ATOM     27  N   UNL     1       1.549  10.746  -4.069  0.00  0.00    +0.000 NA
ATOM     28  C   UNL     1       1.797   9.556  -4.681  0.00  0.00    +0.000 A 
BRANCH  26  29
ATOM     29  C   UNL     1       1.085  11.982  -2.015  0.00  0.00    +0.000 C 
ATOM     30  N   UNL     1       1.053  13.095  -2.808  0.00  0.00    +0.000 N 
ATOM     31  O   UNL     1       0.904  12.050  -0.804  0.00  0.00    +0.000 OA
ATOM     32  H   UNL     1       1.223  13.006  -3.803  0.00  0.00    +0.000 HD
ATOM     33  H   UNL     1       0.896  13.998  -2.388  0.00  0.00    +0.000 HD
ENDBRANCH  26  29
ENDBRANCH  21  23
ENDBRANCH  20  21
ENDBRANCH  19  20
ENDBRANCH   3  19
TORSDOF 7
