REMARK  Name = 
REMARK  8 active torsions:
REMARK  status: ('A' for Active; 'I' for Inactive)
REMARK    1  A    between atoms: C_1  and  O_2
REMARK    2  A    between atoms: O_2  and  C_3
REMARK    3  A    between atoms: C_10  and  C_11
REMARK    4  A    between atoms: N_13  and  C_14
REMARK    5  A    between atoms: C_14  and  C_15
REMARK    6  A    between atoms: C_18  and  N_19
REMARK    7  A    between atoms: N_19  and  C_20
REMARK    8  A    between atoms: C_20  and  C_21
REMARK                            x       y       z     vdW  Elec       q    Type
REMARK                         _______ _______ _______ _____ _____    ______ ____
ROOT
ATOM      1  C   UNL     1      -9.504  -5.795   2.132  0.00  0.00    +0.000 C 
ENDROOT
BRANCH   1   2
ATOM      2  C   UNL     1      -8.206  -5.563   2.861  0.00  0.00    +0.000 A 
ATOM      3  C   UNL     1      -7.754  -4.262   3.099  0.00  0.00    +0.000 A 
ATOM      4  C   UNL     1      -6.498  -4.034   3.676  0.00  0.00    +0.000 A 
ATOM      5  C   UNL     1      -5.657  -5.092   4.039  0.00  0.00    +0.000 A 
ATOM      6  C   UNL     1      -6.116  -6.392   3.791  0.00  0.00    +0.000 A 
ATOM      7  C   UNL     1      -7.375  -6.630   3.222  0.00  0.00    +0.000 A 
BRANCH   5   8
ATOM      8  N   UNL     1      -4.339  -4.906   4.468  0.00  0.00    +0.000 N 
ATOM      9  H   UNL     1      -3.951  -5.724   4.940  0.00  0.00    +0.000 HD
BRANCH   8  10
ATOM     10  C   UNL     1      -3.981  -3.668   5.165  0.00  0.00    +0.000 C 
BRANCH  10  11
ATOM     11  C   UNL     1      -2.488  -3.684   5.567  0.00  0.00    +0.000 C 
ATOM     12  C   UNL     1      -2.082  -2.392   6.310  0.00  0.00    +0.000 C 
ATOM     13  N   UNL     1      -2.647  -2.292   7.669  0.00  0.00    +0.000 NA
ATOM     14  C   UNL     1      -2.285  -3.510   8.414  0.00  0.00    +0.000 C 
ATOM     15  C   UNL     1      -2.665  -4.805   7.678  0.00  0.00    +0.000 C 
ATOM     16  O   UNL     1      -2.142  -4.850   6.346  0.00  0.00    +0.000 OA
ATOM     17  H   UNL     1      -3.662  -2.225   7.616  0.00  0.00    +0.000 HD
ENDBRANCH  10  11
ENDBRANCH   8  10
ENDBRANCH   5   8
ENDBRANCH   1   2
BRANCH   1  20
ATOM     18  C   UNL     1     -10.291  -6.044  -0.191  0.00  0.00    +0.000 C 
ATOM     19  O   UNL     1     -11.457  -6.175   0.183  0.00  0.00    +0.000 OA
ATOM     20  N   UNL     1      -9.278  -5.843   0.704  0.00  0.00    +0.000 N 
ATOM     21  H   UNL     1      -8.339  -5.673   0.376  0.00  0.00    +0.000 HD
BRANCH  18  29
ATOM     22  C   UNL     1      -7.319  -5.762  -1.915  0.00  0.00    +0.000 A 
ATOM     23  N   UNL     1      -6.311  -5.793  -2.810  0.00  0.00    +0.000 NA
ATOM     24  C   UNL     1      -6.609  -6.059  -4.085  0.00  0.00    +0.000 A 
ATOM     25  N   UNL     1      -7.815  -6.287  -4.595  0.00  0.00    +0.000 NA
ATOM     26  C   UNL     1      -8.789  -6.256  -3.669  0.00  0.00    +0.000 A 
ATOM     27  S   UNL     1     -10.400  -6.509  -4.144  0.00  0.00    +0.000 S 
ATOM     28  C   UNL     1     -10.946  -6.357  -2.542  0.00  0.00    +0.000 A 
ATOM     29  C   UNL     1      -9.932  -6.124  -1.622  0.00  0.00    +0.000 A 
ATOM     30  C   UNL     1      -8.645  -6.023  -2.305  0.00  0.00    +0.000 A 
BRANCH  22  32
ATOM     31  C   UNL     1      -5.641  -5.226  -0.354  0.00  0.00    +0.000 C 
ATOM     32  O   UNL     1      -7.028  -5.439  -0.606  0.00  0.00    +0.000 OA
ENDBRANCH  22  32
ENDBRANCH  18  29
ENDBRANCH   1  20
TORSDOF 7
