REMARK  Name = 
REMARK  5 active torsions:
REMARK  status: ('A' for Active; 'I' for Inactive)
REMARK    1  A    between atoms: N_1  and  C_2
REMARK    2  A    between atoms: C_2  and  C_3
REMARK    3  A    between atoms: C_6  and  C_7
REMARK    4  A    between atoms: C_7  and  N_8
REMARK    5  A    between atoms: C_13  and  C_14
REMARK                            x       y       z     vdW  Elec       q    Type
REMARK                         _______ _______ _______ _____ _____    ______ ____
ROOT
ATOM      1  N   UNL     1       7.666   0.976  -2.537  0.00  0.00    +0.000 N 
ATOM      2  C   UNL     1       8.112  -0.170  -1.923  0.00  0.00    +0.000 A 
ATOM      3  C   UNL     1       9.365  -0.461  -2.414  0.00  0.00    +0.000 A 
ATOM      4  C   UNL     1       9.691   0.535  -3.371  0.00  0.00    +0.000 A 
ATOM      5  C   UNL     1      10.801   0.790  -4.193  0.00  0.00    +0.000 A 
ATOM      6  C   UNL     1      10.741   1.891  -5.052  0.00  0.00    +0.000 A 
ATOM      7  C   UNL     1       9.595   2.685  -5.019  0.00  0.00    +0.000 A 
ATOM      8  N   UNL     1       8.500   2.499  -4.231  0.00  0.00    +0.000 NA
ATOM      9  C   UNL     1       8.607   1.410  -3.438  0.00  0.00    +0.000 A 
ENDROOT
BRANCH   6  10
ATOM     10  C   UNL     1      11.828   2.249  -5.994  0.00  0.00    +0.000 C 
ATOM     11  N   UNL     1      12.937   1.449  -6.057  0.00  0.00    +0.000 N 
ATOM     12  O   UNL     1      11.745   3.236  -6.719  0.00  0.00    +0.000 OA
ATOM     13  H   UNL     1      13.078   0.602  -5.529  0.00  0.00    +0.000 HD
ATOM     14  H   UNL     1      13.649   1.705  -6.729  0.00  0.00    +0.000 HD
ENDBRANCH   6  10
BRANCH   1  15
ATOM     15  C   UNL     1       6.441   1.673  -2.182  0.00  0.00    +0.000 C 
BRANCH  15  19
ATOM     16  C   UNL     1       2.861   0.337  -1.475  0.00  0.00    +0.000 C 
ATOM     17  C   UNL     1       4.083  -0.546  -1.776  0.00  0.00    +0.000 C 
ATOM     18  C   UNL     1       4.805  -0.129  -3.057  0.00  0.00    +0.000 C 
ATOM     19  C   UNL     1       5.224   1.354  -3.074  0.00  0.00    +0.000 C 
ATOM     20  C   UNL     1       4.036   2.259  -2.685  0.00  0.00    +0.000 C 
ATOM     21  C   UNL     1       3.312   1.806  -1.411  0.00  0.00    +0.000 C 
BRANCH  16  22
ATOM     22  C   UNL     1       1.704   0.169  -2.485  0.00  0.00    +0.000 C 
BRANCH  22  23
ATOM     23  N   UNL     1       1.207  -1.201  -2.551  0.00  0.00    +0.000 NA
ATOM     24  H   UNL     1       0.491  -1.263  -3.273  0.00  0.00    +0.000 HD
ATOM     25  H   UNL     1       0.746  -1.440  -1.673  0.00  0.00    +0.000 HD
ENDBRANCH  22  23
ENDBRANCH  16  22
ENDBRANCH  15  19
ENDBRANCH   1  15
TORSDOF 5
