REMARK  Name = 
REMARK  3 active torsions:
REMARK  status: ('A' for Active; 'I' for Inactive)
REMARK    1  A    between atoms: C_2  and  C_3
REMARK    2  A    between atoms: C_10  and  C_11
REMARK    3  A    between atoms: C_15  and  N_16
REMARK                            x       y       z     vdW  Elec       q    Type
REMARK                         _______ _______ _______ _____ _____    ______ ____
ROOT
ATOM      1  C   UNL     1       0.478   0.024   0.058  0.00  0.00    +0.000 A 
ATOM      2  C   UNL     1      -0.147   1.184  -0.375  0.00  0.00    +0.000 A 
ATOM      3  C   UNL     1      -1.536   1.219  -0.422  0.00  0.00    +0.000 A 
ATOM      4  C   UNL     1      -2.276   0.099  -0.034  0.00  0.00    +0.000 A 
ATOM      5  N   UNL     1      -3.651   0.098  -0.114  0.00  0.00    +0.000 N 
ATOM      6  C   UNL     1      -4.402  -0.673   0.875  0.00  0.00    +0.000 C 
ATOM      7  C   UNL     1      -5.441  -1.580   0.231  0.00  0.00    +0.000 C 
ATOM      8  C   UNL     1      -6.247  -0.914  -0.890  0.00  0.00    +0.000 C 
ATOM      9  C   UNL     1      -5.287  -0.289  -1.911  0.00  0.00    +0.000 C 
ATOM     10  C   UNL     1      -4.296   0.682  -1.284  0.00  0.00    +0.000 C 
ATOM     11  N   UNL     1      -1.662  -1.015   0.415  0.00  0.00    +0.000 NA
ATOM     12  C   UNL     1      -0.314  -1.042   0.443  0.00  0.00    +0.000 A 
ENDROOT
BRANCH   8  13
ATOM     13  C   UNL     1      -7.326   0.067  -0.446  0.00  0.00    +0.000 A 
ATOM     14  C   UNL     1      -7.054   1.199   0.331  0.00  0.00    +0.000 A 
ATOM     15  C   UNL     1      -8.038   2.138   0.609  0.00  0.00    +0.000 A 
ATOM     16  C   UNL     1      -9.320   1.964   0.102  0.00  0.00    +0.000 A 
ATOM     17  C   UNL     1      -9.655   0.852  -0.679  0.00  0.00    +0.000 A 
ATOM     18  C   UNL     1      -8.644  -0.098  -0.917  0.00  0.00    +0.000 A 
BRANCH  17  19
ATOM     19  N   UNL     1     -10.911   0.721  -1.241  0.00  0.00    +0.000 N 
ATOM     20  C   UNL     1     -11.682   1.891  -1.661  0.00  0.00    +0.000 C 
ATOM     21  C   UNL     1     -12.938   2.031  -0.807  0.00  0.00    +0.000 C 
ATOM     22  C   UNL     1     -13.741   0.732  -0.803  0.00  0.00    +0.000 C 
ATOM     23  C   UNL     1     -12.871  -0.449  -0.375  0.00  0.00    +0.000 C 
ATOM     24  C   UNL     1     -11.610  -0.562  -1.235  0.00  0.00    +0.000 C 
ENDBRANCH  17  19
ENDBRANCH   8  13
BRANCH   1  26
ATOM     25  N   UNL     1       3.048  -0.155   0.154  0.00  0.00    +0.000 NA
ATOM     26  C   UNL     1       1.896  -0.077   0.112  0.00  0.00    +0.000 C 
ENDBRANCH   1  26
TORSDOF 3
