REMARK  Name = 
REMARK  7 active torsions:
REMARK  status: ('A' for Active; 'I' for Inactive)
REMARK    1  A    between atoms: C_1  and  C_2
REMARK    2  A    between atoms: C_4  and  C_5
REMARK    3  A    between atoms: C_10  and  N_11
REMARK    4  A    between atoms: N_11  and  C_12
REMARK    5  A    between atoms: C_12  and  C_13
REMARK    6  A    between atoms: C_17  and  O_18
REMARK    7  A    between atoms: O_18  and  C_19
REMARK                            x       y       z     vdW  Elec       q    Type
REMARK                         _______ _______ _______ _____ _____    ______ ____
ROOT
ATOM      1  N   UNL     1       1.027  -2.008   0.162  0.00  0.00    +0.000 N 
ATOM      2  H   UNL     1       0.918  -1.148  -0.367  0.00  0.00    +0.000 HD
ENDROOT
BRANCH   1   9
ATOM      3  C   UNL     1       0.678  -4.261   2.269  0.00  0.00    +0.000 C 
ATOM      4  C   UNL     1      -0.172  -3.043   2.096  0.00  0.00    +0.000 A 
ATOM      5  C   UNL     1      -1.285  -2.933   2.954  0.00  0.00    +0.000 A 
ATOM      6  C   UNL     1      -2.163  -1.859   2.870  0.00  0.00    +0.000 A 
ATOM      7  C   UNL     1      -1.883  -0.917   1.904  0.00  0.00    +0.000 A 
ATOM      8  N   UNL     1      -0.825  -0.991   1.049  0.00  0.00    +0.000 NA
ATOM      9  C   UNL     1       0.030  -2.046   1.137  0.00  0.00    +0.000 A 
BRANCH   6  10
ATOM     10  C   UNL     1      -3.315  -1.814   3.804  0.00  0.00    +0.000 C 
ATOM     11  N   UNL     1      -4.185  -0.765   3.750  0.00  0.00    +0.000 N 
ATOM     12  O   UNL     1      -3.500  -2.706   4.627  0.00  0.00    +0.000 OA
ATOM     13  H   UNL     1      -4.130   0.019   3.121  0.00  0.00    +0.000 HD
ATOM     14  H   UNL     1      -4.952  -0.791   4.413  0.00  0.00    +0.000 HD
ENDBRANCH   6  10
ENDBRANCH   1   9
BRANCH   1  15
ATOM     15  C   UNL     1       2.339  -2.672   0.157  0.00  0.00    +0.000 C 
ATOM     16  C   UNL     1       3.347  -2.294   1.231  0.00  0.00    +0.000 C 
ATOM     17  C   UNL     1       3.577  -1.829  -0.165  0.00  0.00    +0.000 C 
BRANCH  15  18
ATOM     18  C   UNL     1       2.362  -4.037  -0.547  0.00  0.00    +0.000 A 
ATOM     19  C   UNL     1       1.743  -4.227  -1.796  0.00  0.00    +0.000 A 
ATOM     20  C   UNL     1       1.747  -5.472  -2.432  0.00  0.00    +0.000 A 
ATOM     21  C   UNL     1       2.388  -6.561  -1.843  0.00  0.00    +0.000 A 
ATOM     22  C   UNL     1       3.056  -6.394  -0.635  0.00  0.00    +0.000 A 
ATOM     23  C   UNL     1       3.012  -5.153   0.006  0.00  0.00    +0.000 A 
BRANCH  22  24
ATOM     24  O   UNL     1       3.708  -7.365   0.057  0.00  0.00    +0.000 OA
BRANCH  24  25
ATOM     25  C   UNL     1       4.479  -8.317  -0.660  0.00  0.00    +0.000 C 
ATOM     26  F   UNL     1       4.503  -8.128  -1.995  0.00  0.00    +0.000 F 
ATOM     27  F   UNL     1       5.753  -8.267  -0.210  0.00  0.00    +0.000 F 
ATOM     28  F   UNL     1       3.993  -9.552  -0.406  0.00  0.00    +0.000 F 
ENDBRANCH  24  25
ENDBRANCH  22  24
ENDBRANCH  15  18
ENDBRANCH   1  15
TORSDOF 6
