REMARK  Name = 
REMARK  7 active torsions:
REMARK  status: ('A' for Active; 'I' for Inactive)
REMARK    1  A    between atoms: C_1  and  C_2
REMARK    2  A    between atoms: C_4  and  C_5
REMARK    3  A    between atoms: N_7  and  C_8
REMARK    4  A    between atoms: C_8  and  C_9
REMARK    5  A    between atoms: C_12  and  C_13
REMARK    6  A    between atoms: C_13  and  N_14
REMARK    7  A    between atoms: C_15  and  C_17
REMARK                            x       y       z     vdW  Elec       q    Type
REMARK                         _______ _______ _______ _____ _____    ______ ____
ROOT
ATOM      1  C   UNL     1      -3.020   5.330   0.000  0.00  0.00    +0.000 A 
ATOM      2  C   UNL     1      -3.925   6.321  -0.401  0.00  0.00    +0.000 A 
ATOM      3  C   UNL     1      -3.572   7.676  -0.354  0.00  0.00    +0.000 A 
ATOM      4  C   UNL     1      -2.296   8.067   0.075  0.00  0.00    +0.000 A 
ATOM      5  C   UNL     1      -1.397   7.076   0.492  0.00  0.00    +0.000 A 
ATOM      6  C   UNL     1      -1.750   5.722   0.444  0.00  0.00    +0.000 A 
ENDROOT
BRANCH   1   7
ATOM      7  C   UNL     1      -3.420   3.878  -0.008  0.00  0.00    +0.000 C 
BRANCH   7  10
ATOM      8  C   UNL     1      -3.521   1.886  -1.416  0.00  0.00    +0.000 C 
ATOM      9  O   UNL     1      -4.021   1.216  -0.516  0.00  0.00    +0.000 OA
ATOM     10  N   UNL     1      -3.190   3.216  -1.266  0.00  0.00    +0.000 N 
ATOM     11  H   UNL     1      -2.793   3.697  -2.067  0.00  0.00    +0.000 HD
BRANCH   8  15
ATOM     12  C   UNL     1      -1.957   1.461  -6.123  0.00  0.00    +0.000 C 
ATOM     13  C   UNL     1      -2.530   1.199  -4.781  0.00  0.00    +0.000 A 
ATOM     14  N   UNL     1      -2.641   2.047  -3.777  0.00  0.00    +0.000 NA
ATOM     15  C   UNL     1      -3.224   1.334  -2.740  0.00  0.00    +0.000 A 
ATOM     16  C   UNL     1      -3.468   0.037  -3.150  0.00  0.00    +0.000 A 
ATOM     17  N   UNL     1      -3.027  -0.034  -4.438  0.00  0.00    +0.000 N 
ATOM     18  H   UNL     1      -3.054  -0.847  -5.037  0.00  0.00    +0.000 HD
ENDBRANCH   8  15
ENDBRANCH   7  10
ENDBRANCH   1   7
BRANCH   4  19
ATOM     19  C   UNL     1      -1.894   9.520   0.099  0.00  0.00    +0.000 C 
BRANCH  19  20
ATOM     20  N   UNL     1      -2.185  10.144   1.366  0.00  0.00    +0.000 N 
ATOM     21  C   UNL     1      -1.943  11.481   1.564  0.00  0.00    +0.000 C 
ATOM     22  O   UNL     1      -1.514  12.205   0.666  0.00  0.00    +0.000 OA
ATOM     23  H   UNL     1      -2.300   9.531   2.169  0.00  0.00    +0.000 HD
BRANCH  21  24
ATOM     24  C   UNL     1      -2.285  12.026   2.884  0.00  0.00    +0.000 A 
ATOM     25  C   UNL     1      -2.553  13.381   3.024  0.00  0.00    +0.000 A 
ATOM     26  S   UNL     1      -2.983  13.836   4.611  0.00  0.00    +0.000 S 
ATOM     27  C   UNL     1      -2.771  12.247   5.181  0.00  0.00    +0.000 A 
ATOM     28  N   UNL     1      -2.958  11.944   6.494  0.00  0.00    +0.000 NA
ATOM     29  C   UNL     1      -2.732  10.708   6.792  0.00  0.00    +0.000 A 
ATOM     30  N   UNL     1      -2.341   9.747   5.898  0.00  0.00    +0.000 N 
ATOM     31  C   UNL     1      -2.167  10.001   4.557  0.00  0.00    +0.000 A 
ATOM     32  O   UNL     1      -1.854   9.109   3.775  0.00  0.00    +0.000 OA
ATOM     33  C   UNL     1      -2.398  11.378   4.170  0.00  0.00    +0.000 A 
ATOM     34  H   UNL     1      -2.184   8.796   6.194  0.00  0.00    +0.000 HD
ENDBRANCH  21  24
ENDBRANCH  19  20
ENDBRANCH   4  19
TORSDOF 6
