REMARK  Name = 
REMARK  7 active torsions:
REMARK  status: ('A' for Active; 'I' for Inactive)
REMARK    1  A    between atoms: C_1  and  C_2
REMARK    2  A    between atoms: C_2  and  N_3
REMARK    3  A    between atoms: C_2  and  C_16
REMARK    4  A    between atoms: C_4  and  C_6
REMARK    5  A    between atoms: C_19  and  O_20
REMARK    6  A    between atoms: O_20  and  C_21
REMARK    7  A    between atoms: C_21  and  C_22
REMARK                            x       y       z     vdW  Elec       q    Type
REMARK                         _______ _______ _______ _____ _____    ______ ____
ROOT
ATOM      1  C   UNL     1       1.217  -0.716  -0.477  0.00  0.00    +0.000 C 
ATOM      2  C   UNL     1       2.549  -0.097  -0.044  0.00  0.00    +0.000 C 
ENDROOT
BRANCH   2   3
ATOM      3  C   UNL     1       3.088   0.811  -1.142  0.00  0.00    +0.000 A 
ATOM      4  C   UNL     1       2.717   2.164  -1.119  0.00  0.00    +0.000 A 
ATOM      5  C   UNL     1       3.109   3.047  -2.130  0.00  0.00    +0.000 A 
ATOM      6  C   UNL     1       3.903   2.598  -3.182  0.00  0.00    +0.000 A 
ATOM      7  C   UNL     1       4.288   1.258  -3.218  0.00  0.00    +0.000 A 
ATOM      8  C   UNL     1       3.877   0.368  -2.216  0.00  0.00    +0.000 A 
BRANCH   6   9
ATOM      9  O   UNL     1       4.298   3.358  -4.247  0.00  0.00    +0.000 OA
BRANCH   9  10
ATOM     10  C   UNL     1       4.468   4.757  -3.985  0.00  0.00    +0.000 C 
BRANCH  10  11
ATOM     11  C   UNL     1       4.957   5.493  -5.217  0.00  0.00    +0.000 A 
ATOM     12  C   UNL     1       5.733   4.850  -6.180  0.00  0.00    +0.000 A 
ATOM     13  C   UNL     1       6.208   5.580  -7.265  0.00  0.00    +0.000 A 
ATOM     14  C   UNL     1       5.907   6.932  -7.362  0.00  0.00    +0.000 A 
ATOM     15  C   UNL     1       5.134   7.501  -6.365  0.00  0.00    +0.000 A 
ATOM     16  N   UNL     1       4.660   6.818  -5.298  0.00  0.00    +0.000 NA
ENDBRANCH  10  11
ENDBRANCH   9  10
ENDBRANCH   6   9
ENDBRANCH   2   3
BRANCH   2  17
ATOM     17  N   UNL     1       3.487  -1.121   0.362  0.00  0.00    +0.000 N 
ATOM     18  C   UNL     1       3.504  -1.653   1.633  0.00  0.00    +0.000 C 
ATOM     19  O   UNL     1       2.745  -1.275   2.516  0.00  0.00    +0.000 OA
ATOM     20  H   UNL     1       4.246  -1.339  -0.267  0.00  0.00    +0.000 HD
BRANCH  18  21
ATOM     21  C   UNL     1       4.461  -2.741   1.858  0.00  0.00    +0.000 A 
ATOM     22  C   UNL     1       4.232  -3.677   2.858  0.00  0.00    +0.000 A 
ATOM     23  S   UNL     1       5.450  -4.867   2.975  0.00  0.00    +0.000 S 
ATOM     24  C   UNL     1       6.343  -4.154   1.713  0.00  0.00    +0.000 A 
ATOM     25  N   UNL     1       7.540  -4.668   1.319  0.00  0.00    +0.000 NA
ATOM     26  C   UNL     1       8.113  -4.019   0.361  0.00  0.00    +0.000 A 
ATOM     27  N   UNL     1       7.594  -2.906  -0.247  0.00  0.00    +0.000 N 
ATOM     28  C   UNL     1       6.376  -2.378   0.093  0.00  0.00    +0.000 A 
ATOM     29  O   UNL     1       5.907  -1.435  -0.536  0.00  0.00    +0.000 OA
ATOM     30  C   UNL     1       5.705  -3.048   1.187  0.00  0.00    +0.000 A 
ATOM     31  H   UNL     1       8.072  -2.458  -1.014  0.00  0.00    +0.000 HD
ENDBRANCH  18  21
ENDBRANCH   2  17
TORSDOF 6
