REMARK  Name = 
REMARK  7 active torsions:
REMARK  status: ('A' for Active; 'I' for Inactive)
REMARK    1  A    between atoms: C_1  and  O_2
REMARK    2  A    between atoms: O_2  and  C_3
REMARK    3  A    between atoms: C_6  and  C_7
REMARK    4  A    between atoms: C_7  and  N_8
REMARK    5  A    between atoms: C_11  and  C_12
REMARK    6  A    between atoms: C_12  and  N_13
REMARK    7  A    between atoms: C_14  and  C_16
REMARK                            x       y       z     vdW  Elec       q    Type
REMARK                         _______ _______ _______ _____ _____    ______ ____
ROOT
ATOM      1  C   UNL     1       1.556   1.549   6.231  0.00  0.00    +0.000 C 
ENDROOT
BRANCH   1   5
ATOM      2  N   UNL     1       4.640   3.280   5.009  0.00  0.00    +0.000 NA
ATOM      3  C   UNL     1       3.314   3.920   5.021  0.00  0.00    +0.000 C 
ATOM      4  C   UNL     1       2.636   3.888   6.392  0.00  0.00    +0.000 C 
ATOM      5  C   UNL     1       2.537   2.475   6.977  0.00  0.00    +0.000 C 
ATOM      6  C   UNL     1       3.953   1.885   6.998  0.00  0.00    +0.000 C 
ATOM      7  C   UNL     1       4.646   1.946   5.632  0.00  0.00    +0.000 C 
BRANCH   2   8
ATOM      8  C   UNL     1       5.170   3.182   3.629  0.00  0.00    +0.000 C 
BRANCH   8  12
ATOM      9  C   UNL     1       6.052   6.867   1.690  0.00  0.00    +0.000 A 
ATOM     10  C   UNL     1       6.704   6.594   2.884  0.00  0.00    +0.000 A 
ATOM     11  C   UNL     1       6.417   5.392   3.535  0.00  0.00    +0.000 A 
ATOM     12  C   UNL     1       5.488   4.508   2.982  0.00  0.00    +0.000 A 
ATOM     13  C   UNL     1       4.897   4.880   1.777  0.00  0.00    +0.000 A 
ATOM     14  N   UNL     1       5.155   6.037   1.122  0.00  0.00    +0.000 NA
BRANCH   9  16
ATOM     15  C   UNL     1       5.670   8.259  -0.148  0.00  0.00    +0.000 C 
ATOM     16  O   UNL     1       6.373   8.062   1.076  0.00  0.00    +0.000 OA
ENDBRANCH   9  16
ENDBRANCH   8  12
ENDBRANCH   2   8
ENDBRANCH   1   5
BRANCH   1  17
ATOM     17  N   UNL     1       0.186   2.024   6.257  0.00  0.00    +0.000 N 
ATOM     18  C   UNL     1      -0.679   1.744   7.289  0.00  0.00    +0.000 C 
ATOM     19  O   UNL     1      -0.332   1.115   8.284  0.00  0.00    +0.000 OA
ATOM     20  H   UNL     1      -0.192   2.391   5.391  0.00  0.00    +0.000 HD
BRANCH  18  21
ATOM     21  C   UNL     1      -2.036   2.296   7.169  0.00  0.00    +0.000 A 
ATOM     22  C   UNL     1      -2.781   2.549   8.313  0.00  0.00    +0.000 A 
ATOM     23  S   UNL     1      -4.312   3.230   7.997  0.00  0.00    +0.000 S 
ATOM     24  C   UNL     1      -4.057   3.159   6.316  0.00  0.00    +0.000 A 
ATOM     25  N   UNL     1      -5.014   3.578   5.445  0.00  0.00    +0.000 NA
ATOM     26  C   UNL     1      -4.708   3.424   4.201  0.00  0.00    +0.000 A 
ATOM     27  N   UNL     1      -3.527   2.895   3.748  0.00  0.00    +0.000 N 
ATOM     28  C   UNL     1      -2.511   2.504   4.589  0.00  0.00    +0.000 A 
ATOM     29  O   UNL     1      -1.435   2.108   4.150  0.00  0.00    +0.000 OA
ATOM     30  C   UNL     1      -2.815   2.636   6.001  0.00  0.00    +0.000 A 
ATOM     31  H   UNL     1      -3.346   2.813   2.758  0.00  0.00    +0.000 HD
ENDBRANCH  18  21
ENDBRANCH   1  17
TORSDOF 6
