REMARK  Name = 
REMARK  7 active torsions:
REMARK  status: ('A' for Active; 'I' for Inactive)
REMARK    1  A    between atoms: C_2  and  C_19
REMARK    2  A    between atoms: N_3  and  C_4
REMARK    3  A    between atoms: C_4  and  C_5
REMARK    4  A    between atoms: C_8  and  C_9
REMARK    5  A    between atoms: C_9  and  C_10
REMARK    6  A    between atoms: C_10  and  C_11
REMARK    7  A    between atoms: C_11  and  N_12
REMARK                            x       y       z     vdW  Elec       q    Type
REMARK                         _______ _______ _______ _____ _____    ______ ____
ROOT
ATOM      1  O   UNL     1       1.837   3.073   0.171  0.00  0.00    +0.000 OA
ATOM      2  C   UNL     1       2.566   2.112  -0.056  0.00  0.00    +0.000 C 
ATOM      3  N   UNL     1       2.785   1.121   0.865  0.00  0.00    +0.000 N 
ATOM      4  H   UNL     1       3.517   0.439   0.698  0.00  0.00    +0.000 HD
ENDROOT
BRANCH   2   5
ATOM      5  C   UNL     1       3.211   1.936  -1.362  0.00  0.00    +0.000 A 
ATOM      6  C   UNL     1       2.668   2.545  -2.486  0.00  0.00    +0.000 A 
ATOM      7  S   UNL     1       3.552   2.253  -3.914  0.00  0.00    +0.000 S 
ATOM      8  C   UNL     1       4.710   1.333  -3.075  0.00  0.00    +0.000 A 
ATOM      9  N   UNL     1       5.789   0.810  -3.718  0.00  0.00    +0.000 NA
ATOM     10  C   UNL     1       6.606   0.166  -2.952  0.00  0.00    +0.000 A 
ATOM     11  N   UNL     1       6.431  -0.020  -1.606  0.00  0.00    +0.000 N 
ATOM     12  C   UNL     1       5.316   0.416  -0.932  0.00  0.00    +0.000 A 
ATOM     13  O   UNL     1       5.112   0.099   0.233  0.00  0.00    +0.000 OA
ATOM     14  C   UNL     1       4.402   1.207  -1.728  0.00  0.00    +0.000 A 
ATOM     15  H   UNL     1       7.084  -0.575  -1.072  0.00  0.00    +0.000 HD
ENDBRANCH   2   5
BRANCH   3  16
ATOM     16  C   UNL     1       2.221   1.156   2.189  0.00  0.00    +0.000 C 
BRANCH  16  17
ATOM     17  C   UNL     1       3.160   1.764   3.186  0.00  0.00    +0.000 A 
ATOM     18  C   UNL     1       3.189   3.142   3.405  0.00  0.00    +0.000 A 
ATOM     19  C   UNL     1       4.032   3.670   4.378  0.00  0.00    +0.000 A 
ATOM     20  C   UNL     1       4.849   2.807   5.103  0.00  0.00    +0.000 A 
ATOM     21  N   UNL     1       4.876   1.471   4.876  0.00  0.00    +0.000 NA
ATOM     22  C   UNL     1       4.036   0.984   3.931  0.00  0.00    +0.000 A 
BRANCH  20  23
ATOM     23  C   UNL     1       5.735   3.333   6.202  0.00  0.00    +0.000 C 
BRANCH  23  24
ATOM     24  C   UNL     1       7.179   3.599   5.766  0.00  0.00    +0.000 C 
BRANCH  24  25
ATOM     25  C   UNL     1       7.352   4.728   4.737  0.00  0.00    +0.000 C 
BRANCH  25  26
ATOM     26  N   UNL     1       6.793   5.999   5.192  0.00  0.00    +0.000 NA
ATOM     27  C   UNL     1       7.449   6.566   6.367  0.00  0.00    +0.000 C 
ATOM     28  C   UNL     1       7.629   8.045   6.062  0.00  0.00    +0.000 C 
ATOM     29  O   UNL     1       6.889   8.300   4.867  0.00  0.00    +0.000 OA
ATOM     30  C   UNL     1       6.840   7.047   4.188  0.00  0.00    +0.000 C 
ENDBRANCH  25  26
ENDBRANCH  24  25
ENDBRANCH  23  24
ENDBRANCH  20  23
ENDBRANCH  16  17
ENDBRANCH   3  16
TORSDOF 7
