REMARK  Name = 
REMARK  10 active torsions:
REMARK  status: ('A' for Active; 'I' for Inactive)
REMARK    1  A    between atoms: C_1  and  C_2
REMARK    2  A    between atoms: C_2  and  N_3
REMARK    3  A    between atoms: C_2  and  C_19
REMARK    4  A    between atoms: N_3  and  C_4
REMARK    5  A    between atoms: C_4  and  C_5
REMARK    6  A    between atoms: C_8  and  C_9
REMARK    7  A    between atoms: C_9  and  O_10
REMARK    8  A    between atoms: C_9  and  C_11
REMARK    9  A    between atoms: C_11  and  N_12
REMARK   10  A    between atoms: C_19  and  C_21
REMARK                            x       y       z     vdW  Elec       q    Type
REMARK                         _______ _______ _______ _____ _____    ______ ____
ROOT
ATOM      1  N   UNL     1      -5.150   5.935  -4.724  0.00  0.00    +0.000 NA
ATOM      2  H   UNL     1      -4.728   5.203  -5.300  0.00  0.00    +0.000 HD
ENDROOT
BRANCH   1   4
ATOM      3  C   UNL     1      -4.384   7.829  -6.067  0.00  0.00    +0.000 C 
ATOM      4  C   UNL     1      -5.606   7.034  -5.628  0.00  0.00    +0.000 C 
BRANCH   4   5
ATOM      5  C   UNL     1      -6.322   6.480  -6.876  0.00  0.00    +0.000 C 
ATOM      6  O   UNL     1      -6.229   5.272  -7.134  0.00  0.00    +0.000 OA
BRANCH   5   7
ATOM      7  C   UNL     1      -7.098   7.340  -7.801  0.00  0.00    +0.000 A 
ATOM      8  C   UNL     1      -7.368   6.849  -9.076  0.00  0.00    +0.000 A 
ATOM      9  S   UNL     1      -8.349   7.867 -10.021  0.00  0.00    +0.000 S 
ATOM     10  C   UNL     1      -8.485   8.991  -8.754  0.00  0.00    +0.000 A 
ATOM     11  N   UNL     1      -9.289  10.079  -8.893  0.00  0.00    +0.000 NA
ATOM     12  C   UNL     1      -9.360  10.827  -7.843  0.00  0.00    +0.000 A 
ATOM     13  N   UNL     1      -8.666  10.604  -6.684  0.00  0.00    +0.000 N 
ATOM     14  C   UNL     1      -7.738   9.600  -6.554  0.00  0.00    +0.000 A 
ATOM     15  O   UNL     1      -6.979   9.589  -5.593  0.00  0.00    +0.000 OA
ATOM     16  C   UNL     1      -7.719   8.641  -7.649  0.00  0.00    +0.000 A 
ATOM     17  H   UNL     1      -8.704  11.270  -5.927  0.00  0.00    +0.000 HD
ENDBRANCH   5   7
ENDBRANCH   4   5
ENDBRANCH   1   4
BRANCH   1  18
ATOM     18  C   UNL     1      -6.296   5.351  -4.018  0.00  0.00    +0.000 C 
BRANCH  18  19
ATOM     19  C   UNL     1      -5.886   4.252  -3.071  0.00  0.00    +0.000 A 
ATOM     20  C   UNL     1      -5.155   4.537  -1.909  0.00  0.00    +0.000 A 
ATOM     21  C   UNL     1      -4.871   3.527  -0.982  0.00  0.00    +0.000 A 
ATOM     22  C   UNL     1      -5.316   2.216  -1.200  0.00  0.00    +0.000 A 
ATOM     23  C   UNL     1      -6.011   1.928  -2.388  0.00  0.00    +0.000 A 
ATOM     24  C   UNL     1      -6.292   2.935  -3.310  0.00  0.00    +0.000 A 
BRANCH  22  25
ATOM     25  C   UNL     1      -5.039   1.118  -0.182  0.00  0.00    +0.000 C 
BRANCH  25  26
ATOM     26  O   UNL     1      -4.194   0.141  -0.800  0.00  0.00    +0.000 OA
ATOM     27  H   UNL     1      -4.008   0.426  -1.709  0.00  0.00    +0.000 HD
ENDBRANCH  25  26
BRANCH  25  28
ATOM     28  C   UNL     1      -6.367   0.473   0.321  0.00  0.00    +0.000 C 
BRANCH  28  29
ATOM     29  N   UNL     1      -6.287  -0.435   1.495  0.00  0.00    +0.000 NA
ATOM     30  C   UNL     1      -5.513  -1.664   1.242  0.00  0.00    +0.000 C 
ATOM     31  C   UNL     1      -6.480  -2.610   0.563  0.00  0.00    +0.000 C 
ATOM     32  C   UNL     1      -7.775  -2.348   1.308  0.00  0.00    +0.000 C 
ATOM     33  C   UNL     1      -7.640  -0.925   1.846  0.00  0.00    +0.000 C 
ENDBRANCH  28  29
ENDBRANCH  25  28
ENDBRANCH  22  25
ENDBRANCH  18  19
ENDBRANCH   1  18
TORSDOF 9
