REMARK  Name = 
REMARK  7 active torsions:
REMARK  status: ('A' for Active; 'I' for Inactive)
REMARK    1  A    between atoms: C_1  and  O_2
REMARK    2  A    between atoms: O_2  and  C_3
REMARK    3  A    between atoms: C_5  and  C_6
REMARK    4  A    between atoms: C_10  and  C_11
REMARK    5  A    between atoms: C_11  and  O_12
REMARK    6  A    between atoms: O_12  and  C_13
REMARK    7  A    between atoms: C_16  and  C_17
REMARK                            x       y       z     vdW  Elec       q    Type
REMARK                         _______ _______ _______ _____ _____    ______ ____
ROOT
ATOM      1  C   UNL     1       3.154  -1.620  -4.550  0.00  0.00    +0.000 A 
ATOM      2  C   UNL     1       3.208  -0.451  -5.332  0.00  0.00    +0.000 A 
ATOM      3  C   UNL     1       2.987  -0.479  -6.711  0.00  0.00    +0.000 A 
ATOM      4  C   UNL     1       2.699  -1.682  -7.346  0.00  0.00    +0.000 A 
ATOM      5  C   UNL     1       2.638  -2.867  -6.606  0.00  0.00    +0.000 A 
ATOM      6  C   UNL     1       2.848  -2.822  -5.216  0.00  0.00    +0.000 A 
ENDROOT
BRANCH   1   9
ATOM      7  C   UNL     1       3.055  -2.328  -0.836  0.00  0.00    +0.000 A 
ATOM      8  C   UNL     1       2.785  -2.440  -2.192  0.00  0.00    +0.000 A 
ATOM      9  C   UNL     1       3.431  -1.584  -3.094  0.00  0.00    +0.000 A 
ATOM     10  C   UNL     1       4.356  -0.678  -2.552  0.00  0.00    +0.000 A 
ATOM     11  C   UNL     1       4.574  -0.655  -1.183  0.00  0.00    +0.000 A 
ATOM     12  N   UNL     1       3.942  -1.459  -0.311  0.00  0.00    +0.000 NA
BRANCH   7  14
ATOM     13  C   UNL     1       2.305  -2.670   1.335  0.00  0.00    +0.000 C 
ATOM     14  O   UNL     1       2.362  -3.177   0.005  0.00  0.00    +0.000 OA
ENDBRANCH   7  14
ENDBRANCH   1   9
BRANCH   5  15
ATOM     15  C   UNL     1       2.401  -4.187  -7.299  0.00  0.00    +0.000 C 
BRANCH  15  16
ATOM     16  O   UNL     1       1.001  -4.454  -7.402  0.00  0.00    +0.000 OA
BRANCH  16  17
ATOM     17  C   UNL     1       0.751  -5.615  -8.112  0.00  0.00    +0.000 A 
ATOM     18  N   UNL     1       1.811  -6.373  -8.492  0.00  0.00    +0.000 NA
ATOM     19  C   UNL     1       1.554  -7.487  -9.216  0.00  0.00    +0.000 A 
ATOM     20  C   UNL     1       0.284  -7.891  -9.592  0.00  0.00    +0.000 A 
ATOM     21  C   UNL     1      -0.797  -7.108  -9.167  0.00  0.00    +0.000 A 
ATOM     22  C   UNL     1      -0.566  -5.954  -8.416  0.00  0.00    +0.000 A 
ATOM     23 CL   UNL     1      -1.908  -4.998  -7.915  0.00  0.00    +0.000 Cl
BRANCH  20  24
ATOM     24  C   UNL     1       0.032  -9.093 -10.421  0.00  0.00    +0.000 C 
ATOM     25  N   UNL     1       1.095  -9.802 -10.907  0.00  0.00    +0.000 N 
ATOM     26  O   UNL     1      -1.112  -9.445 -10.685  0.00  0.00    +0.000 OA
ATOM     27  H   UNL     1       2.072  -9.583 -10.791  0.00  0.00    +0.000 HD
ATOM     28  H   UNL     1       0.871 -10.596 -11.495  0.00  0.00    +0.000 HD
ENDBRANCH  20  24
ENDBRANCH  16  17
ENDBRANCH  15  16
ENDBRANCH   5  15
TORSDOF 6
