REMARK  Name = 
REMARK  8 active torsions:
REMARK  status: ('A' for Active; 'I' for Inactive)
REMARK    1  A    between atoms: C_1  and  C_2
REMARK    2  A    between atoms: C_2  and  C_3
REMARK    3  A    between atoms: C_2  and  C_14
REMARK    4  A    between atoms: C_3  and  N_4
REMARK    5  A    between atoms: N_4  and  C_5
REMARK    6  A    between atoms: C_8  and  C_9
REMARK    7  A    between atoms: C_20  and  O_21
REMARK    8  A    between atoms: O_21  and  C_22
REMARK                            x       y       z     vdW  Elec       q    Type
REMARK                         _______ _______ _______ _____ _____    ______ ____
ROOT
ATOM      1  C   UNL     1       0.623   0.101   0.170  0.00  0.00    +0.000 C 
ATOM      2  C   UNL     1       2.129  -0.005  -0.111  0.00  0.00    +0.000 C 
ENDROOT
BRANCH   2   3
ATOM      3  C   UNL     1       2.788   1.378  -0.032  0.00  0.00    +0.000 A 
ATOM      4  C   UNL     1       2.414   2.386  -0.942  0.00  0.00    +0.000 A 
ATOM      5  C   UNL     1       3.018   3.642  -0.912  0.00  0.00    +0.000 A 
ATOM      6  C   UNL     1       3.998   3.917   0.039  0.00  0.00    +0.000 A 
ATOM      7  C   UNL     1       4.365   2.937   0.959  0.00  0.00    +0.000 A 
ATOM      8  F   UNL     1       5.300   3.254   1.866  0.00  0.00    +0.000 F 
ATOM      9  C   UNL     1       3.775   1.669   0.935  0.00  0.00    +0.000 A 
BRANCH   9  10
ATOM     10  O   UNL     1       4.055   0.649   1.807  0.00  0.00    +0.000 OA
BRANCH  10  11
ATOM     11  C   UNL     1       5.175   0.704   2.715  0.00  0.00    +0.000 C 
ATOM     12  C   UNL     1       6.604   0.655   2.137  0.00  0.00    +0.000 C 
ATOM     13  N   UNL     1       6.916  -0.520   2.964  0.00  0.00    +0.000 NA
ATOM     14  C   UNL     1       5.501  -0.684   3.311  0.00  0.00    +0.000 C 
ATOM     15  H   UNL     1       7.305  -1.304   2.440  0.00  0.00    +0.000 HD
ENDBRANCH  10  11
ENDBRANCH   9  10
ENDBRANCH   2   3
BRANCH   2  16
ATOM     16  C   UNL     1       2.418  -0.669  -1.480  0.00  0.00    +0.000 C 
BRANCH  16  17
ATOM     17  N   UNL     1       1.857  -2.022  -1.535  0.00  0.00    +0.000 N 
ATOM     18  H   UNL     1       2.547  -2.739  -1.315  0.00  0.00    +0.000 HD
BRANCH  17  19
ATOM     19  C   UNL     1       1.026  -2.434  -2.574  0.00  0.00    +0.000 A 
ATOM     20  C   UNL     1       0.928  -1.796  -3.813  0.00  0.00    +0.000 A 
ATOM     21  C   UNL     1       0.062  -2.270  -4.805  0.00  0.00    +0.000 A 
ATOM     22  C   UNL     1      -0.720  -3.406  -4.583  0.00  0.00    +0.000 A 
ATOM     23  C   UNL     1      -0.632  -4.061  -3.353  0.00  0.00    +0.000 A 
ATOM     24  C   UNL     1       0.241  -3.579  -2.367  0.00  0.00    +0.000 A 
BRANCH  22  25
ATOM     25  C   UNL     1      -1.631  -3.854  -5.671  0.00  0.00    +0.000 C 
ATOM     26  N   UNL     1      -2.049  -5.155  -5.654  0.00  0.00    +0.000 N 
ATOM     27  O   UNL     1      -1.975  -3.101  -6.576  0.00  0.00    +0.000 OA
ATOM     28  H   UNL     1      -1.617  -5.863  -5.080  0.00  0.00    +0.000 HD
ATOM     29  H   UNL     1      -2.581  -5.461  -6.459  0.00  0.00    +0.000 HD
ENDBRANCH  22  25
ENDBRANCH  17  19
ENDBRANCH  16  17
ENDBRANCH   2  16
TORSDOF 7
