REMARK  Name = 
REMARK  10 active torsions:
REMARK  status: ('A' for Active; 'I' for Inactive)
REMARK    1  A    between atoms: C_1  and  O_2
REMARK    2  A    between atoms: O_2  and  C_3
REMARK    3  A    between atoms: C_6  and  C_7
REMARK    4  A    between atoms: C_7  and  C_8
REMARK    5  A    between atoms: C_7  and  C_9
REMARK    6  A    between atoms: C_7  and  C_10
REMARK    7  A    between atoms: C_10  and  N_11
REMARK    8  A    between atoms: N_11  and  C_12
REMARK    9  A    between atoms: C_15  and  C_16
REMARK   10  A    between atoms: C_22  and  C_23
REMARK                            x       y       z     vdW  Elec       q    Type
REMARK                         _______ _______ _______ _____ _____    ______ ____
ROOT
ATOM      1  C   UNL     1       5.333   4.034   2.677  0.00  0.00    +0.000 C 
ATOM      2  C   UNL     1       6.787   3.610   3.020  0.00  0.00    +0.000 C 
ATOM      3  C   UNL     1       5.415   5.215   1.686  0.00  0.00    +0.000 C 
ENDROOT
BRANCH   1   7
ATOM      4  C   UNL     1       2.989   0.749   0.930  0.00  0.00    +0.000 A 
ATOM      5  C   UNL     1       4.353   0.591   1.200  0.00  0.00    +0.000 A 
ATOM      6  C   UNL     1       5.106   1.633   1.746  0.00  0.00    +0.000 A 
ATOM      7  C   UNL     1       4.535   2.879   2.022  0.00  0.00    +0.000 A 
ATOM      8  C   UNL     1       3.169   3.038   1.699  0.00  0.00    +0.000 A 
ATOM      9  C   UNL     1       2.357   1.987   1.196  0.00  0.00    +0.000 A 
BRANCH   9  10
ATOM     10  C   UNL     1       0.886   2.205   1.042  0.00  0.00    +0.000 A 
ATOM     11  C   UNL     1       0.139   1.638  -0.006  0.00  0.00    +0.000 A 
ATOM     12  C   UNL     1      -1.254   1.762  -0.070  0.00  0.00    +0.000 A 
ATOM     13  C   UNL     1      -1.935   2.498   0.893  0.00  0.00    +0.000 A 
ATOM     14  C   UNL     1      -1.222   3.114   1.915  0.00  0.00    +0.000 A 
ATOM     15  C   UNL     1       0.167   2.961   1.991  0.00  0.00    +0.000 A 
ENDBRANCH   9  10
BRANCH   4  17
ATOM     16  C   UNL     1       2.848  -1.471   0.032  0.00  0.00    +0.000 C 
ATOM     17  O   UNL     1       2.208  -0.272   0.449  0.00  0.00    +0.000 OA
ENDBRANCH   4  17
ENDBRANCH   1   7
BRANCH   1  18
ATOM     18  C   UNL     1       4.614   4.474   4.002  0.00  0.00    +0.000 C 
BRANCH  18  19
ATOM     19  N   UNL     1       5.265   5.619   4.644  0.00  0.00    +0.000 N 
ATOM     20  H   UNL     1       6.276   5.640   4.564  0.00  0.00    +0.000 HD
BRANCH  19  21
ATOM     21  C   UNL     1       4.845   6.109   5.878  0.00  0.00    +0.000 A 
ATOM     22  C   UNL     1       3.662   5.725   6.517  0.00  0.00    +0.000 A 
ATOM     23  C   UNL     1       3.262   6.328   7.718  0.00  0.00    +0.000 A 
ATOM     24  C   UNL     1       4.030   7.348   8.290  0.00  0.00    +0.000 A 
ATOM     25  C   UNL     1       5.193   7.768   7.646  0.00  0.00    +0.000 A 
ATOM     26  C   UNL     1       5.586   7.154   6.451  0.00  0.00    +0.000 A 
BRANCH  24  27
ATOM     27  C   UNL     1       3.552   7.980   9.548  0.00  0.00    +0.000 C 
ATOM     28  N   UNL     1       4.484   8.595  10.337  0.00  0.00    +0.000 N 
ATOM     29  O   UNL     1       2.375   7.929   9.889  0.00  0.00    +0.000 OA
ATOM     30  H   UNL     1       5.476   8.459  10.218  0.00  0.00    +0.000 HD
ATOM     31  H   UNL     1       4.157   8.937  11.232  0.00  0.00    +0.000 HD
ENDBRANCH  24  27
ENDBRANCH  19  21
ENDBRANCH  18  19
ENDBRANCH   1  18
TORSDOF 7
