REMARK  Name = 
REMARK  4 active torsions:
REMARK  status: ('A' for Active; 'I' for Inactive)
REMARK    1  A    between atoms: C_2  and  C_4
REMARK    2  A    between atoms: C_7  and  C_8
REMARK    3  A    between atoms: C_8  and  N_9
REMARK    4  A    between atoms: C_14  and  C_15
REMARK                            x       y       z     vdW  Elec       q    Type
REMARK                         _______ _______ _______ _____ _____    ______ ____
ROOT
ATOM      1  N   UNL     1       4.832   5.745   1.893  0.00  0.00    +0.000 N 
ATOM      2  C   UNL     1       4.166   6.939   1.752  0.00  0.00    +0.000 A 
ATOM      3  C   UNL     1       3.652   7.289   2.979  0.00  0.00    +0.000 A 
ATOM      4  C   UNL     1       4.017   6.277   3.906  0.00  0.00    +0.000 A 
ATOM      5  C   UNL     1       3.751   6.068   5.273  0.00  0.00    +0.000 A 
ATOM      6  C   UNL     1       4.265   4.935   5.936  0.00  0.00    +0.000 A 
ATOM      7  C   UNL     1       5.050   4.020   5.224  0.00  0.00    +0.000 A 
ATOM      8 CL   UNL     1       5.698   2.567   5.912  0.00  0.00    +0.000 Cl
ATOM      9  C   UNL     1       5.322   4.213   3.859  0.00  0.00    +0.000 A 
ATOM     10  C   UNL     1       4.786   5.338   3.215  0.00  0.00    +0.000 A 
ENDROOT
BRANCH   6  11
ATOM     11  C   UNL     1       3.879   4.797   7.368  0.00  0.00    +0.000 C 
ATOM     12  N   UNL     1       4.742   4.172   8.220  0.00  0.00    +0.000 N 
ATOM     13  O   UNL     1       2.823   5.259   7.786  0.00  0.00    +0.000 OA
ATOM     14  H   UNL     1       5.575   3.691   7.905  0.00  0.00    +0.000 HD
ATOM     15  H   UNL     1       4.432   4.023   9.171  0.00  0.00    +0.000 HD
ENDBRANCH   6  11
BRANCH   1  16
ATOM     16  C   UNL     1       5.347   4.959   0.776  0.00  0.00    +0.000 C 
BRANCH  16  20
ATOM     17  C   UNL     1       9.249   6.140  -0.415  0.00  0.00    +0.000 A 
ATOM     18  C   UNL     1       9.141   5.143   0.545  0.00  0.00    +0.000 A 
ATOM     19  C   UNL     1       7.867   4.751   0.948  0.00  0.00    +0.000 A 
ATOM     20  C   UNL     1       6.741   5.358   0.382  0.00  0.00    +0.000 A 
ATOM     21  C   UNL     1       6.958   6.349  -0.574  0.00  0.00    +0.000 A 
ATOM     22  N   UNL     1       8.178   6.756  -0.990  0.00  0.00    +0.000 NA
BRANCH  17  24
ATOM     23  N   UNL     1      10.615   7.618  -1.766  0.00  0.00    +0.000 N 
ATOM     24  C   UNL     1      10.605   6.594  -0.859  0.00  0.00    +0.000 C 
ATOM     25  O   UNL     1      11.640   6.093  -0.439  0.00  0.00    +0.000 OA
ATOM     26  H   UNL     1      11.496   7.992  -2.085  0.00  0.00    +0.000 HD
ATOM     27  H   UNL     1       9.738   8.026  -2.071  0.00  0.00    +0.000 HD
ENDBRANCH  17  24
ENDBRANCH  16  20
ENDBRANCH   1  16
TORSDOF 4
