REMARK  Name = 
REMARK  4 active torsions:
REMARK  status: ('A' for Active; 'I' for Inactive)
REMARK    1  A    between atoms: C_2  and  C_4
REMARK    2  A    between atoms: N_8  and  C_9
REMARK    3  A    between atoms: C_9  and  C_10
REMARK    4  A    between atoms: C_14  and  C_15
REMARK                            x       y       z     vdW  Elec       q    Type
REMARK                         _______ _______ _______ _____ _____    ______ ____
ROOT
ATOM      1  C   UNL     1       4.871   3.171  -5.052  0.00  0.00    +0.000 C 
ATOM      2  C   UNL     1       4.677   4.666  -4.852  0.00  0.00    +0.000 C 
ATOM      3  C   UNL     1       3.494   3.806  -5.135  0.00  0.00    +0.000 C 
ENDROOT
BRANCH   1   8
ATOM      4  C   UNL     1       4.128  -1.358  -2.618  0.00  0.00    +0.000 A 
ATOM      5  C   UNL     1       3.183  -0.544  -3.235  0.00  0.00    +0.000 A 
ATOM      6  C   UNL     1       3.566   0.716  -3.702  0.00  0.00    +0.000 A 
ATOM      7  C   UNL     1       4.878   1.141  -3.531  0.00  0.00    +0.000 A 
ATOM      8  N   UNL     1       5.311   2.431  -3.854  0.00  0.00    +0.000 N 
ATOM      9  N   UNL     1       5.804   0.359  -2.935  0.00  0.00    +0.000 NA
ATOM     10  C   UNL     1       5.415  -0.865  -2.491  0.00  0.00    +0.000 A 
ATOM     11  H   UNL     1       6.316   2.418  -3.689  0.00  0.00    +0.000 HD
BRANCH   4  13
ATOM     12  N   UNL     1       2.740  -3.350  -2.593  0.00  0.00    +0.000 N 
ATOM     13  C   UNL     1       3.814  -2.691  -2.064  0.00  0.00    +0.000 C 
ATOM     14  O   UNL     1       4.499  -3.198  -1.192  0.00  0.00    +0.000 OA
ATOM     15  H   UNL     1       2.589  -4.294  -2.267  0.00  0.00    +0.000 HD
ATOM     16  H   UNL     1       2.289  -3.077  -3.450  0.00  0.00    +0.000 HD
ENDBRANCH   4  13
ENDBRANCH   1   8
BRANCH   1  17
ATOM     17  C   UNL     1       5.567   2.714  -6.333  0.00  0.00    +0.000 A 
ATOM     18  C   UNL     1       6.947   2.899  -6.519  0.00  0.00    +0.000 A 
ATOM     19  C   UNL     1       7.610   2.379  -7.633  0.00  0.00    +0.000 A 
ATOM     20  C   UNL     1       6.903   1.659  -8.595  0.00  0.00    +0.000 A 
ATOM     21  C   UNL     1       5.524   1.468  -8.461  0.00  0.00    +0.000 A 
ATOM     22  C   UNL     1       4.876   2.017  -7.338  0.00  0.00    +0.000 A 
BRANCH  21  23
ATOM     23  C   UNL     1       4.755   0.634  -9.470  0.00  0.00    +0.000 C 
ATOM     24  C   UNL     1       3.724   1.468 -10.245  0.00  0.00    +0.000 C 
ATOM     25  C   UNL     1       2.841   0.579 -11.110  0.00  0.00    +0.000 C 
ATOM     26  O   UNL     1       2.227  -0.444 -10.327  0.00  0.00    +0.000 OA
ATOM     27  C   UNL     1       3.190  -1.326  -9.753  0.00  0.00    +0.000 C 
ATOM     28  C   UNL     1       4.089  -0.574  -8.787  0.00  0.00    +0.000 C 
ENDBRANCH  21  23
ENDBRANCH   1  17
TORSDOF 4
