REMARK  Name = 
REMARK  3 active torsions:
REMARK  status: ('A' for Active; 'I' for Inactive)
REMARK    1  A    between atoms: C_2  and  C_4
REMARK    2  A    between atoms: N_8  and  C_9
REMARK    3  A    between atoms: C_9  and  C_10
REMARK                            x       y       z     vdW  Elec       q    Type
REMARK                         _______ _______ _______ _____ _____    ______ ____
ROOT
ATOM      1  C   UNL     1       3.081  -3.604   0.143  0.00  0.00    +0.000 A 
ATOM      2  C   UNL     1       2.378  -3.576  -1.057  0.00  0.00    +0.000 A 
ATOM      3  C   UNL     1       3.079  -3.426  -2.257  0.00  0.00    +0.000 A 
ATOM      4  C   UNL     1       4.465  -3.302  -2.236  0.00  0.00    +0.000 A 
ATOM      5  N   UNL     1       5.235  -3.078  -3.379  0.00  0.00    +0.000 N 
ATOM      6  N   UNL     1       5.158  -3.304  -1.075  0.00  0.00    +0.000 NA
ATOM      7  C   UNL     1       4.457  -3.446   0.084  0.00  0.00    +0.000 A 
ATOM      8  H   UNL     1       6.206  -3.104  -3.075  0.00  0.00    +0.000 HD
ENDROOT
BRANCH   1  10
ATOM      9  N   UNL     1       1.230  -4.431   1.478  0.00  0.00    +0.000 N 
ATOM     10  C   UNL     1       2.428  -3.771   1.457  0.00  0.00    +0.000 C 
ATOM     11  O   UNL     1       2.950  -3.372   2.489  0.00  0.00    +0.000 OA
ATOM     12  H   UNL     1       0.846  -4.635   2.393  0.00  0.00    +0.000 HD
ATOM     13  H   UNL     1       0.903  -4.989   0.702  0.00  0.00    +0.000 HD
ENDBRANCH   1  10
BRANCH   5  14
ATOM     14  C   UNL     1       4.951  -3.611  -4.720  0.00  0.00    +0.000 C 
ATOM     15  C   UNL     1       5.108  -2.594  -5.849  0.00  0.00    +0.000 C 
ATOM     16  C   UNL     1       3.764  -3.171  -5.560  0.00  0.00    +0.000 C 
BRANCH  14  17
ATOM     17  C   UNL     1       5.471  -5.028  -4.970  0.00  0.00    +0.000 A 
ATOM     18  C   UNL     1       4.684  -6.155  -4.674  0.00  0.00    +0.000 A 
ATOM     19  C   UNL     1       5.103  -7.447  -5.006  0.00  0.00    +0.000 A 
ATOM     20  C   UNL     1       6.330  -7.641  -5.633  0.00  0.00    +0.000 A 
ATOM     21  C   UNL     1       7.149  -6.549  -5.899  0.00  0.00    +0.000 A 
ATOM     22  C   UNL     1       6.728  -5.261  -5.558  0.00  0.00    +0.000 A 
ENDBRANCH  14  17
ENDBRANCH   5  14
TORSDOF 3
