REMARK  Name = 
REMARK  10 active torsions:
REMARK  status: ('A' for Active; 'I' for Inactive)
REMARK    1  A    between atoms: C_1  and  C_2
REMARK    2  A    between atoms: C_2  and  C_3
REMARK    3  A    between atoms: C_3  and  N_4
REMARK    4  A    between atoms: C_3  and  C_20
REMARK    5  A    between atoms: N_4  and  C_5
REMARK    6  A    between atoms: C_5  and  C_6
REMARK    7  A    between atoms: C_9  and  C_10
REMARK    8  A    between atoms: C_10  and  N_11
REMARK    9  A    between atoms: N_11  and  C_12
REMARK   10  A    between atoms: C_12  and  C_13
REMARK                            x       y       z     vdW  Elec       q    Type
REMARK                         _______ _______ _______ _____ _____    ______ ____
ROOT
ATOM      1  C   UNL     1      -5.355   2.743   6.564  0.00  0.00    +0.000 C 
ENDROOT
BRANCH   1   2
ATOM      2  C   UNL     1      -5.111   3.288   5.187  0.00  0.00    +0.000 A 
ATOM      3  C   UNL     1      -4.019   4.113   4.894  0.00  0.00    +0.000 A 
ATOM      4  C   UNL     1      -3.811   4.550   3.586  0.00  0.00    +0.000 A 
ATOM      5  C   UNL     1      -4.704   4.157   2.597  0.00  0.00    +0.000 A 
ATOM      6  N   UNL     1      -5.777   3.361   2.854  0.00  0.00    +0.000 NA
ATOM      7  C   UNL     1      -5.952   2.953   4.132  0.00  0.00    +0.000 A 
BRANCH   5   8
ATOM      8  C   UNL     1      -4.572   4.683   1.176  0.00  0.00    +0.000 C 
BRANCH   8   9
ATOM      9  N   UNL     1      -5.762   5.417   0.701  0.00  0.00    +0.000 NA
ATOM     10  H   UNL     1      -6.549   4.766   0.786  0.00  0.00    +0.000 HD
BRANCH   9  11
ATOM     11  C   UNL     1      -6.050   6.581   1.556  0.00  0.00    +0.000 C 
BRANCH  11  12
ATOM     12  C   UNL     1      -7.319   7.332   1.081  0.00  0.00    +0.000 C 
ATOM     13  C   UNL     1      -7.603   8.564   1.925  0.00  0.00    +0.000 C 
ATOM     14  C   UNL     1      -6.719   9.626   1.302  0.00  0.00    +0.000 C 
ATOM     15  C   UNL     1      -6.622   9.226  -0.164  0.00  0.00    +0.000 C 
ATOM     16  N   UNL     1      -7.175   7.874  -0.280  0.00  0.00    +0.000 NA
ATOM     17  H   UNL     1      -6.535   7.264  -0.797  0.00  0.00    +0.000 HD
ENDBRANCH  11  12
ENDBRANCH   9  11
ENDBRANCH   8   9
ENDBRANCH   5   8
ENDBRANCH   1   2
BRANCH   1  18
ATOM     18  N   UNL     1      -5.650   3.794   7.526  0.00  0.00    +0.000 NA
ATOM     19  H   UNL     1      -6.531   4.265   7.300  0.00  0.00    +0.000 HD
BRANCH  18  20
ATOM     20  C   UNL     1      -5.663   3.341   8.915  0.00  0.00    +0.000 C 
BRANCH  20  21
ATOM     21  C   UNL     1      -6.808   2.382   9.201  0.00  0.00    +0.000 A 
ATOM     22  C   UNL     1      -6.579   1.072   9.602  0.00  0.00    +0.000 A 
ATOM     23  S   UNL     1      -7.992   0.228  10.038  0.00  0.00    +0.000 S 
ATOM     24  C   UNL     1      -8.966   1.583   9.713  0.00  0.00    +0.000 A 
ATOM     25  N   UNL     1     -10.302   1.565   9.978  0.00  0.00    +0.000 NA
ATOM     26  C   UNL     1     -10.909   2.669   9.700  0.00  0.00    +0.000 A 
ATOM     27  N   UNL     1     -10.317   3.769   9.135  0.00  0.00    +0.000 N 
ATOM     28  C   UNL     1      -8.994   3.788   8.743  0.00  0.00    +0.000 A 
ATOM     29  O   UNL     1      -8.536   4.687   8.044  0.00  0.00    +0.000 OA
ATOM     30  C   UNL     1      -8.234   2.629   9.176  0.00  0.00    +0.000 A 
ATOM     31  H   UNL     1     -10.876   4.564   8.864  0.00  0.00    +0.000 HD
ENDBRANCH  20  21
BRANCH  20  33
ATOM     32  C   UNL     1      -5.529   4.264  11.312  0.00  0.00    +0.000 C 
ATOM     33  C   UNL     1      -5.626   4.582   9.825  0.00  0.00    +0.000 C 
ENDBRANCH  20  33
ENDBRANCH  18  20
ENDBRANCH   1  18
TORSDOF 9
