REMARK  Name = 
REMARK  4 active torsions:
REMARK  status: ('A' for Active; 'I' for Inactive)
REMARK    1  A    between atoms: C_2  and  C_3
REMARK    2  A    between atoms: C_6  and  C_7
REMARK    3  A    between atoms: C_7  and  N_8
REMARK    4  A    between atoms: C_12  and  C_13
REMARK                            x       y       z     vdW  Elec       q    Type
REMARK                         _______ _______ _______ _____ _____    ______ ____
ROOT
ATOM      1  N   UNL     1       3.803   0.550  -1.020  0.00  0.00    +0.000 N 
ATOM      2  C   UNL     1       4.383  -0.700  -0.835  0.00  0.00    +0.000 A 
ATOM      3  N   UNL     1       4.365  -1.474  -1.935  0.00  0.00    +0.000 NA
ATOM      4  C   UNL     1       5.043  -2.641  -1.890  0.00  0.00    +0.000 A 
ATOM      5  C   UNL     1       5.765  -3.055  -0.797  0.00  0.00    +0.000 A 
ATOM      6  C   UNL     1       5.688  -2.220   0.294  0.00  0.00    +0.000 A 
ATOM      7  N   UNL     1       5.005  -1.047   0.305  0.00  0.00    +0.000 NA
ATOM      8  H   UNL     1       3.352   0.525  -1.930  0.00  0.00    +0.000 HD
ENDROOT
BRANCH   5   9
ATOM      9  C   UNL     1       6.536  -4.304  -0.867  0.00  0.00    +0.000 C 
ATOM     10  N   UNL     1       7.632  -4.429  -0.056  0.00  0.00    +0.000 N 
ATOM     11  O   UNL     1       6.243  -5.182  -1.663  0.00  0.00    +0.000 OA
ATOM     12  H   UNL     1       8.062  -3.654   0.428  0.00  0.00    +0.000 HD
ATOM     13  H   UNL     1       8.215  -5.239  -0.231  0.00  0.00    +0.000 HD
ENDBRANCH   5   9
BRANCH   1  14
ATOM     14  C   UNL     1       3.160   1.347   0.025  0.00  0.00    +0.000 C 
ATOM     15  C   UNL     1       3.932   1.990   1.161  0.00  0.00    +0.000 C 
ATOM     16  C   UNL     1       3.543   2.828  -0.011  0.00  0.00    +0.000 C 
BRANCH  14  20
ATOM     17  C   UNL     1      -1.130   0.728   0.540  0.00  0.00    +0.000 A 
ATOM     18  C   UNL     1      -0.250   0.410   1.579  0.00  0.00    +0.000 A 
ATOM     19  C   UNL     1       1.132   0.563   1.406  0.00  0.00    +0.000 A 
ATOM     20  C   UNL     1       1.669   1.059   0.204  0.00  0.00    +0.000 A 
ATOM     21  C   UNL     1       0.755   1.326  -0.831  0.00  0.00    +0.000 A 
ATOM     22  F   UNL     1       1.213   1.765  -2.014  0.00  0.00    +0.000 F 
ATOM     23  C   UNL     1      -0.621   1.169  -0.679  0.00  0.00    +0.000 A 
BRANCH  17  25
ATOM     24  N   UNL     1      -3.694   0.552   0.888  0.00  0.00    +0.000 NA
ATOM     25  C   UNL     1      -2.546   0.622   0.731  0.00  0.00    +0.000 C 
ENDBRANCH  17  25
ENDBRANCH  14  20
ENDBRANCH   1  14
TORSDOF 4
