REMARK  Name = 
REMARK  7 active torsions:
REMARK  status: ('A' for Active; 'I' for Inactive)
REMARK    1  A    between atoms: C_1  and  C_2
REMARK    2  A    between atoms: C_2  and  C_3
REMARK    3  A    between atoms: C_2  and  C_15
REMARK    4  A    between atoms: C_3  and  N_4
REMARK    5  A    between atoms: N_4  and  C_5
REMARK    6  A    between atoms: C_8  and  C_9
REMARK    7  A    between atoms: C_19  and  C_20
REMARK                            x       y       z     vdW  Elec       q    Type
REMARK                         _______ _______ _______ _____ _____    ______ ____
ROOT
ATOM      1  C   UNL     1       3.009  -1.441   0.070  0.00  0.00    +0.000 C 
ENDROOT
BRANCH   1   3
ATOM      2  C   UNL     1       0.903   0.044  -0.061  0.00  0.00    +0.000 C 
ATOM      3  C   UNL     1       2.350  -0.172  -0.365  0.00  0.00    +0.000 C 
BRANCH   3   4
ATOM      4  C   UNL     1       2.925   0.560  -1.490  0.00  0.00    +0.000 A 
ATOM      5  C   UNL     1       2.857   1.947  -1.582  0.00  0.00    +0.000 A 
ATOM      6  C   UNL     1       3.276   2.563  -2.759  0.00  0.00    +0.000 A 
ATOM      7  C   UNL     1       3.749   1.779  -3.805  0.00  0.00    +0.000 A 
ATOM      8  C   UNL     1       3.812   0.406  -3.614  0.00  0.00    +0.000 A 
ATOM      9  N   UNL     1       3.417  -0.220  -2.474  0.00  0.00    +0.000 NA
BRANCH   8  10
ATOM     10  C   UNL     1       4.307  -0.487  -4.702  0.00  0.00    +0.000 C 
ATOM     11  N   UNL     1       4.355  -1.821  -4.386  0.00  0.00    +0.000 N 
ATOM     12  O   UNL     1       4.646  -0.069  -5.801  0.00  0.00    +0.000 OA
ATOM     13  H   UNL     1       4.092  -2.124  -3.462  0.00  0.00    +0.000 HD
ATOM     14  H   UNL     1       4.674  -2.486  -5.078  0.00  0.00    +0.000 HD
ENDBRANCH   8  10
ENDBRANCH   3   4
ENDBRANCH   1   3
BRANCH   1  15
ATOM     15  N   UNL     1       2.458  -2.553  -0.697  0.00  0.00    +0.000 N 
ATOM     16  H   UNL     1       2.498  -2.360  -1.696  0.00  0.00    +0.000 HD
BRANCH  15  17
ATOM     17  C   UNL     1       3.079  -3.786  -0.428  0.00  0.00    +0.000 A 
ATOM     18  N   UNL     1       4.023  -3.826   0.542  0.00  0.00    +0.000 NA
ATOM     19  C   UNL     1       4.621  -5.009   0.820  0.00  0.00    +0.000 A 
ATOM     20  C   UNL     1       4.314  -6.201   0.189  0.00  0.00    +0.000 A 
ATOM     21  C   UNL     1       3.324  -6.167  -0.795  0.00  0.00    +0.000 A 
ATOM     22  C   UNL     1       2.706  -4.955  -1.113  0.00  0.00    +0.000 A 
ATOM     23 CL   UNL     1       1.511  -4.944  -2.359  0.00  0.00    +0.000 Cl
BRANCH  20  24
ATOM     24  C   UNL     1       4.989  -7.481   0.499  0.00  0.00    +0.000 C 
ATOM     25  N   UNL     1       5.994  -7.499   1.428  0.00  0.00    +0.000 N 
ATOM     26  O   UNL     1       4.666  -8.516  -0.071  0.00  0.00    +0.000 OA
ATOM     27  H   UNL     1       6.356  -6.711   1.941  0.00  0.00    +0.000 HD
ATOM     28  H   UNL     1       6.431  -8.398   1.596  0.00  0.00    +0.000 HD
ENDBRANCH  20  24
ENDBRANCH  15  17
ENDBRANCH   1  15
TORSDOF 6
