REMARK  Name = 
REMARK  6 active torsions:
REMARK  status: ('A' for Active; 'I' for Inactive)
REMARK    1  A    between atoms: C_2  and  C_25
REMARK    2  A    between atoms: N_3  and  C_4
REMARK    3  A    between atoms: C_4  and  C_5
REMARK    4  A    between atoms: C_8  and  C_9
REMARK    5  A    between atoms: C_9  and  N_10
REMARK    6  A    between atoms: C_11  and  C_13
REMARK                            x       y       z     vdW  Elec       q    Type
REMARK                         _______ _______ _______ _____ _____    ______ ____
ROOT
ATOM      1  C   UNL     1       3.365  -2.574   2.559  0.00  0.00    +0.000 A 
ATOM      2  C   UNL     1       4.356  -1.938   3.301  0.00  0.00    +0.000 A 
ATOM      3  C   UNL     1       5.205  -2.705   4.097  0.00  0.00    +0.000 A 
ATOM      4  C   UNL     1       5.045  -4.092   4.152  0.00  0.00    +0.000 A 
ATOM      5  C   UNL     1       4.049  -4.642   3.353  0.00  0.00    +0.000 A 
ATOM      6  N   UNL     1       3.215  -3.924   2.560  0.00  0.00    +0.000 NA
ENDROOT
BRANCH   1   7
ATOM      7  C   UNL     1       2.418  -1.761   1.704  0.00  0.00    +0.000 C 
BRANCH   7  10
ATOM      8  O   UNL     1       3.928   0.481   0.902  0.00  0.00    +0.000 OA
ATOM      9  C   UNL     1       3.682  -0.396   0.079  0.00  0.00    +0.000 C 
ATOM     10  N   UNL     1       2.941  -1.512   0.379  0.00  0.00    +0.000 N 
ATOM     11  H   UNL     1       2.931  -2.286  -0.268  0.00  0.00    +0.000 HD
BRANCH   9  12
ATOM     12  C   UNL     1       4.170  -0.338  -1.283  0.00  0.00    +0.000 A 
ATOM     13  C   UNL     1       3.912  -1.133  -2.389  0.00  0.00    +0.000 A 
ATOM     14  C   UNL     1       4.680  -0.646  -3.474  0.00  0.00    +0.000 A 
ATOM     15  C   UNL     1       5.376   0.449  -3.020  0.00  0.00    +0.000 A 
ATOM     16  N   UNL     1       5.043   0.644  -1.705  0.00  0.00    +0.000 N 
ATOM     17  H   UNL     1       5.389   1.385  -1.108  0.00  0.00    +0.000 HD
ENDBRANCH   9  12
ENDBRANCH   7  10
ENDBRANCH   1   7
BRANCH   4  18
ATOM     18  C   UNL     1       5.921  -4.954   5.013  0.00  0.00    +0.000 C 
BRANCH  18  19
ATOM     19  N   UNL     1       7.099  -5.393   4.299  0.00  0.00    +0.000 N 
ATOM     20  C   UNL     1       7.989  -6.279   4.856  0.00  0.00    +0.000 C 
ATOM     21  O   UNL     1       7.810  -6.777   5.966  0.00  0.00    +0.000 OA
ATOM     22  H   UNL     1       7.407  -4.812   3.530  0.00  0.00    +0.000 HD
BRANCH  20  23
ATOM     23  C   UNL     1       9.141  -6.648   4.023  0.00  0.00    +0.000 A 
ATOM     24  C   UNL     1       9.784  -7.864   4.221  0.00  0.00    +0.000 A 
ATOM     25  S   UNL     1      11.067  -8.145   3.131  0.00  0.00    +0.000 S 
ATOM     26  C   UNL     1      10.843  -6.631   2.389  0.00  0.00    +0.000 A 
ATOM     27  N   UNL     1      11.650  -6.219   1.374  0.00  0.00    +0.000 NA
ATOM     28  C   UNL     1      11.384  -5.037   0.925  0.00  0.00    +0.000 A 
ATOM     29  N   UNL     1      10.378  -4.234   1.395  0.00  0.00    +0.000 N 
ATOM     30  C   UNL     1       9.517  -4.621   2.391  0.00  0.00    +0.000 A 
ATOM     31  O   UNL     1       8.592  -3.899   2.751  0.00  0.00    +0.000 OA
ATOM     32  C   UNL     1       9.787  -5.933   2.947  0.00  0.00    +0.000 A 
ATOM     33  H   UNL     1      10.211  -3.323   0.989  0.00  0.00    +0.000 HD
ENDBRANCH  20  23
ENDBRANCH  18  19
ENDBRANCH   4  18
TORSDOF 6
