REMARK  Name = 
REMARK  9 active torsions:
REMARK  status: ('A' for Active; 'I' for Inactive)
REMARK    1  A    between atoms: N_1  and  C_2
REMARK    2  A    between atoms: C_2  and  C_3
REMARK    3  A    between atoms: C_3  and  N_4
REMARK    4  A    between atoms: C_3  and  C_26
REMARK    5  A    between atoms: N_4  and  C_5
REMARK    6  A    between atoms: C_5  and  C_6
REMARK    7  A    between atoms: C_9  and  C_10
REMARK    8  A    between atoms: C_10  and  N_11
REMARK    9  A    between atoms: C_12  and  C_14
REMARK                            x       y       z     vdW  Elec       q    Type
REMARK                         _______ _______ _______ _____ _____    ______ ____
ROOT
ATOM      1  C   UNL     1       1.382  -1.954   0.785  0.00  0.00    +0.000 A 
ATOM      2  C   UNL     1       0.463  -1.827   1.833  0.00  0.00    +0.000 A 
ATOM      3  C   UNL     1      -0.765  -2.486   1.762  0.00  0.00    +0.000 A 
ATOM      4  C   UNL     1      -1.053  -3.266   0.644  0.00  0.00    +0.000 A 
ATOM      5  N   UNL     1      -0.180  -3.399  -0.388  0.00  0.00    +0.000 NA
ATOM      6  C   UNL     1       1.004  -2.747  -0.293  0.00  0.00    +0.000 A 
ENDROOT
BRANCH   1   7
ATOM      7  C   UNL     1       2.671  -1.180   0.765  0.00  0.00    +0.000 C 
BRANCH   7   8
ATOM      8  N   UNL     1       3.474  -1.387   1.973  0.00  0.00    +0.000 NA
ATOM      9  H   UNL     1       3.637  -2.393   2.077  0.00  0.00    +0.000 HD
BRANCH   8  10
ATOM     10  C   UNL     1       4.814  -0.745   1.890  0.00  0.00    +0.000 C 
BRANCH  10  11
ATOM     11  C   UNL     1       5.647  -1.071   3.137  0.00  0.00    +0.000 A 
ATOM     12  C   UNL     1       5.149  -0.854   4.425  0.00  0.00    +0.000 A 
ATOM     13  C   UNL     1       5.942  -1.178   5.526  0.00  0.00    +0.000 A 
ATOM     14  C   UNL     1       7.210  -1.703   5.320  0.00  0.00    +0.000 A 
ATOM     15  C   UNL     1       7.635  -1.883   4.015  0.00  0.00    +0.000 A 
ATOM     16  N   UNL     1       6.892  -1.578   2.925  0.00  0.00    +0.000 NA
ENDBRANCH  10  11
BRANCH  10  17
ATOM     17  C   UNL     1       4.772   0.802   1.655  0.00  0.00    +0.000 C 
BRANCH  17  18
ATOM     18  N   UNL     1       6.060   1.425   1.303  0.00  0.00    +0.000 NA
ATOM     19  H   UNL     1       6.820   0.883   1.724  0.00  0.00    +0.000 HD
ATOM     20  H   UNL     1       6.206   1.358   0.296  0.00  0.00    +0.000 HD
ENDBRANCH  17  18
ENDBRANCH  10  17
ENDBRANCH   8  10
ENDBRANCH   7   8
ENDBRANCH   1   7
BRANCH   4  21
ATOM     21  C   UNL     1      -2.399  -3.941   0.511  0.00  0.00    +0.000 C 
BRANCH  21  22
ATOM     22  N   UNL     1      -3.341  -3.104  -0.204  0.00  0.00    +0.000 N 
ATOM     23  C   UNL     1      -4.682  -3.124   0.074  0.00  0.00    +0.000 C 
ATOM     24  O   UNL     1      -5.145  -3.792   0.996  0.00  0.00    +0.000 OA
ATOM     25  H   UNL     1      -3.013  -2.732  -1.091  0.00  0.00    +0.000 HD
BRANCH  23  26
ATOM     26  C   UNL     1      -5.544  -2.258  -0.741  0.00  0.00    +0.000 A 
ATOM     27  C   UNL     1      -6.760  -1.827  -0.227  0.00  0.00    +0.000 A 
ATOM     28  S   UNL     1      -7.629  -0.808  -1.282  0.00  0.00    +0.000 S 
ATOM     29  C   UNL     1      -6.433  -0.945  -2.485  0.00  0.00    +0.000 A 
ATOM     30  N   UNL     1      -6.579  -0.327  -3.688  0.00  0.00    +0.000 NA
ATOM     31  C   UNL     1      -5.615  -0.546  -4.520  0.00  0.00    +0.000 A 
ATOM     32  N   UNL     1      -4.514  -1.317  -4.252  0.00  0.00    +0.000 N 
ATOM     33  C   UNL     1      -4.306  -1.927  -3.037  0.00  0.00    +0.000 A 
ATOM     34  O   UNL     1      -3.282  -2.561  -2.808  0.00  0.00    +0.000 OA
ATOM     35  C   UNL     1      -5.373  -1.736  -2.076  0.00  0.00    +0.000 A 
ATOM     36  H   UNL     1      -3.788  -1.438  -4.942  0.00  0.00    +0.000 HD
ENDBRANCH  23  26
ENDBRANCH  21  22
ENDBRANCH   4  21
TORSDOF 9
