REMARK  Name = 
REMARK  5 active torsions:
REMARK  status: ('A' for Active; 'I' for Inactive)
REMARK    1  A    between atoms: C_1  and  O_2
REMARK    2  A    between atoms: O_2  and  C_3
REMARK    3  A    between atoms: N_6  and  C_7
REMARK    4  A    between atoms: C_7  and  C_8
REMARK    5  A    between atoms: C_11  and  C_12
REMARK                            x       y       z     vdW  Elec       q    Type
REMARK                         _______ _______ _______ _____ _____    ______ ____
ROOT
ATOM      1  C   UNL     1       3.053  -0.021   1.264  0.00  0.00    +0.000 A 
ATOM      2  N   UNL     1       2.593  -0.911   2.134  0.00  0.00    +0.000 NA
ATOM      3  C   UNL     1       3.357  -1.066   3.202  0.00  0.00    +0.000 A 
ATOM      4  N   UNL     1       2.979  -2.039   4.086  0.00  0.00    +0.000 N 
ATOM      5  N   UNL     1       4.448  -0.360   3.442  0.00  0.00    +0.000 NA
ATOM      6  C   UNL     1       4.760   0.593   2.572  0.00  0.00    +0.000 A 
ATOM      7  N   UNL     1       5.833   1.400   2.855  0.00  0.00    +0.000 N 
ATOM      8  C   UNL     1       6.634   1.206   4.064  0.00  0.00    +0.000 C 
ATOM      9  C   UNL     1       6.574   2.449   4.963  0.00  0.00    +0.000 C 
ATOM     10  O   UNL     1       6.882   3.650   4.237  0.00  0.00    +0.000 OA
ATOM     11  C   UNL     1       5.944   3.832   3.162  0.00  0.00    +0.000 C 
ATOM     12  C   UNL     1       6.009   2.671   2.157  0.00  0.00    +0.000 C 
ATOM     13  N   UNL     1       4.091   0.778   1.449  0.00  0.00    +0.000 NA
ATOM     14  H   UNL     1       1.998  -2.040   4.313  0.00  0.00    +0.000 HD
ENDROOT
BRANCH   1  16
ATOM     15  C   UNL     1       1.448  -0.875  -0.205  0.00  0.00    +0.000 C 
ATOM     16  O   UNL     1       2.435   0.119   0.037  0.00  0.00    +0.000 OA
ENDBRANCH   1  16
BRANCH   4  17
ATOM     17  C   UNL     1       3.938  -2.641   4.977  0.00  0.00    +0.000 C 
BRANCH  17  18
ATOM     18  C   UNL     1       3.842  -4.139   4.834  0.00  0.00    +0.000 A 
ATOM     19  C   UNL     1       4.062  -4.757   3.595  0.00  0.00    +0.000 A 
ATOM     20  C   UNL     1       3.990  -6.141   3.484  0.00  0.00    +0.000 A 
ATOM     21  C   UNL     1       3.707  -6.874   4.630  0.00  0.00    +0.000 A 
ATOM     22  N   UNL     1       3.482  -6.313   5.853  0.00  0.00    +0.000 NA
ATOM     23  C   UNL     1       3.553  -4.963   5.918  0.00  0.00    +0.000 A 
BRANCH  21  24
ATOM     24  C   UNL     1       3.662  -8.367   4.550  0.00  0.00    +0.000 C 
ATOM     25  N   UNL     1       3.393  -9.023   5.721  0.00  0.00    +0.000 N 
ATOM     26  O   UNL     1       3.864  -8.984   3.506  0.00  0.00    +0.000 OA
ATOM     27  H   UNL     1       3.248  -8.487   6.570  0.00  0.00    +0.000 HD
ATOM     28  H   UNL     1       3.377 -10.029   5.738  0.00  0.00    +0.000 HD
ENDBRANCH  21  24
ENDBRANCH  17  18
ENDBRANCH   4  17
TORSDOF 4
