REMARK  Name = 
REMARK  6 active torsions:
REMARK  status: ('A' for Active; 'I' for Inactive)
REMARK    1  A    between atoms: C_2  and  C_21
REMARK    2  A    between atoms: N_3  and  C_4
REMARK    3  A    between atoms: C_4  and  C_5
REMARK    4  A    between atoms: C_8  and  C_9
REMARK    5  A    between atoms: C_9  and  C_10
REMARK    6  A    between atoms: C_10  and  C_11
REMARK                            x       y       z     vdW  Elec       q    Type
REMARK                         _______ _______ _______ _____ _____    ______ ____
ROOT
ATOM      1  C   UNL     1       2.306  -0.983  -2.333  0.00  0.00    +0.000 C 
ENDROOT
BRANCH   1   2
ATOM      2  C   UNL     1       3.300  -1.393  -3.390  0.00  0.00    +0.000 A 
ATOM      3  C   UNL     1       4.089  -0.423  -4.016  0.00  0.00    +0.000 A 
ATOM      4  C   UNL     1       5.030  -0.778  -4.989  0.00  0.00    +0.000 A 
ATOM      5  C   UNL     1       5.198  -2.117  -5.366  0.00  0.00    +0.000 A 
ATOM      6  C   UNL     1       4.392  -3.086  -4.750  0.00  0.00    +0.000 A 
ATOM      7  C   UNL     1       3.449  -2.730  -3.778  0.00  0.00    +0.000 A 
BRANCH   5   8
ATOM      8  C   UNL     1       6.173  -2.523  -6.453  0.00  0.00    +0.000 C 
BRANCH   8   9
ATOM      9  C   UNL     1       7.626  -2.159  -6.148  0.00  0.00    +0.000 C 
BRANCH   9  10
ATOM     10  C   UNL     1       8.586  -2.578  -7.252  0.00  0.00    +0.000 C 
ATOM     11  O   UNL     1       8.199  -3.186  -8.250  0.00  0.00    +0.000 OA
ATOM     12  N   UNL     1       9.910  -2.177  -7.090  0.00  0.00    +0.000 N 
ATOM     13  C   UNL     1      10.855  -2.362  -8.188  0.00  0.00    +0.000 C 
ATOM     14  C   UNL     1      11.929  -3.375  -7.809  0.00  0.00    +0.000 C 
ATOM     15  C   UNL     1      12.611  -2.981  -6.498  0.00  0.00    +0.000 C 
ATOM     16  C   UNL     1      11.584  -2.746  -5.389  0.00  0.00    +0.000 C 
ATOM     17  C   UNL     1      10.508  -1.752  -5.823  0.00  0.00    +0.000 C 
ENDBRANCH   9  10
ENDBRANCH   8   9
ENDBRANCH   5   8
ENDBRANCH   1   2
BRANCH   1  20
ATOM     18  O   UNL     1       1.481   1.568  -3.191  0.00  0.00    +0.000 OA
ATOM     19  C   UNL     1       0.720   0.614  -3.320  0.00  0.00    +0.000 C 
ATOM     20  N   UNL     1       1.024  -0.652  -2.882  0.00  0.00    +0.000 N 
ATOM     21  H   UNL     1       0.478  -1.436  -3.222  0.00  0.00    +0.000 HD
BRANCH  19  22
ATOM     22  C   UNL     1      -0.605   0.770  -3.919  0.00  0.00    +0.000 A 
ATOM     23  C   UNL     1      -1.305   1.967  -3.841  0.00  0.00    +0.000 A 
ATOM     24  S   UNL     1      -2.827   1.902  -4.620  0.00  0.00    +0.000 S 
ATOM     25  C   UNL     1      -2.577   0.285  -5.100  0.00  0.00    +0.000 A 
ATOM     26  N   UNL     1      -3.503  -0.393  -5.828  0.00  0.00    +0.000 NA
ATOM     27  C   UNL     1      -3.163  -1.602  -6.136  0.00  0.00    +0.000 A 
ATOM     28  N   UNL     1      -1.978  -2.195  -5.781  0.00  0.00    +0.000 N 
ATOM     29  C   UNL     1      -1.049  -1.581  -5.003  0.00  0.00    +0.000 A 
ATOM     30  O   UNL     1      -0.061  -2.196  -4.604  0.00  0.00    +0.000 OA
ATOM     31  C   UNL     1      -1.364  -0.202  -4.655  0.00  0.00    +0.000 A 
ATOM     32  H   UNL     1      -1.777  -3.155  -6.024  0.00  0.00    +0.000 HD
ENDBRANCH  19  22
ENDBRANCH   1  20
TORSDOF 6
