REMARK  Name = 
REMARK  6 active torsions:
REMARK  status: ('A' for Active; 'I' for Inactive)
REMARK    1  A    between atoms: C_2  and  C_4
REMARK    2  A    between atoms: N_8  and  C_9
REMARK    3  A    between atoms: C_9  and  C_10
REMARK    4  A    between atoms: C_10  and  C_11
REMARK    5  A    between atoms: C_15  and  C_16
REMARK    6  A    between atoms: C_16  and  C_17
REMARK                            x       y       z     vdW  Elec       q    Type
REMARK                         _______ _______ _______ _____ _____    ______ ____
ROOT
ATOM      1  C   UNL     1       2.786   1.485  -0.691  0.00  0.00    +0.000 A 
ATOM      2  C   UNL     1       2.253   2.708  -0.300  0.00  0.00    +0.000 A 
ATOM      3  C   UNL     1       3.051   3.847  -0.375  0.00  0.00    +0.000 A 
ATOM      4  C   UNL     1       4.370   3.747  -0.812  0.00  0.00    +0.000 A 
ATOM      5  N   UNL     1       5.185   4.853  -1.005  0.00  0.00    +0.000 N 
ATOM      6  N   UNL     1       4.910   2.559  -1.147  0.00  0.00    +0.000 NA
ATOM      7  C   UNL     1       4.117   1.457  -1.077  0.00  0.00    +0.000 A 
ATOM      8  H   UNL     1       6.130   4.509  -1.158  0.00  0.00    +0.000 HD
ENDROOT
BRANCH   1  10
ATOM      9  N   UNL     1       0.640   0.384  -0.922  0.00  0.00    +0.000 N 
ATOM     10  C   UNL     1       1.985   0.249  -0.719  0.00  0.00    +0.000 C 
ATOM     11  O   UNL     1       2.506  -0.855  -0.611  0.00  0.00    +0.000 OA
ATOM     12  H   UNL     1       0.115  -0.470  -1.060  0.00  0.00    +0.000 HD
ATOM     13  H   UNL     1       0.226   1.241  -1.266  0.00  0.00    +0.000 HD
ENDBRANCH   1  10
BRANCH   5  14
ATOM     14  C   UNL     1       5.037   5.982  -0.101  0.00  0.00    +0.000 C 
BRANCH  14  15
ATOM     15  C   UNL     1       6.040   7.093  -0.425  0.00  0.00    +0.000 C 
BRANCH  15  16
ATOM     16  C   UNL     1       5.793   8.279   0.479  0.00  0.00    +0.000 A 
ATOM     17  C   UNL     1       4.930   9.307   0.078  0.00  0.00    +0.000 A 
ATOM     18  C   UNL     1       4.642  10.357   0.947  0.00  0.00    +0.000 A 
ATOM     19  C   UNL     1       5.202  10.385   2.226  0.00  0.00    +0.000 A 
ATOM     20  C   UNL     1       6.063   9.365   2.650  0.00  0.00    +0.000 A 
ATOM     21  C   UNL     1       6.355   8.316   1.764  0.00  0.00    +0.000 A 
BRANCH  20  22
ATOM     22  C   UNL     1       6.662   9.384   4.038  0.00  0.00    +0.000 C 
BRANCH  22  23
ATOM     23  C   UNL     1       5.842   8.535   5.000  0.00  0.00    +0.000 C 
ATOM     24  C   UNL     1       4.446   9.022   5.414  0.00  0.00    +0.000 C 
ATOM     25  O   UNL     1       4.816   9.052   6.811  0.00  0.00    +0.000 OA
ATOM     26  C   UNL     1       6.184   8.722   6.486  0.00  0.00    +0.000 C 
ENDBRANCH  22  23
ENDBRANCH  20  22
ENDBRANCH  15  16
ENDBRANCH  14  15
ENDBRANCH   5  14
TORSDOF 6
