REMARK  Name = 
REMARK  9 active torsions:
REMARK  status: ('A' for Active; 'I' for Inactive)
REMARK    1  A    between atoms: C_1  and  C_2
REMARK    2  A    between atoms: C_2  and  O_3
REMARK    3  A    between atoms: N_6  and  C_7
REMARK    4  A    between atoms: C_9  and  C_10
REMARK    5  A    between atoms: C_10  and  C_11
REMARK    6  A    between atoms: C_11  and  N_12
REMARK    7  A    between atoms: N_12  and  C_13
REMARK    8  A    between atoms: C_16  and  C_17
REMARK    9  A    between atoms: C_23  and  C_24
REMARK                            x       y       z     vdW  Elec       q    Type
REMARK                         _______ _______ _______ _____ _____    ______ ____
ROOT
ATOM      1  C   UNL     1       3.881  -1.103  -3.739  0.00  0.00    +0.000 A 
ATOM      2  C   UNL     1       5.142  -0.504  -3.898  0.00  0.00    +0.000 A 
ATOM      3  C   UNL     1       6.045  -0.915  -4.898  0.00  0.00    +0.000 A 
ATOM      4  C   UNL     1       5.655  -1.952  -5.756  0.00  0.00    +0.000 A 
ATOM      5  C   UNL     1       4.412  -2.574  -5.634  0.00  0.00    +0.000 A 
ATOM      6  C   UNL     1       3.536  -2.126  -4.639  0.00  0.00    +0.000 A 
ENDROOT
BRANCH   1  11
ATOM      7  C   UNL     1       0.979  -0.036   0.146  0.00  0.00    +0.000 C 
ATOM      8  C   UNL     1       2.479  -0.362   0.102  0.00  0.00    +0.000 C 
ATOM      9  C   UNL     1       3.273   0.666  -0.718  0.00  0.00    +0.000 C 
ATOM     10  C   UNL     1       2.920   0.617  -2.204  0.00  0.00    +0.000 C 
ATOM     11  N   UNL     1       2.995  -0.745  -2.733  0.00  0.00    +0.000 N 
ATOM     12  C   UNL     1       2.354  -1.829  -1.960  0.00  0.00    +0.000 C 
ATOM     13  C   UNL     1       2.730  -1.762  -0.479  0.00  0.00    +0.000 C 
ATOM     14  F   UNL     1       4.063  -2.060  -0.366  0.00  0.00    +0.000 F 
BRANCH   8  15
ATOM     15  O   UNL     1       2.930  -0.333   1.466  0.00  0.00    +0.000 OA
ATOM     16  H   UNL     1       2.862   0.579   1.795  0.00  0.00    +0.000 HD
ENDBRANCH   8  15
ENDBRANCH   1  11
BRANCH   5  17
ATOM     17  C   UNL     1       4.031  -3.722  -6.529  0.00  0.00    +0.000 C 
ATOM     18  F   UNL     1       5.008  -4.066  -7.416  0.00  0.00    +0.000 F 
ATOM     19  F   UNL     1       3.751  -4.857  -5.831  0.00  0.00    +0.000 F 
ATOM     20  F   UNL     1       2.926  -3.460  -7.280  0.00  0.00    +0.000 F 
ENDBRANCH   5  17
BRANCH   3  21
ATOM     21  C   UNL     1       7.415  -0.260  -4.985  0.00  0.00    +0.000 C 
BRANCH  21  22
ATOM     22  C   UNL     1       8.283  -0.798  -6.130  0.00  0.00    +0.000 C 
BRANCH  22  23
ATOM     23  N   UNL     1       9.613  -0.207  -6.175  0.00  0.00    +0.000 N 
ATOM     24  H   UNL     1       9.635   0.798  -6.022  0.00  0.00    +0.000 HD
BRANCH  23  25
ATOM     25  C   UNL     1      10.461  -0.593  -7.226  0.00  0.00    +0.000 A 
ATOM     26  C   UNL     1      10.168  -1.623  -8.132  0.00  0.00    +0.000 A 
ATOM     27  C   UNL     1      11.079  -2.005  -9.124  0.00  0.00    +0.000 A 
ATOM     28  C   UNL     1      12.322  -1.379  -9.211  0.00  0.00    +0.000 A 
ATOM     29  C   UNL     1      12.653  -0.385  -8.286  0.00  0.00    +0.000 A 
ATOM     30  C   UNL     1      11.729  -0.002  -7.305  0.00  0.00    +0.000 A 
BRANCH  28  31
ATOM     31  C   UNL     1      13.263  -1.827 -10.274  0.00  0.00    +0.000 C 
ATOM     32  N   UNL     1      14.227  -0.942 -10.668  0.00  0.00    +0.000 N 
ATOM     33  O   UNL     1      13.160  -2.922 -10.807  0.00  0.00    +0.000 OA
ATOM     34  H   UNL     1      14.198   0.039 -10.434  0.00  0.00    +0.000 HD
ATOM     35  H   UNL     1      14.788  -1.221 -11.463  0.00  0.00    +0.000 HD
ENDBRANCH  28  31
ENDBRANCH  23  25
ENDBRANCH  22  23
ENDBRANCH  21  22
ENDBRANCH   3  21
TORSDOF 8
