REMARK  Name = 
REMARK  6 active torsions:
REMARK  status: ('A' for Active; 'I' for Inactive)
REMARK    1  A    between atoms: C_1  and  C_2
REMARK    2  A    between atoms: C_2  and  C_3
REMARK    3  A    between atoms: C_6  and  C_7
REMARK    4  A    between atoms: C_7  and  N_8
REMARK    5  A    between atoms: N_8  and  C_9
REMARK    6  A    between atoms: C_12  and  C_13
REMARK                            x       y       z     vdW  Elec       q    Type
REMARK                         _______ _______ _______ _____ _____    ______ ____
ROOT
ATOM      1  N   UNL     1       5.116   0.108  -3.784  0.00  0.00    +0.000 N 
ATOM      2  H   UNL     1       5.220   1.079  -3.511  0.00  0.00    +0.000 HD
ENDROOT
BRANCH   1   3
ATOM      3  C   UNL     1       5.857  -0.340  -4.862  0.00  0.00    +0.000 A 
ATOM      4  C   UNL     1       5.649  -1.600  -5.438  0.00  0.00    +0.000 A 
ATOM      5  C   UNL     1       6.378  -2.019  -6.552  0.00  0.00    +0.000 A 
ATOM      6  C   UNL     1       7.340  -1.183  -7.114  0.00  0.00    +0.000 A 
ATOM      7  C   UNL     1       7.587   0.064  -6.537  0.00  0.00    +0.000 A 
ATOM      8  C   UNL     1       6.850   0.475  -5.417  0.00  0.00    +0.000 A 
BRANCH   6   9
ATOM      9  C   UNL     1       8.079  -1.688  -8.302  0.00  0.00    +0.000 C 
ATOM     10  N   UNL     1       8.546  -0.766  -9.202  0.00  0.00    +0.000 N 
ATOM     11  O   UNL     1       8.247  -2.878  -8.488  0.00  0.00    +0.000 OA
ATOM     12  H   UNL     1       8.418   0.228  -9.128  0.00  0.00    +0.000 HD
ATOM     13  H   UNL     1       9.022  -1.138 -10.016  0.00  0.00    +0.000 HD
ENDBRANCH   6   9
ENDBRANCH   1   3
BRANCH   1  14
ATOM     14  C   UNL     1       4.608  -0.808  -2.776  0.00  0.00    +0.000 C 
BRANCH  14  20
ATOM     15  C   UNL     1       0.849   0.027   0.236  0.00  0.00    +0.000 C 
ATOM     16  C   UNL     1       2.387  -0.003   0.151  0.00  0.00    +0.000 C 
ATOM     17  C   UNL     1       2.953   0.353   1.537  0.00  0.00    +0.000 C 
ATOM     18  C   UNL     1       2.885   1.041  -0.874  0.00  0.00    +0.000 C 
ATOM     19  C   UNL     1       2.553   0.664  -2.317  0.00  0.00    +0.000 C 
ATOM     20  C   UNL     1       3.074  -0.732  -2.695  0.00  0.00    +0.000 C 
ATOM     21  C   UNL     1       2.547  -1.778  -1.698  0.00  0.00    +0.000 C 
ATOM     22  C   UNL     1       2.868  -1.418  -0.245  0.00  0.00    +0.000 C 
ENDBRANCH  14  20
ENDBRANCH   1  14
TORSDOF 4
