REMARK  Name = 
REMARK  6 active torsions:
REMARK  status: ('A' for Active; 'I' for Inactive)
REMARK    1  A    between atoms: C_1  and  C_2
REMARK    2  A    between atoms: C_4  and  O_5
REMARK    3  A    between atoms: O_5  and  C_6
REMARK    4  A    between atoms: C_6  and  C_7
REMARK    5  A    between atoms: C_11  and  C_12
REMARK    6  A    between atoms: C_22  and  C_23
REMARK                            x       y       z     vdW  Elec       q    Type
REMARK                         _______ _______ _______ _____ _____    ______ ____
ROOT
ATOM      1  C   UNL     1       1.366  -3.479  -0.003  0.00  0.00    +0.000 C 
ENDROOT
BRANCH   1   2
ATOM      2  C   UNL     1       2.429  -4.543  -0.014  0.00  0.00    +0.000 A 
ATOM      3  C   UNL     1       2.916  -5.050  -1.209  0.00  0.00    +0.000 A 
ATOM      4  N   UNL     1       3.836  -6.033  -1.288  0.00  0.00    +0.000 NA
ATOM      5  C   UNL     1       4.295  -6.533  -0.114  0.00  0.00    +0.000 A 
ATOM      6  C   UNL     1       3.906  -6.101   1.157  0.00  0.00    +0.000 A 
ATOM      7  C   UNL     1       2.950  -5.071   1.175  0.00  0.00    +0.000 A 
BRANCH   6   8
ATOM      8  C   UNL     1       4.464  -6.683   2.398  0.00  0.00    +0.000 A 
ATOM      9  C   UNL     1       5.790  -7.150   2.459  0.00  0.00    +0.000 A 
ATOM     10  C   UNL     1       6.326  -7.680   3.639  0.00  0.00    +0.000 A 
ATOM     11  C   UNL     1       5.551  -7.748   4.795  0.00  0.00    +0.000 A 
ATOM     12 CL   UNL     1       6.284  -8.385   6.223  0.00  0.00    +0.000 Cl
ATOM     13  C   UNL     1       4.230  -7.300   4.763  0.00  0.00    +0.000 A 
ATOM     14 CL   UNL     1       3.201  -7.350   6.150  0.00  0.00    +0.000 Cl
ATOM     15  C   UNL     1       3.695  -6.782   3.574  0.00  0.00    +0.000 A 
ENDBRANCH   6   8
ENDBRANCH   1   2
BRANCH   1  16
ATOM     16  O   UNL     1       1.973  -2.180   0.000  0.00  0.00    +0.000 OA
BRANCH  16  20
ATOM     17  C   UNL     1       0.871   2.571  -0.029  0.00  0.00    +0.000 C 
ATOM     18  C   UNL     1       0.506   1.117  -0.021  0.00  0.00    +0.000 A 
ATOM     19  C   UNL     1       1.476   0.131  -0.011  0.00  0.00    +0.000 A 
ATOM     20  C   UNL     1       1.024  -1.173  -0.006  0.00  0.00    +0.000 A 
ATOM     21  N   UNL     1      -0.271  -1.505  -0.006  0.00  0.00    +0.000 NA
ATOM     22  C   UNL     1      -1.137  -0.483  -0.015  0.00  0.00    +0.000 A 
ATOM     23  N   UNL     1      -0.814   0.831  -0.025  0.00  0.00    +0.000 NA
BRANCH  22  24
ATOM     24  C   UNL     1      -2.604  -0.833  -0.008  0.00  0.00    +0.000 C 
ATOM     25  N   UNL     1      -3.475   0.227  -0.020  0.00  0.00    +0.000 N 
ATOM     26  O   UNL     1      -3.023  -1.985   0.009  0.00  0.00    +0.000 OA
ATOM     27  H   UNL     1      -3.126   1.179  -0.029  0.00  0.00    +0.000 HD
ATOM     28  H   UNL     1      -4.468   0.043  -0.007  0.00  0.00    +0.000 HD
ENDBRANCH  22  24
ENDBRANCH  16  20
ENDBRANCH   1  16
TORSDOF 5
