REMARK  Name = 
REMARK  6 active torsions:
REMARK  status: ('A' for Active; 'I' for Inactive)
REMARK    1  A    between atoms: C_1  and  C_2
REMARK    2  A    between atoms: C_2  and  C_3
REMARK    3  A    between atoms: C_2  and  N_4
REMARK    4  A    between atoms: C_2  and  C_5
REMARK    5  A    between atoms: C_8  and  C_9
REMARK    6  A    between atoms: C_9  and  N_10
REMARK                            x       y       z     vdW  Elec       q    Type
REMARK                         _______ _______ _______ _____ _____    ______ ____
ROOT
ATOM      1  C   UNL     1       2.819  -0.788   1.146  0.00  0.00    +0.000 A 
ATOM      2  C   UNL     1       3.354  -0.288   2.342  0.00  0.00    +0.000 A 
ATOM      3  C   UNL     1       3.594  -1.135   3.427  0.00  0.00    +0.000 A 
ATOM      4  C   UNL     1       3.283  -2.484   3.302  0.00  0.00    +0.000 A 
ATOM      5  N   UNL     1       2.759  -2.998   2.162  0.00  0.00    +0.000 NA
ATOM      6  C   UNL     1       2.545  -2.152   1.128  0.00  0.00    +0.000 A 
ENDROOT
BRANCH   1   8
ATOM      7  C   UNL     1       0.977   0.525   0.141  0.00  0.00    +0.000 C 
ATOM      8  C   UNL     1       2.451   0.118  -0.026  0.00  0.00    +0.000 C 
ATOM      9  C   UNL     1       2.645  -0.548  -1.403  0.00  0.00    +0.000 C 
BRANCH   8  10
ATOM     10  N   UNL     1       3.263   1.348  -0.033  0.00  0.00    +0.000 NA
ATOM     11  H   UNL     1       2.957   1.959  -0.790  0.00  0.00    +0.000 HD
ATOM     12  H   UNL     1       4.233   1.107  -0.242  0.00  0.00    +0.000 HD
ENDBRANCH   8  10
ENDBRANCH   1   8
BRANCH   4  13
ATOM     13  C   UNL     1       3.615  -3.472   4.379  0.00  0.00    +0.000 C 
BRANCH  13  14
ATOM     14  N   UNL     1       2.785  -3.369   5.566  0.00  0.00    +0.000 N 
ATOM     15  N   UNL     1       3.415  -3.219   6.758  0.00  0.00    +0.000 NA
ATOM     16  N   UNL     1       2.738  -3.914   7.662  0.00  0.00    +0.000 NA
ATOM     17  C   UNL     1       1.606  -4.406   7.063  0.00  0.00    +0.000 A 
ATOM     18  C   UNL     1       0.606  -5.247   7.536  0.00  0.00    +0.000 A 
ATOM     19  N   UNL     1      -0.456  -5.555   6.743  0.00  0.00    +0.000 NA
ATOM     20  C   UNL     1      -0.516  -5.025   5.496  0.00  0.00    +0.000 A 
ATOM     21  C   UNL     1       0.462  -4.225   4.915  0.00  0.00    +0.000 A 
ATOM     22  C   UNL     1       1.547  -3.956   5.748  0.00  0.00    +0.000 A 
ENDBRANCH  13  14
ENDBRANCH   4  13
TORSDOF 4
