REMARK  Name = 
REMARK  6 active torsions:
REMARK  status: ('A' for Active; 'I' for Inactive)
REMARK    1  A    between atoms: C_2  and  C_18
REMARK    2  A    between atoms: N_3  and  C_4
REMARK    3  A    between atoms: C_4  and  C_5
REMARK    4  A    between atoms: C_8  and  C_9
REMARK    5  A    between atoms: C_9  and  N_10
REMARK    6  A    between atoms: N_10  and  C_11
REMARK                            x       y       z     vdW  Elec       q    Type
REMARK                         _______ _______ _______ _____ _____    ______ ____
ROOT
ATOM      1  C   UNL     1      12.912  -5.222  -2.760  0.00  0.00    +0.000 C 
ENDROOT
BRANCH   1   2
ATOM      2  C   UNL     1      11.898  -5.345  -1.651  0.00  0.00    +0.000 A 
ATOM      3  C   UNL     1      11.871  -6.485  -0.835  0.00  0.00    +0.000 A 
ATOM      4  C   UNL     1      10.967  -6.581   0.227  0.00  0.00    +0.000 A 
ATOM      5  C   UNL     1      10.075  -5.535   0.500  0.00  0.00    +0.000 A 
ATOM      6  C   UNL     1      10.089  -4.405  -0.326  0.00  0.00    +0.000 A 
ATOM      7  C   UNL     1      10.985  -4.314  -1.395  0.00  0.00    +0.000 A 
BRANCH   5   8
ATOM      8  C   UNL     1       9.056  -5.654   1.606  0.00  0.00    +0.000 C 
BRANCH   8   9
ATOM      9  N   UNL     1       9.674  -5.847   2.922  0.00  0.00    +0.000 NA
ATOM     10  H   UNL     1      10.264  -5.040   3.113  0.00  0.00    +0.000 HD
BRANCH   9  11
ATOM     11  C   UNL     1       8.674  -5.954   3.969  0.00  0.00    +0.000 C 
ATOM     12  C   UNL     1       7.722  -7.135   3.822  0.00  0.00    +0.000 C 
ATOM     13  C   UNL     1       8.574  -8.320   4.225  0.00  0.00    +0.000 C 
ATOM     14  C   UNL     1       9.523  -7.742   5.263  0.00  0.00    +0.000 C 
ATOM     15  N   UNL     1       9.388  -6.281   5.192  0.00  0.00    +0.000 NA
ATOM     16  H   UNL     1      10.304  -5.845   5.192  0.00  0.00    +0.000 HD
ENDBRANCH   9  11
ENDBRANCH   8   9
ENDBRANCH   5   8
ENDBRANCH   1   2
BRANCH   1  19
ATOM     17  O   UNL     1      13.412  -7.849  -3.674  0.00  0.00    +0.000 OA
ATOM     18  C   UNL     1      12.724  -7.097  -4.356  0.00  0.00    +0.000 C 
ATOM     19  N   UNL     1      12.465  -5.798  -3.999  0.00  0.00    +0.000 N 
ATOM     20  H   UNL     1      11.782  -5.261  -4.521  0.00  0.00    +0.000 HD
BRANCH  18  21
ATOM     21  C   UNL     1      12.160  -7.532  -5.638  0.00  0.00    +0.000 A 
ATOM     22  C   UNL     1      12.761  -8.544  -6.377  0.00  0.00    +0.000 A 
ATOM     23  S   UNL     1      11.917  -8.916  -7.816  0.00  0.00    +0.000 S 
ATOM     24  C   UNL     1      10.718  -7.756  -7.484  0.00  0.00    +0.000 A 
ATOM     25  N   UNL     1       9.653  -7.571  -8.316  0.00  0.00    +0.000 NA
ATOM     26  C   UNL     1       8.814  -6.681  -7.911  0.00  0.00    +0.000 A 
ATOM     27  N   UNL     1       8.934  -5.943  -6.765  0.00  0.00    +0.000 N 
ATOM     28  C   UNL     1      10.026  -6.032  -5.951  0.00  0.00    +0.000 A 
ATOM     29  O   UNL     1      10.183  -5.235  -5.028  0.00  0.00    +0.000 OA
ATOM     30  C   UNL     1      10.977  -7.067  -6.314  0.00  0.00    +0.000 A 
ATOM     31  H   UNL     1       8.270  -5.226  -6.533  0.00  0.00    +0.000 HD
ENDBRANCH  18  21
ENDBRANCH   1  19
TORSDOF 6
