REMARK  Name = 
REMARK  9 active torsions:
REMARK  status: ('A' for Active; 'I' for Inactive)
REMARK    1  A    between atoms: C_1  and  O_2
REMARK    2  A    between atoms: O_2  and  C_3
REMARK    3  A    between atoms: C_10  and  C_11
REMARK    4  A    between atoms: N_13  and  C_14
REMARK    5  A    between atoms: C_14  and  C_15
REMARK    6  A    between atoms: C_18  and  C_19
REMARK    7  A    between atoms: C_19  and  C_20
REMARK    8  A    between atoms: C_20  and  N_21
REMARK    9  A    between atoms: N_21  and  C_22
REMARK                            x       y       z     vdW  Elec       q    Type
REMARK                         _______ _______ _______ _____ _____    ______ ____
ROOT
ATOM      1  C   UNL     1       2.898   2.869   2.036  0.00  0.00    +0.000 C 
ENDROOT
BRANCH   1   2
ATOM      2  C   UNL     1       1.661   3.286   1.282  0.00  0.00    +0.000 A 
ATOM      3  C   UNL     1       0.652   2.354   1.022  0.00  0.00    +0.000 A 
ATOM      4  C   UNL     1      -0.461   2.700   0.249  0.00  0.00    +0.000 A 
ATOM      5  C   UNL     1      -0.598   3.985  -0.293  0.00  0.00    +0.000 A 
ATOM      6  C   UNL     1       0.394   4.932   0.010  0.00  0.00    +0.000 A 
ATOM      7  C   UNL     1       1.514   4.585   0.781  0.00  0.00    +0.000 A 
BRANCH   5   8
ATOM      8  C   UNL     1      -1.750   4.388  -1.201  0.00  0.00    +0.000 C 
BRANCH   8   9
ATOM      9  C   UNL     1      -2.783   3.284  -1.479  0.00  0.00    +0.000 C 
BRANCH   9  10
ATOM     10  N   UNL     1      -3.847   3.732  -2.384  0.00  0.00    +0.000 N 
ATOM     11  H   UNL     1      -3.482   4.184  -3.221  0.00  0.00    +0.000 HD
BRANCH  10  12
ATOM     12  C   UNL     1      -4.843   2.793  -2.710  0.00  0.00    +0.000 A 
ATOM     13  C   UNL     1      -5.262   1.784  -1.839  0.00  0.00    +0.000 A 
ATOM     14  C   UNL     1      -6.299   0.941  -2.214  0.00  0.00    +0.000 A 
ATOM     15  N   UNL     1      -6.962   1.038  -3.379  0.00  0.00    +0.000 NA
ATOM     16  C   UNL     1      -6.585   2.041  -4.192  0.00  0.00    +0.000 A 
ATOM     17  C   UNL     1      -5.559   2.938  -3.898  0.00  0.00    +0.000 A 
ENDBRANCH  10  12
ENDBRANCH   9  10
ENDBRANCH   8   9
ENDBRANCH   5   8
ENDBRANCH   1   2
BRANCH   1  20
ATOM     18  C   UNL     1       5.081   1.819   1.633  0.00  0.00    +0.000 C 
ATOM     19  O   UNL     1       5.327   1.843   2.838  0.00  0.00    +0.000 OA
ATOM     20  N   UNL     1       3.898   2.314   1.149  0.00  0.00    +0.000 N 
ATOM     21  H   UNL     1       3.690   2.271   0.161  0.00  0.00    +0.000 HD
BRANCH  18  29
ATOM     22  C   UNL     1       5.088   1.390  -1.795  0.00  0.00    +0.000 A 
ATOM     23  N   UNL     1       5.344   1.083  -3.084  0.00  0.00    +0.000 NA
ATOM     24  C   UNL     1       6.514   0.509  -3.375  0.00  0.00    +0.000 A 
ATOM     25  N   UNL     1       7.482   0.194  -2.521  0.00  0.00    +0.000 NA
ATOM     26  C   UNL     1       7.179   0.500  -1.247  0.00  0.00    +0.000 A 
ATOM     27  S   UNL     1       8.306   0.170  -0.022  0.00  0.00    +0.000 S 
ATOM     28  C   UNL     1       7.265   0.791   1.167  0.00  0.00    +0.000 A 
ATOM     29  C   UNL     1       6.052   1.260   0.672  0.00  0.00    +0.000 A 
ATOM     30  C   UNL     1       6.008   1.090  -0.778  0.00  0.00    +0.000 A 
BRANCH  22  32
ATOM     31  C   UNL     1       3.378   2.745  -2.607  0.00  0.00    +0.000 C 
ATOM     32  O   UNL     1       3.884   1.996  -1.503  0.00  0.00    +0.000 OA
ENDBRANCH  22  32
ENDBRANCH  18  29
ENDBRANCH   1  20
TORSDOF 8
