REMARK  Name = 
REMARK  7 active torsions:
REMARK  status: ('A' for Active; 'I' for Inactive)
REMARK    1  A    between atoms: C_1  and  C_2
REMARK    2  A    between atoms: C_2  and  O_3
REMARK    3  A    between atoms: O_3  and  C_4
REMARK    4  A    between atoms: C_4  and  C_6
REMARK    5  A    between atoms: C_9  and  N_10
REMARK    6  A    between atoms: N_10  and  C_11
REMARK    7  A    between atoms: C_11  and  C_12
REMARK                            x       y       z     vdW  Elec       q    Type
REMARK                         _______ _______ _______ _____ _____    ______ ____
ROOT
ATOM      1  C   UNL     1       4.825   1.965   2.349  0.00  0.00    +0.000 A 
ATOM      2  C   UNL     1       4.162   1.854   3.564  0.00  0.00    +0.000 A 
ATOM      3  C   UNL     1       4.668   2.556   4.657  0.00  0.00    +0.000 A 
ATOM      4  C   UNL     1       5.792   3.375   4.517  0.00  0.00    +0.000 A 
ATOM      5  C   UNL     1       6.388   3.396   3.255  0.00  0.00    +0.000 A 
ATOM      6  N   UNL     1       5.935   2.722   2.176  0.00  0.00    +0.000 NA
ENDROOT
BRANCH   1   7
ATOM      7  C   UNL     1       4.371   1.126   1.196  0.00  0.00    +0.000 C 
ATOM      8  O   UNL     1       3.458   0.317   1.260  0.00  0.00    +0.000 OA
BRANCH   7   9
ATOM      9  O   UNL     1       5.198   1.328   0.142  0.00  0.00    +0.000 OA
BRANCH   9  11
ATOM     10  C   UNL     1       6.292  -0.739  -0.312  0.00  0.00    +0.000 C 
ATOM     11  C   UNL     1       5.261   0.260  -0.807  0.00  0.00    +0.000 C 
ENDBRANCH   9  11
ENDBRANCH   7   9
ENDBRANCH   1   7
BRANCH   4  12
ATOM     12  N   UNL     1       6.266   4.056   5.643  0.00  0.00    +0.000 N 
ATOM     13  H   UNL     1       6.684   3.409   6.308  0.00  0.00    +0.000 HD
BRANCH  12  14
ATOM     14  C   UNL     1       7.120   5.218   5.423  0.00  0.00    +0.000 C 
BRANCH  14  15
ATOM     15  C   UNL     1       7.125   6.099   6.647  0.00  0.00    +0.000 A 
ATOM     16  C   UNL     1       8.328   6.469   7.264  0.00  0.00    +0.000 A 
ATOM     17  C   UNL     1       8.327   7.364   8.335  0.00  0.00    +0.000 A 
ATOM     18  C   UNL     1       7.126   7.899   8.799  0.00  0.00    +0.000 A 
ATOM     19  C   UNL     1       5.922   7.528   8.205  0.00  0.00    +0.000 A 
ATOM     20  C   UNL     1       5.920   6.633   7.135  0.00  0.00    +0.000 A 
ENDBRANCH  14  15
ENDBRANCH  12  14
ENDBRANCH   4  12
TORSDOF 6
