REMARK  Name = 
REMARK  6 active torsions:
REMARK  status: ('A' for Active; 'I' for Inactive)
REMARK    1  A    between atoms: N_1  and  C_2
REMARK    2  A    between atoms: C_2  and  C_3
REMARK    3  A    between atoms: C_3  and  C_4
REMARK    4  A    between atoms: C_7  and  C_8
REMARK    5  A    between atoms: C_8  and  N_9
REMARK    6  A    between atoms: C_15  and  N_16
REMARK                            x       y       z     vdW  Elec       q    Type
REMARK                         _______ _______ _______ _____ _____    ______ ____
ROOT
ATOM      1  C   UNL     1       9.001   1.173   1.394  0.00  0.00    +0.000 C 
ENDROOT
BRANCH   1   2
ATOM      2  N   UNL     1      10.019   0.145   1.200  0.00  0.00    +0.000 N 
ATOM      3  C   UNL     1      10.617  -0.531   2.239  0.00  0.00    +0.000 A 
ATOM      4  C   UNL     1      11.445  -1.475   1.685  0.00  0.00    +0.000 A 
ATOM      5  C   UNL     1      11.808  -0.935   0.430  0.00  0.00    +0.000 A 
ATOM      6  C   UNL     1      12.928  -1.090  -0.408  0.00  0.00    +0.000 A 
ATOM      7  C   UNL     1      12.943  -0.445  -1.643  0.00  0.00    +0.000 A 
ATOM      8  C   UNL     1      11.809   0.243  -2.081  0.00  0.00    +0.000 A 
ATOM      9  C   UNL     1      10.694   0.454  -1.243  0.00  0.00    +0.000 A 
ATOM     10  C   UNL     1      10.775  -0.066   0.056  0.00  0.00    +0.000 A 
BRANCH   8  11
ATOM     11  N   UNL     1      11.792   0.795  -3.440  0.00  0.00    +0.000 N 
ATOM     12  O   UNL     1      12.853   0.776  -4.089  0.00  0.00    +0.000 OA
ATOM     13  O   UNL     1      10.722   1.245  -3.858  0.00  0.00    +0.000 OA
ENDBRANCH   8  11
ENDBRANCH   1   2
BRANCH   1  17
ATOM     14  C   UNL     1       4.850  -0.060   0.979  0.00  0.00    +0.000 A 
ATOM     15  C   UNL     1       5.487  -0.113   2.224  0.00  0.00    +0.000 A 
ATOM     16  C   UNL     1       6.838   0.249   2.357  0.00  0.00    +0.000 A 
ATOM     17  C   UNL     1       7.584   0.673   1.245  0.00  0.00    +0.000 A 
ATOM     18  C   UNL     1       6.955   0.694  -0.005  0.00  0.00    +0.000 A 
ATOM     19  C   UNL     1       5.610   0.333  -0.134  0.00  0.00    +0.000 A 
BRANCH  14  20
ATOM     20  C   UNL     1       3.416  -0.500   0.743  0.00  0.00    +0.000 C 
BRANCH  20  21
ATOM     21  C   UNL     1       2.428  -0.244   1.889  0.00  0.00    +0.000 C 
BRANCH  21  22
ATOM     22  N   UNL     1       1.072  -0.669   1.513  0.00  0.00    +0.000 NA
ATOM     23  H   UNL     1       0.429  -0.531   2.296  0.00  0.00    +0.000 HD
ATOM     24  H   UNL     1       1.071  -1.668   1.314  0.00  0.00    +0.000 HD
ENDBRANCH  21  22
ENDBRANCH  20  21
ENDBRANCH  14  20
ENDBRANCH   1  17
TORSDOF 6
