REMARK  Name = 
REMARK  8 active torsions:
REMARK  status: ('A' for Active; 'I' for Inactive)
REMARK    1  A    between atoms: C_1  and  C_2
REMARK    2  A    between atoms: C_7  and  C_8
REMARK    3  A    between atoms: C_12  and  C_13
REMARK    4  A    between atoms: C_13  and  C_14
REMARK    5  A    between atoms: C_14  and  O_15
REMARK    6  A    between atoms: O_15  and  C_16
REMARK    7  A    between atoms: C_19  and  C_20
REMARK    8  A    between atoms: C_20  and  O_22
REMARK                            x       y       z     vdW  Elec       q    Type
REMARK                         _______ _______ _______ _____ _____    ______ ____
ROOT
ATOM      1  C   UNL     1       0.727   2.607  -0.002  0.00  0.00    +0.000 A 
ATOM      2  C   UNL     1       1.521   2.980  -1.087  0.00  0.00    +0.000 A 
ATOM      3  C   UNL     1       2.096   4.248  -1.110  0.00  0.00    +0.000 A 
ATOM      4  C   UNL     1       1.873   5.120  -0.051  0.00  0.00    +0.000 A 
ATOM      5  C   UNL     1       1.070   4.697   1.002  0.00  0.00    +0.000 A 
ATOM      6  N   UNL     1       0.493   3.472   1.024  0.00  0.00    +0.000 NA
ENDROOT
BRANCH   1  13
ATOM      7  C   UNL     1      -1.874   1.950   1.499  0.00  0.00    +0.000 C 
ATOM      8  C   UNL     1      -1.016   0.921   0.823  0.00  0.00    +0.000 A 
ATOM      9  N   UNL     1      -1.465  -0.365   0.932  0.00  0.00    +0.000 NA
ATOM     10  C   UNL     1      -0.729  -1.312   0.316  0.00  0.00    +0.000 A 
ATOM     11  C   UNL     1       0.404  -1.004  -0.404  0.00  0.00    +0.000 A 
ATOM     12  N   UNL     1       0.860   0.262  -0.531  0.00  0.00    +0.000 NA
ATOM     13  C   UNL     1       0.151   1.244   0.110  0.00  0.00    +0.000 A 
ENDBRANCH   1  13
BRANCH   5  14
ATOM     14  C   UNL     1       0.750   5.616   2.156  0.00  0.00    +0.000 C 
BRANCH  14  15
ATOM     15  C   UNL     1      -0.510   6.424   1.858  0.00  0.00    +0.000 C 
BRANCH  15  16
ATOM     16  O   UNL     1      -0.824   7.298   2.954  0.00  0.00    +0.000 OA
BRANCH  16  17
ATOM     17  C   UNL     1      -1.936   8.071   2.783  0.00  0.00    +0.000 A 
ATOM     18  C   UNL     1      -2.763   8.108   1.676  0.00  0.00    +0.000 A 
ATOM     19  N   UNL     1      -3.848   8.902   1.559  0.00  0.00    +0.000 NA
ATOM     20  C   UNL     1      -4.110   9.691   2.613  0.00  0.00    +0.000 A 
ATOM     21  N   UNL     1      -3.386   9.753   3.762  0.00  0.00    +0.000 NA
ATOM     22  C   UNL     1      -2.309   8.927   3.804  0.00  0.00    +0.000 A 
BRANCH  20  23
ATOM     23  C   UNL     1      -5.307  10.605   2.536  0.00  0.00    +0.000 C 
ATOM     24  O   UNL     1      -6.075  10.706   1.596  0.00  0.00    +0.000 OA
BRANCH  23  25
ATOM     25  O   UNL     1      -5.432  11.331   3.683  0.00  0.00    +0.000 OA
ATOM     26  H   UNL     1      -4.707  11.092   4.303  0.00  0.00    +0.000 HD
ENDBRANCH  23  25
ENDBRANCH  20  23
ENDBRANCH  16  17
ENDBRANCH  15  16
ENDBRANCH  14  15
ENDBRANCH   5  14
TORSDOF 7
