REMARK  Name = 
REMARK  5 active torsions:
REMARK  status: ('A' for Active; 'I' for Inactive)
REMARK    1  A    between atoms: C_1  and  C_2
REMARK    2  A    between atoms: C_2  and  N_3
REMARK    3  A    between atoms: N_3  and  C_4
REMARK    4  A    between atoms: C_4  and  C_5
REMARK    5  A    between atoms: C_14  and  C_15
REMARK                            x       y       z     vdW  Elec       q    Type
REMARK                         _______ _______ _______ _____ _____    ______ ____
ROOT
ATOM      1  N   UNL     1       2.924   1.088  -0.571  0.00  0.00    +0.000 N 
ATOM      2  C   UNL     1       4.254   1.551  -0.570  0.00  0.00    +0.000 A 
ATOM      3  C   UNL     1       4.739   2.182  -1.718  0.00  0.00    +0.000 A 
ATOM      4  C   UNL     1       6.077   2.566  -1.788  0.00  0.00    +0.000 A 
ATOM      5  C   UNL     1       6.922   2.313  -0.710  0.00  0.00    +0.000 A 
ATOM      6  C   UNL     1       6.360   1.706   0.401  0.00  0.00    +0.000 A 
ATOM      7  N   UNL     1       5.058   1.337   0.495  0.00  0.00    +0.000 NA
ENDROOT
BRANCH   5   8
ATOM      8  C   UNL     1       8.353   2.682  -0.811  0.00  0.00    +0.000 C 
ATOM      9  N   UNL     1       9.200   2.355   0.212  0.00  0.00    +0.000 N 
ATOM     10  O   UNL     1       8.789   3.264  -1.799  0.00  0.00    +0.000 OA
ATOM     11  H   UNL     1       8.959   1.820   1.033  0.00  0.00    +0.000 HD
ATOM     12  H   UNL     1      10.175   2.602   0.088  0.00  0.00    +0.000 HD
ENDBRANCH   5   8
BRANCH   1  14
ATOM     13  C   UNL     1       3.513  -1.251   0.116  0.00  0.00    +0.000 C 
ATOM     14  C   UNL     1       2.666  -0.008   0.388  0.00  0.00    +0.000 C 
ENDBRANCH   1  14
BRANCH   1  15
ATOM     15  C   UNL     1       1.988   2.233  -0.429  0.00  0.00    +0.000 C 
BRANCH  15  16
ATOM     16  C   UNL     1       0.689   2.044  -1.199  0.00  0.00    +0.000 A 
ATOM     17  C   UNL     1       0.657   1.353  -2.411  0.00  0.00    +0.000 A 
ATOM     18  C   UNL     1      -0.558   1.207  -3.076  0.00  0.00    +0.000 A 
ATOM     19  C   UNL     1      -1.703   1.781  -2.538  0.00  0.00    +0.000 A 
ATOM     20  C   UNL     1      -1.582   2.492  -1.358  0.00  0.00    +0.000 A 
ATOM     21  N   UNL     1      -0.421   2.635  -0.680  0.00  0.00    +0.000 NA
ENDBRANCH  15  16
ENDBRANCH   1  15
TORSDOF 4
