REMARK  Name = 
REMARK  5 active torsions:
REMARK  status: ('A' for Active; 'I' for Inactive)
REMARK    1  A    between atoms: C_2  and  C_4
REMARK    2  A    between atoms: C_7  and  O_8
REMARK    3  A    between atoms: O_8  and  C_9
REMARK    4  A    between atoms: C_9  and  C_10
REMARK    5  A    between atoms: C_15  and  C_16
REMARK                            x       y       z     vdW  Elec       q    Type
REMARK                         _______ _______ _______ _____ _____    ______ ____
ROOT
ATOM      1  C   UNL     1       5.700   7.090   0.930  0.00  0.00    +0.000 A 
ATOM      2  C   UNL     1       5.070   8.333   0.816  0.00  0.00    +0.000 A 
ATOM      3  C   UNL     1       5.833   9.487   0.745  0.00  0.00    +0.000 A 
ATOM      4  F   UNL     1       5.222  10.673   0.630  0.00  0.00    +0.000 F 
ATOM      5  C   UNL     1       7.219   9.437   0.825  0.00  0.00    +0.000 A 
ATOM      6  C   UNL     1       7.883   8.218   1.017  0.00  0.00    +0.000 A 
ATOM      7  C   UNL     1       7.101   7.044   1.020  0.00  0.00    +0.000 A 
ENDROOT
BRANCH   6   8
ATOM      8  C   UNL     1       9.391   8.111   1.243  0.00  0.00    +0.000 C 
ATOM      9  C   UNL     1       9.729   7.384   2.564  0.00  0.00    +0.000 C 
ATOM     10  C   UNL     1       9.481   8.273   3.782  0.00  0.00    +0.000 C 
ATOM     11  N   UNL     1      10.260   9.510   3.721  0.00  0.00    +0.000 NA
ATOM     12  C   UNL     1       9.977  10.265   2.502  0.00  0.00    +0.000 C 
ATOM     13  C   UNL     1      10.181   9.436   1.228  0.00  0.00    +0.000 C 
ATOM     14  H   UNL     1      11.253   9.283   3.752  0.00  0.00    +0.000 HD
ENDBRANCH   6   8
BRANCH   1  15
ATOM     15  C   UNL     1       4.853   5.851   1.082  0.00  0.00    +0.000 C 
BRANCH  15  16
ATOM     16  O   UNL     1       5.474   4.711   0.491  0.00  0.00    +0.000 OA
BRANCH  16  20
ATOM     17  C   UNL     1       3.510   1.032   0.623  0.00  0.00    +0.000 A 
ATOM     18  C   UNL     1       2.901   2.134   1.230  0.00  0.00    +0.000 A 
ATOM     19  C   UNL     1       3.528   3.383   1.205  0.00  0.00    +0.000 A 
ATOM     20  C   UNL     1       4.771   3.539   0.583  0.00  0.00    +0.000 A 
ATOM     21  C   UNL     1       5.386   2.430  -0.004  0.00  0.00    +0.000 A 
ATOM     22  C   UNL     1       4.765   1.180   0.020  0.00  0.00    +0.000 A 
BRANCH  17  24
ATOM     23  N   UNL     1       1.502  -0.341   0.690  0.00  0.00    +0.000 N 
ATOM     24  C   UNL     1       2.869  -0.308   0.627  0.00  0.00    +0.000 C 
ATOM     25  O   UNL     1       3.524  -1.337   0.543  0.00  0.00    +0.000 OA
ATOM     26  H   UNL     1       1.074  -1.249   0.580  0.00  0.00    +0.000 HD
ATOM     27  H   UNL     1       0.934   0.471   0.499  0.00  0.00    +0.000 HD
ENDBRANCH  17  24
ENDBRANCH  16  20
ENDBRANCH  15  16
ENDBRANCH   1  15
TORSDOF 5
