REMARK  Name = 
REMARK  7 active torsions:
REMARK  status: ('A' for Active; 'I' for Inactive)
REMARK    1  A    between atoms: C_1  and  O_2
REMARK    2  A    between atoms: O_2  and  C_3
REMARK    3  A    between atoms: C_6  and  C_7
REMARK    4  A    between atoms: C_11  and  C_12
REMARK    5  A    between atoms: C_12  and  N_13
REMARK    6  A    between atoms: N_13  and  C_14
REMARK    7  A    between atoms: C_17  and  C_18
REMARK                            x       y       z     vdW  Elec       q    Type
REMARK                         _______ _______ _______ _____ _____    ______ ____
ROOT
ATOM      1  C   UNL     1       6.431  -3.537   6.877  0.00  0.00    +0.000 C 
ATOM      2  C   UNL     1       5.845  -4.353   8.007  0.00  0.00    +0.000 C 
ATOM      3  C   UNL     1       5.259  -3.015   7.714  0.00  0.00    +0.000 C 
ENDROOT
BRANCH   1   8
ATOM      4  C   UNL     1       5.099  -3.622   3.242  0.00  0.00    +0.000 A 
ATOM      5  C   UNL     1       5.691  -4.812   2.797  0.00  0.00    +0.000 A 
ATOM      6  C   UNL     1       6.448  -5.614   3.651  0.00  0.00    +0.000 A 
ATOM      7  C   UNL     1       6.669  -5.214   4.965  0.00  0.00    +0.000 A 
ATOM      8  C   UNL     1       6.149  -4.009   5.456  0.00  0.00    +0.000 A 
ATOM      9  C   UNL     1       5.368  -3.240   4.573  0.00  0.00    +0.000 A 
BRANCH   4  13
ATOM     10  C   UNL     1       2.853  -0.871   0.887  0.00  0.00    +0.000 A 
ATOM     11  C   UNL     1       3.666  -0.529   1.953  0.00  0.00    +0.000 A 
ATOM     12  N   UNL     1       4.371  -1.422   2.687  0.00  0.00    +0.000 NA
ATOM     13  C   UNL     1       4.265  -2.750   2.379  0.00  0.00    +0.000 A 
ATOM     14  C   UNL     1       3.424  -3.176   1.342  0.00  0.00    +0.000 A 
ATOM     15 CL   UNL     1       3.086  -4.826   0.948  0.00  0.00    +0.000 Cl
ATOM     16  C   UNL     1       2.738  -2.222   0.585  0.00  0.00    +0.000 A 
BRANCH  10  18
ATOM     17  C   UNL     1       1.396  -0.224  -0.859  0.00  0.00    +0.000 C 
ATOM     18  O   UNL     1       2.229   0.150   0.236  0.00  0.00    +0.000 OA
ENDBRANCH  10  18
ENDBRANCH   4  13
ENDBRANCH   1   8
BRANCH   1  19
ATOM     19  N   UNL     1       7.610  -2.663   6.993  0.00  0.00    +0.000 N 
ATOM     20  H   UNL     1       7.521  -1.796   6.459  0.00  0.00    +0.000 HD
BRANCH  19  21
ATOM     21  C   UNL     1       8.949  -3.018   7.191  0.00  0.00    +0.000 A 
ATOM     22  C   UNL     1       9.403  -4.307   7.466  0.00  0.00    +0.000 A 
ATOM     23  C   UNL     1      10.753  -4.533   7.787  0.00  0.00    +0.000 A 
ATOM     24  C   UNL     1      11.662  -3.468   7.858  0.00  0.00    +0.000 A 
ATOM     25  C   UNL     1      11.216  -2.174   7.592  0.00  0.00    +0.000 A 
ATOM     26  C   UNL     1       9.877  -1.961   7.269  0.00  0.00    +0.000 A 
BRANCH  24  27
ATOM     27  C   UNL     1      13.060  -3.735   8.290  0.00  0.00    +0.000 C 
ATOM     28  N   UNL     1      14.025  -2.845   7.903  0.00  0.00    +0.000 N 
ATOM     29  O   UNL     1      13.348  -4.719   8.959  0.00  0.00    +0.000 OA
ATOM     30  H   UNL     1      13.875  -2.118   7.220  0.00  0.00    +0.000 HD
ATOM     31  H   UNL     1      14.978  -3.068   8.158  0.00  0.00    +0.000 HD
ENDBRANCH  24  27
ENDBRANCH  19  21
ENDBRANCH   1  19
TORSDOF 6
