REMARK  Name = 
REMARK  5 active torsions:
REMARK  status: ('A' for Active; 'I' for Inactive)
REMARK    1  A    between atoms: C_1  and  C_2
REMARK    2  A    between atoms: C_2  and  C_3
REMARK    3  A    between atoms: C_11  and  N_12
REMARK    4  A    between atoms: N_12  and  C_13
REMARK    5  A    between atoms: C_16  and  C_17
REMARK                            x       y       z     vdW  Elec       q    Type
REMARK                         _______ _______ _______ _____ _____    ______ ____
ROOT
ATOM      1  N   UNL     1      -2.571   1.186   0.138  0.00  0.00    +0.000 N 
ATOM      2  H   UNL     1      -2.460   1.999   0.743  0.00  0.00    +0.000 HD
ENDROOT
BRANCH   1   7
ATOM      3  C   UNL     1       1.709   0.057  -0.818  0.00  0.00    +0.000 C 
ATOM      4  C   UNL     1       0.904  -0.018   0.494  0.00  0.00    +0.000 C 
ATOM      5  C   UNL     1      -0.025  -1.247   0.509  0.00  0.00    +0.000 C 
ATOM      6  C   UNL     1      -1.244  -0.861  -0.323  0.00  0.00    +0.000 C 
ATOM      7  C   UNL     1      -1.287   0.673  -0.347  0.00  0.00    +0.000 C 
ATOM      8  C   UNL     1      -0.139   1.117   0.571  0.00  0.00    +0.000 C 
BRANCH   4   9
ATOM      9  C   UNL     1       1.877   0.015   1.666  0.00  0.00    +0.000 A 
ATOM     10  C   UNL     1       2.423  -1.158   2.192  0.00  0.00    +0.000 A 
ATOM     11  C   UNL     1       3.294  -1.080   3.276  0.00  0.00    +0.000 A 
ATOM     12  C   UNL     1       3.618   0.162   3.799  0.00  0.00    +0.000 A 
ATOM     13  C   UNL     1       3.064   1.281   3.205  0.00  0.00    +0.000 A 
ATOM     14  N   UNL     1       2.212   1.235   2.154  0.00  0.00    +0.000 NA
ENDBRANCH   4   9
ENDBRANCH   1   7
BRANCH   1  15
ATOM     15  C   UNL     1      -3.601   1.387  -0.792  0.00  0.00    +0.000 A 
ATOM     16  C   UNL     1      -4.590   2.339  -0.520  0.00  0.00    +0.000 A 
ATOM     17  C   UNL     1      -5.640   2.550  -1.415  0.00  0.00    +0.000 A 
ATOM     18  C   UNL     1      -5.696   1.766  -2.557  0.00  0.00    +0.000 A 
ATOM     19  N   UNL     1      -4.799   0.785  -2.843  0.00  0.00    +0.000 NA
ATOM     20  C   UNL     1      -3.798   0.617  -1.943  0.00  0.00    +0.000 A 
BRANCH  18  21
ATOM     21  C   UNL     1      -6.781   1.989  -3.563  0.00  0.00    +0.000 C 
ATOM     22  N   UNL     1      -6.743   1.167  -4.658  0.00  0.00    +0.000 N 
ATOM     23  O   UNL     1      -7.644   2.848  -3.432  0.00  0.00    +0.000 OA
ATOM     24  H   UNL     1      -6.005   0.476  -4.735  0.00  0.00    +0.000 HD
ATOM     25  H   UNL     1      -7.431   1.273  -5.388  0.00  0.00    +0.000 HD
ENDBRANCH  18  21
ENDBRANCH   1  15
TORSDOF 4
