REMARK  Name = 
REMARK  5 active torsions:
REMARK  status: ('A' for Active; 'I' for Inactive)
REMARK    1  A    between atoms: C_2  and  C_18
REMARK    2  A    between atoms: N_3  and  C_4
REMARK    3  A    between atoms: C_4  and  C_5
REMARK    4  A    between atoms: C_8  and  O_9
REMARK    5  A    between atoms: O_9  and  C_10
REMARK                            x       y       z     vdW  Elec       q    Type
REMARK                         _______ _______ _______ _____ _____    ______ ____
ROOT
ATOM      1  O   UNL     1       3.606   0.586   0.964  0.00  0.00    +0.000 OA
ATOM      2  C   UNL     1       3.533  -0.308   0.125  0.00  0.00    +0.000 C 
ATOM      3  N   UNL     1       2.869  -1.484   0.360  0.00  0.00    +0.000 N 
ATOM      4  H   UNL     1       2.968  -2.252  -0.296  0.00  0.00    +0.000 HD
ENDROOT
BRANCH   2   5
ATOM      5  C   UNL     1       4.123  -0.150  -1.209  0.00  0.00    +0.000 A 
ATOM      6  C   UNL     1       4.358   1.122  -1.713  0.00  0.00    +0.000 A 
ATOM      7  S   UNL     1       5.077   1.122  -3.259  0.00  0.00    +0.000 S 
ATOM      8  C   UNL     1       5.133  -0.578  -3.292  0.00  0.00    +0.000 A 
ATOM      9  N   UNL     1       5.692  -1.239  -4.342  0.00  0.00    +0.000 NA
ATOM     10  C   UNL     1       5.705  -2.524  -4.217  0.00  0.00    +0.000 A 
ATOM     11  N   UNL     1       5.188  -3.210  -3.149  0.00  0.00    +0.000 N 
ATOM     12  C   UNL     1       4.532  -2.591  -2.112  0.00  0.00    +0.000 A 
ATOM     13  O   UNL     1       3.940  -3.241  -1.261  0.00  0.00    +0.000 OA
ATOM     14  C   UNL     1       4.562  -1.139  -2.165  0.00  0.00    +0.000 A 
ATOM     15  H   UNL     1       5.189  -4.217  -3.141  0.00  0.00    +0.000 HD
ENDBRANCH   2   5
BRANCH   3  16
ATOM     16  C   UNL     1       2.291  -1.806   1.636  0.00  0.00    +0.000 C 
BRANCH  16  17
ATOM     17  C   UNL     1       3.233  -2.618   2.487  0.00  0.00    +0.000 A 
ATOM     18  C   UNL     1       4.216  -1.974   3.250  0.00  0.00    +0.000 A 
ATOM     19  C   UNL     1       5.063  -2.709   4.080  0.00  0.00    +0.000 A 
ATOM     20  C   UNL     1       4.900  -4.090   4.202  0.00  0.00    +0.000 A 
ATOM     21  C   UNL     1       3.979  -4.749   3.385  0.00  0.00    +0.000 A 
ATOM     22  C   UNL     1       3.155  -4.017   2.525  0.00  0.00    +0.000 A 
BRANCH  20  23
ATOM     23  O   UNL     1       5.631  -4.881   5.063  0.00  0.00    +0.000 OA
BRANCH  23  24
ATOM     24  C   UNL     1       6.003  -4.381   6.293  0.00  0.00    +0.000 A 
ATOM     25  C   UNL     1       5.266  -3.452   7.023  0.00  0.00    +0.000 A 
ATOM     26  C   UNL     1       5.796  -2.990   8.216  0.00  0.00    +0.000 A 
ATOM     27  N   UNL     1       6.955  -3.435   8.743  0.00  0.00    +0.000 NA
ATOM     28  C   UNL     1       7.610  -4.391   8.050  0.00  0.00    +0.000 A 
ATOM     29  C   UNL     1       7.178  -4.892   6.833  0.00  0.00    +0.000 A 
ENDBRANCH  23  24
ENDBRANCH  20  23
ENDBRANCH  16  17
ENDBRANCH   3  16
TORSDOF 5
