REMARK  Name = 
REMARK  4 active torsions:
REMARK  status: ('A' for Active; 'I' for Inactive)
REMARK    1  A    between atoms: C_2  and  C_4
REMARK    2  A    between atoms: C_7  and  S_8
REMARK    3  A    between atoms: S_8  and  C_9
REMARK    4  A    between atoms: C_9  and  C_10
REMARK                            x       y       z     vdW  Elec       q    Type
REMARK                         _______ _______ _______ _____ _____    ______ ____
ROOT
ATOM      1  C   UNL     1       3.266   0.557   1.250  0.00  0.00    +0.000 A 
ATOM      2  C   UNL     1       2.862   0.266   2.552  0.00  0.00    +0.000 A 
ATOM      3  C   UNL     1       3.634   0.726   3.622  0.00  0.00    +0.000 A 
ATOM      4  C   UNL     1       4.776   1.479   3.361  0.00  0.00    +0.000 A 
ATOM      5  N   UNL     1       5.182   1.768   2.106  0.00  0.00    +0.000 NA
ATOM      6  C   UNL     1       4.431   1.290   1.080  0.00  0.00    +0.000 A 
ENDROOT
BRANCH   1   8
ATOM      7  N   UNL     1       1.187  -0.108   0.178  0.00  0.00    +0.000 N 
ATOM      8  C   UNL     1       2.531   0.103   0.052  0.00  0.00    +0.000 C 
ATOM      9  O   UNL     1       3.096  -0.042  -1.025  0.00  0.00    +0.000 OA
ATOM     10  H   UNL     1       0.685  -0.315  -0.678  0.00  0.00    +0.000 HD
ATOM     11  H   UNL     1       0.650   0.235   0.960  0.00  0.00    +0.000 HD
ENDBRANCH   1   8
BRANCH   4  12
ATOM     12  S   UNL     1       5.775   2.040   4.722  0.00  0.00    +0.000 S 
BRANCH  12  13
ATOM     13  C   UNL     1       6.560   3.496   3.945  0.00  0.00    +0.000 C 
BRANCH  13  14
ATOM     14  C   UNL     1       7.536   4.177   4.874  0.00  0.00    +0.000 A 
ATOM     15  N   UNL     1       8.833   3.809   4.805  0.00  0.00    +0.000 NA
ATOM     16  C   UNL     1       9.684   4.433   5.640  0.00  0.00    +0.000 A 
ATOM     17  C   UNL     1       9.297   5.402   6.533  0.00  0.00    +0.000 A 
ATOM     18  C   UNL     1       7.958   5.709   6.528  0.00  0.00    +0.000 A 
ATOM     19  N   UNL     1       7.060   5.122   5.715  0.00  0.00    +0.000 NA
ENDBRANCH  13  14
ENDBRANCH  12  13
ENDBRANCH   4  12
TORSDOF 4
