REMARK  Name = 
REMARK  9 active torsions:
REMARK  status: ('A' for Active; 'I' for Inactive)
REMARK    1  A    between atoms: C_1  and  C_2
REMARK    2  A    between atoms: C_2  and  C_3
REMARK    3  A    between atoms: C_3  and  N_4
REMARK    4  A    between atoms: C_3  and  C_17
REMARK    5  A    between atoms: C_5  and  C_7
REMARK    6  A    between atoms: C_20  and  C_21
REMARK    7  A    between atoms: C_21  and  N_22
REMARK    8  A    between atoms: N_22  and  C_23
REMARK    9  A    between atoms: C_23  and  C_24
REMARK                            x       y       z     vdW  Elec       q    Type
REMARK                         _______ _______ _______ _____ _____    ______ ____
ROOT
ATOM      1  C   UNL     1       2.988  -1.090   0.828  0.00  0.00    +0.000 C 
ENDROOT
BRANCH   1   2
ATOM      2  C   UNL     1       4.515  -1.125   0.811  0.00  0.00    +0.000 A 
ATOM      3  C   UNL     1       5.199  -2.286   1.197  0.00  0.00    +0.000 A 
ATOM      4  C   UNL     1       6.599  -2.337   1.165  0.00  0.00    +0.000 A 
ATOM      5  C   UNL     1       7.352  -1.236   0.734  0.00  0.00    +0.000 A 
ATOM      6  C   UNL     1       6.672  -0.076   0.345  0.00  0.00    +0.000 A 
ATOM      7  C   UNL     1       5.274  -0.022   0.383  0.00  0.00    +0.000 A 
BRANCH   5   8
ATOM      8  C   UNL     1       8.865  -1.294   0.694  0.00  0.00    +0.000 C 
BRANCH   8   9
ATOM      9  N   UNL     1       9.328  -2.350  -0.202  0.00  0.00    +0.000 NA
ATOM     10  H   UNL     1       8.946  -2.186  -1.132  0.00  0.00    +0.000 HD
BRANCH   9  11
ATOM     11  C   UNL     1      10.785  -2.406  -0.282  0.00  0.00    +0.000 C 
BRANCH  11  12
ATOM     12  C   UNL     1      11.213  -3.514  -1.215  0.00  0.00    +0.000 A 
ATOM     13  C   UNL     1      11.959  -3.252  -2.368  0.00  0.00    +0.000 A 
ATOM     14  C   UNL     1      12.288  -4.311  -3.202  0.00  0.00    +0.000 A 
ATOM     15  N   UNL     1      11.936  -5.593  -2.969  0.00  0.00    +0.000 NA
ATOM     16  C   UNL     1      11.225  -5.828  -1.846  0.00  0.00    +0.000 A 
ATOM     17  C   UNL     1      10.852  -4.840  -0.950  0.00  0.00    +0.000 A 
ENDBRANCH  11  12
ENDBRANCH   9  11
ENDBRANCH   8   9
ENDBRANCH   5   8
ENDBRANCH   1   2
BRANCH   1  18
ATOM     18  N   UNL     1       2.509  -0.975  -0.538  0.00  0.00    +0.000 N 
ATOM     19  C   UNL     1       1.307  -1.446  -0.993  0.00  0.00    +0.000 C 
ATOM     20  O   UNL     1       0.478  -1.979  -0.259  0.00  0.00    +0.000 OA
ATOM     21  H   UNL     1       3.185  -0.636  -1.212  0.00  0.00    +0.000 HD
BRANCH  19  22
ATOM     22  C   UNL     1       1.044  -1.218  -2.423  0.00  0.00    +0.000 A 
ATOM     23  C   UNL     1      -0.257  -1.146  -2.903  0.00  0.00    +0.000 A 
ATOM     24  S   UNL     1      -0.348  -0.833  -4.579  0.00  0.00    +0.000 S 
ATOM     25  C   UNL     1       1.351  -0.843  -4.735  0.00  0.00    +0.000 A 
ATOM     26  N   UNL     1       1.951  -0.655  -5.937  0.00  0.00    +0.000 NA
ATOM     27  C   UNL     1       3.238  -0.726  -5.912  0.00  0.00    +0.000 A 
ATOM     28  N   UNL     1       3.981  -0.960  -4.788  0.00  0.00    +0.000 N 
ATOM     29  C   UNL     1       3.422  -1.093  -3.541  0.00  0.00    +0.000 A 
ATOM     30  O   UNL     1       4.132  -1.180  -2.547  0.00  0.00    +0.000 OA
ATOM     31  C   UNL     1       1.972  -1.056  -3.521  0.00  0.00    +0.000 A 
ATOM     32  H   UNL     1       4.989  -0.979  -4.818  0.00  0.00    +0.000 HD
ENDBRANCH  19  22
ENDBRANCH   1  18
BRANCH   1  34
ATOM     33  C   UNL     1       2.846   0.013   3.136  0.00  0.00    +0.000 C 
ATOM     34  C   UNL     1       2.427   0.070   1.674  0.00  0.00    +0.000 C 
ENDBRANCH   1  34
TORSDOF 8
