REMARK  Name = 
REMARK  5 active torsions:
REMARK  status: ('A' for Active; 'I' for Inactive)
REMARK    1  A    between atoms: C_2  and  C_4
REMARK    2  A    between atoms: C_7  and  O_8
REMARK    3  A    between atoms: O_8  and  C_9
REMARK    4  A    between atoms: C_9  and  C_10
REMARK    5  A    between atoms: C_14  and  C_15
REMARK                            x       y       z     vdW  Elec       q    Type
REMARK                         _______ _______ _______ _____ _____    ______ ____
ROOT
ATOM      1  C   UNL     1       4.959  -3.003  -5.164  0.00  0.00    +0.000 C 
ENDROOT
BRANCH   1   2
ATOM      2  C   UNL     1       5.807  -3.990  -5.919  0.00  0.00    +0.000 A 
ATOM      3  C   UNL     1       5.519  -5.347  -5.860  0.00  0.00    +0.000 A 
ATOM      4  N   UNL     1       6.198  -6.292  -6.542  0.00  0.00    +0.000 NA
ATOM      5  C   UNL     1       7.212  -5.859  -7.330  0.00  0.00    +0.000 A 
ATOM      6  C   UNL     1       7.590  -4.525  -7.501  0.00  0.00    +0.000 A 
ATOM      7  C   UNL     1       6.844  -3.589  -6.770  0.00  0.00    +0.000 A 
BRANCH   6   8
ATOM      8  C   UNL     1       8.694  -4.119  -8.396  0.00  0.00    +0.000 A 
ATOM      9  C   UNL     1       9.000  -4.838  -9.560  0.00  0.00    +0.000 A 
ATOM     10  C   UNL     1      10.040  -4.412 -10.373  0.00  0.00    +0.000 A 
ATOM     11  N   UNL     1      10.794  -3.324 -10.121  0.00  0.00    +0.000 NA
ATOM     12  C   UNL     1      10.496  -2.636  -9.002  0.00  0.00    +0.000 A 
ATOM     13  C   UNL     1       9.481  -2.989  -8.125  0.00  0.00    +0.000 A 
ENDBRANCH   6   8
ENDBRANCH   1   2
BRANCH   1  14
ATOM     14  O   UNL     1       5.731  -1.857  -4.780  0.00  0.00    +0.000 OA
BRANCH  14  18
ATOM     15  C   UNL     1       3.481   0.939  -2.764  0.00  0.00    +0.000 A 
ATOM     16  C   UNL     1       4.833   1.192  -3.007  0.00  0.00    +0.000 A 
ATOM     17  C   UNL     1       5.594   0.238  -3.689  0.00  0.00    +0.000 A 
ATOM     18  C   UNL     1       4.965  -0.931  -4.101  0.00  0.00    +0.000 A 
ATOM     19  N   UNL     1       3.663  -1.202  -3.870  0.00  0.00    +0.000 NA
ATOM     20  C   UNL     1       2.953  -0.268  -3.198  0.00  0.00    +0.000 A 
BRANCH  15  22
ATOM     21  N   UNL     1       2.875   3.208  -2.156  0.00  0.00    +0.000 N 
ATOM     22  C   UNL     1       2.586   1.877  -2.059  0.00  0.00    +0.000 C 
ATOM     23  O   UNL     1       1.598   1.482  -1.455  0.00  0.00    +0.000 OA
ATOM     24  H   UNL     1       2.183   3.842  -1.773  0.00  0.00    +0.000 HD
ATOM     25  H   UNL     1       3.507   3.576  -2.851  0.00  0.00    +0.000 HD
ENDBRANCH  15  22
ENDBRANCH  14  18
ENDBRANCH   1  14
TORSDOF 5
