REMARK  Name = 
REMARK  6 active torsions:
REMARK  status: ('A' for Active; 'I' for Inactive)
REMARK    1  A    between atoms: N_1  and  C_2
REMARK    2  A    between atoms: C_2  and  C_3
REMARK    3  A    between atoms: C_6  and  C_7
REMARK    4  A    between atoms: C_7  and  N_8
REMARK    5  A    between atoms: C_14  and  C_15
REMARK    6  A    between atoms: C_15  and  O_17
REMARK                            x       y       z     vdW  Elec       q    Type
REMARK                         _______ _______ _______ _____ _____    ______ ____
ROOT
ATOM      1  N   UNL     1       4.182  -5.785  -2.672  0.00  0.00    +0.000 N 
ATOM      2  C   UNL     1       4.949  -6.743  -2.064  0.00  0.00    +0.000 A 
ATOM      3  C   UNL     1       4.150  -7.837  -1.816  0.00  0.00    +0.000 A 
ATOM      4  C   UNL     1       2.845  -7.535  -2.289  0.00  0.00    +0.000 A 
ATOM      5  C   UNL     1       1.613  -8.224  -2.259  0.00  0.00    +0.000 A 
ATOM      6  C   UNL     1       0.465  -7.621  -2.793  0.00  0.00    +0.000 A 
ATOM      7  C   UNL     1       0.554  -6.371  -3.417  0.00  0.00    +0.000 A 
ATOM      8  C   UNL     1       1.788  -5.716  -3.533  0.00  0.00    +0.000 A 
ATOM      9  C   UNL     1       2.909  -6.277  -2.899  0.00  0.00    +0.000 A 
ENDROOT
BRANCH   7  10
ATOM     10  C   UNL     1      -0.640  -5.675  -3.961  0.00  0.00    +0.000 C 
ATOM     11  O   UNL     1      -0.585  -4.930  -4.921  0.00  0.00    +0.000 OA
BRANCH  10  12
ATOM     12  O   UNL     1      -1.768  -5.870  -3.252  0.00  0.00    +0.000 OA
ATOM     13  H   UNL     1      -1.660  -6.357  -2.413  0.00  0.00    +0.000 HD
ENDBRANCH  10  12
ENDBRANCH   7  10
BRANCH   1  14
ATOM     14  C   UNL     1       4.652  -4.433  -2.961  0.00  0.00    +0.000 C 
BRANCH  14  18
ATOM     15  C   UNL     1       3.113  -0.748  -1.161  0.00  0.00    +0.000 C 
ATOM     16  C   UNL     1       2.559  -2.075  -0.623  0.00  0.00    +0.000 C 
ATOM     17  C   UNL     1       2.899  -3.251  -1.533  0.00  0.00    +0.000 C 
ATOM     18  C   UNL     1       4.402  -3.397  -1.837  0.00  0.00    +0.000 C 
ATOM     19  C   UNL     1       5.039  -2.052  -2.223  0.00  0.00    +0.000 C 
ATOM     20  C   UNL     1       4.636  -0.893  -1.300  0.00  0.00    +0.000 C 
BRANCH  15  21
ATOM     21  C   UNL     1       2.393  -0.333  -2.464  0.00  0.00    +0.000 C 
BRANCH  21  22
ATOM     22  N   UNL     1       2.863   0.949  -2.979  0.00  0.00    +0.000 NA
ATOM     23  H   UNL     1       2.382   1.149  -3.856  0.00  0.00    +0.000 HD
ATOM     24  H   UNL     1       3.851   0.885  -3.218  0.00  0.00    +0.000 HD
ENDBRANCH  21  22
ENDBRANCH  15  21
ENDBRANCH  14  18
ENDBRANCH   1  14
TORSDOF 6
