REMARK  Name = 
REMARK  7 active torsions:
REMARK  status: ('A' for Active; 'I' for Inactive)
REMARK    1  A    between atoms: C_1  and  O_2
REMARK    2  A    between atoms: O_2  and  C_3
REMARK    3  A    between atoms: C_5  and  C_6
REMARK    4  A    between atoms: C_6  and  C_7
REMARK    5  A    between atoms: C_6  and  N_8
REMARK    6  A    between atoms: N_8  and  C_9
REMARK    7  A    between atoms: C_12  and  C_13
REMARK                            x       y       z     vdW  Elec       q    Type
REMARK                         _______ _______ _______ _____ _____    ______ ____
ROOT
ATOM      1  N   UNL     1       2.243  -0.955  -5.074  0.00  0.00    +0.000 N 
ATOM      2  H   UNL     1       1.396  -0.785  -4.531  0.00  0.00    +0.000 HD
ENDROOT
BRANCH   1   3
ATOM      3  C   UNL     1       2.078  -0.724  -6.435  0.00  0.00    +0.000 A 
ATOM      4  C   UNL     1       2.628  -1.511  -7.447  0.00  0.00    +0.000 A 
ATOM      5  C   UNL     1       2.490  -1.147  -8.790  0.00  0.00    +0.000 A 
ATOM      6  C   UNL     1       1.815   0.025  -9.096  0.00  0.00    +0.000 A 
ATOM      7  N   UNL     1       1.272   0.842  -8.155  0.00  0.00    +0.000 NA
ATOM      8  C   UNL     1       1.428   0.442  -6.867  0.00  0.00    +0.000 A 
BRANCH   6   9
ATOM      9  C   UNL     1       1.682   0.448 -10.525  0.00  0.00    +0.000 C 
ATOM     10  N   UNL     1       1.048   1.642 -10.730  0.00  0.00    +0.000 N 
ATOM     11  O   UNL     1       2.121  -0.217 -11.458  0.00  0.00    +0.000 OA
ATOM     12  H   UNL     1       0.719   2.172  -9.931  0.00  0.00    +0.000 HD
ATOM     13  H   UNL     1       0.945   2.001 -11.667  0.00  0.00    +0.000 HD
ENDBRANCH   6   9
ENDBRANCH   1   3
BRANCH   1  14
ATOM     14  C   UNL     1       3.023  -2.064  -4.522  0.00  0.00    +0.000 C 
ATOM     15  C   UNL     1       3.631  -1.608  -3.186  0.00  0.00    +0.000 C 
BRANCH  14  18
ATOM     16  C   UNL     1       2.112  -5.541  -3.570  0.00  0.00    +0.000 A 
ATOM     17  C   UNL     1       2.787  -4.534  -4.218  0.00  0.00    +0.000 A 
ATOM     18  C   UNL     1       2.176  -3.294  -4.213  0.00  0.00    +0.000 A 
ATOM     19  N   UNL     1       0.936  -3.104  -3.694  0.00  0.00    +0.000 NA
ATOM     20  C   UNL     1       0.350  -4.182  -3.148  0.00  0.00    +0.000 A 
ATOM     21  N   UNL     1       0.889  -5.403  -3.035  0.00  0.00    +0.000 NA
BRANCH  16  23
ATOM     22  C   UNL     1       2.233  -7.586  -2.439  0.00  0.00    +0.000 C 
ATOM     23  O   UNL     1       2.809  -6.724  -3.415  0.00  0.00    +0.000 OA
ENDBRANCH  16  23
ENDBRANCH  14  18
ENDBRANCH   1  14
TORSDOF 5
