REMARK  Name = 
REMARK  7 active torsions:
REMARK  status: ('A' for Active; 'I' for Inactive)
REMARK    1  A    between atoms: C_1  and  O_2
REMARK    2  A    between atoms: O_2  and  C_3
REMARK    3  A    between atoms: C_7  and  N_8
REMARK    4  A    between atoms: N_8  and  C_9
REMARK    5  A    between atoms: C_9  and  C_10
REMARK    6  A    between atoms: C_14  and  C_15
REMARK    7  A    between atoms: C_19  and  C_20
REMARK                            x       y       z     vdW  Elec       q    Type
REMARK                         _______ _______ _______ _____ _____    ______ ____
ROOT
ATOM      1  C   UNL     1       1.963  -4.801   4.476  0.00  0.00    +0.000 A 
ATOM      2  C   UNL     1       1.151  -5.902   4.186  0.00  0.00    +0.000 A 
ATOM      3  C   UNL     1       1.152  -7.011   5.027  0.00  0.00    +0.000 A 
ATOM      4  C   UNL     1       1.960  -7.024   6.167  0.00  0.00    +0.000 A 
ATOM      5  C   UNL     1       2.787  -5.936   6.499  0.00  0.00    +0.000 A 
ATOM      6  C   UNL     1       2.757  -4.822   5.638  0.00  0.00    +0.000 A 
ENDROOT
BRANCH   5   7
ATOM      7  C   UNL     1       3.677  -5.972   7.685  0.00  0.00    +0.000 A 
ATOM      8  C   UNL     1       3.963  -4.817   8.433  0.00  0.00    +0.000 A 
ATOM      9  C   UNL     1       4.819  -4.856   9.538  0.00  0.00    +0.000 A 
ATOM     10  C   UNL     1       5.393  -6.060   9.938  0.00  0.00    +0.000 A 
ATOM     11  C   UNL     1       5.120  -7.232   9.232  0.00  0.00    +0.000 A 
ATOM     12  C   UNL     1       5.696  -8.549   9.661  0.00  0.00    +0.000 C 
ATOM     13  C   UNL     1       4.283  -7.173   8.105  0.00  0.00    +0.000 A 
ENDBRANCH   5   7
BRANCH   1  14
ATOM     14  C   UNL     1       2.022  -3.624   3.535  0.00  0.00    +0.000 C 
BRANCH  14  15
ATOM     15  N   UNL     1       0.903  -2.724   3.760  0.00  0.00    +0.000 N 
ATOM     16  H   UNL     1       0.675  -2.594   4.743  0.00  0.00    +0.000 HD
BRANCH  15  21
ATOM     17  C   UNL     1       1.386  -0.115   1.136  0.00  0.00    +0.000 A 
ATOM     18  C   UNL     1       0.356   0.734   1.522  0.00  0.00    +0.000 A 
ATOM     19  N   UNL     1      -0.455   0.510   2.579  0.00  0.00    +0.000 NA
ATOM     20  C   UNL     1      -0.217  -0.624   3.284  0.00  0.00    +0.000 A 
ATOM     21  C   UNL     1       0.802  -1.544   3.014  0.00  0.00    +0.000 A 
ATOM     22  C   UNL     1       1.588  -1.270   1.887  0.00  0.00    +0.000 A 
BRANCH  17  24
ATOM     23  C   UNL     1       3.180  -0.575  -0.355  0.00  0.00    +0.000 C 
ATOM     24  O   UNL     1       2.101   0.270   0.034  0.00  0.00    +0.000 OA
ENDBRANCH  17  24
ENDBRANCH  15  21
ENDBRANCH  14  15
ENDBRANCH   1  14
TORSDOF 5
