REMARK  Name = 
REMARK  7 active torsions:
REMARK  status: ('A' for Active; 'I' for Inactive)
REMARK    1  A    between atoms: C_1  and  O_2
REMARK    2  A    between atoms: O_2  and  C_3
REMARK    3  A    between atoms: C_6  and  C_7
REMARK    4  A    between atoms: N_13  and  C_14
REMARK    5  A    between atoms: C_14  and  C_15
REMARK    6  A    between atoms: C_18  and  C_19
REMARK    7  A    between atoms: C_19  and  N_20
REMARK                            x       y       z     vdW  Elec       q    Type
REMARK                         _______ _______ _______ _____ _____    ______ ____
ROOT
ATOM      1  C   UNL     1       3.567  -2.130   3.215  0.00  0.00    +0.000 A 
ATOM      2  N   UNL     1       3.415  -3.458   3.436  0.00  0.00    +0.000 NA
ATOM      3  C   UNL     1       4.077  -4.347   2.674  0.00  0.00    +0.000 A 
ATOM      4  C   UNL     1       4.912  -4.007   1.623  0.00  0.00    +0.000 A 
ATOM      5  C   UNL     1       5.034  -2.632   1.325  0.00  0.00    +0.000 A 
ATOM      6  C   UNL     1       5.784  -1.879   0.376  0.00  0.00    +0.000 A 
ATOM      7  C   UNL     1       5.517  -0.548   0.577  0.00  0.00    +0.000 A 
ATOM      8  N   UNL     1       4.656  -0.427   1.647  0.00  0.00    +0.000 N 
ATOM      9  C   UNL     1       4.344  -1.694   2.131  0.00  0.00    +0.000 A 
ENDROOT
BRANCH   4  10
ATOM     10  C   UNL     1       5.630  -5.111   0.961  0.00  0.00    +0.000 C 
ATOM     11  N   UNL     1       5.967  -4.977  -0.354  0.00  0.00    +0.000 N 
ATOM     12  O   UNL     1       5.878  -6.153   1.557  0.00  0.00    +0.000 OA
ATOM     13  H   UNL     1       5.570  -4.253  -0.939  0.00  0.00    +0.000 HD
ATOM     14  H   UNL     1       6.365  -5.790  -0.801  0.00  0.00    +0.000 HD
ENDBRANCH   4  10
BRANCH   1  16
ATOM     15  C   UNL     1       2.751  -1.894   5.364  0.00  0.00    +0.000 C 
ATOM     16  O   UNL     1       2.965  -1.256   4.098  0.00  0.00    +0.000 OA
ENDBRANCH   1  16
BRANCH   8  17
ATOM     17  C   UNL     1       4.284   0.882   2.200  0.00  0.00    +0.000 C 
BRANCH  17  18
ATOM     18  C   UNL     1       3.118   1.505   1.465  0.00  0.00    +0.000 A 
ATOM     19  C   UNL     1       1.824   1.412   1.975  0.00  0.00    +0.000 A 
ATOM     20  C   UNL     1       0.749   1.790   1.170  0.00  0.00    +0.000 A 
ATOM     21  C   UNL     1       0.983   2.226  -0.136  0.00  0.00    +0.000 A 
ATOM     22  C   UNL     1       2.306   2.441  -0.500  0.00  0.00    +0.000 A 
ATOM     23  N   UNL     1       3.368   2.095   0.267  0.00  0.00    +0.000 NA
BRANCH  21  24
ATOM     24  C   UNL     1      -0.098   2.204  -1.182  0.00  0.00    +0.000 C 
BRANCH  24  25
ATOM     25  N   UNL     1      -1.007   3.328  -1.163  0.00  0.00    +0.000 N 
ATOM     26  C   UNL     1      -2.056   3.381  -2.019  0.00  0.00    +0.000 C 
ATOM     27  N   UNL     1      -2.506   2.473  -2.803  0.00  0.00    +0.000 NA
ATOM     28  N   UNL     1      -2.688   4.567  -1.989  0.00  0.00    +0.000 N 
ATOM     29  H   UNL     1      -0.541   4.227  -1.079  0.00  0.00    +0.000 HD
ATOM     30  H   UNL     1      -1.949   1.621  -2.740  0.00  0.00    +0.000 HD
ATOM     31  H   UNL     1      -2.863   4.893  -1.044  0.00  0.00    +0.000 HD
ATOM     32  H   UNL     1      -3.563   4.487  -2.502  0.00  0.00    +0.000 HD
ENDBRANCH  24  25
ENDBRANCH  21  24
ENDBRANCH  17  18
ENDBRANCH   8  17
TORSDOF 6
