REMARK  Name = 
REMARK  5 active torsions:
REMARK  status: ('A' for Active; 'I' for Inactive)
REMARK    1  A    between atoms: C_2  and  C_3
REMARK    2  A    between atoms: C_6  and  N_7
REMARK    3  A    between atoms: N_7  and  C_8
REMARK    4  A    between atoms: C_8  and  C_9
REMARK    5  A    between atoms: C_13  and  C_14
REMARK                            x       y       z     vdW  Elec       q    Type
REMARK                         _______ _______ _______ _____ _____    ______ ____
ROOT
ATOM      1  C   UNL     1       8.607  -0.898   0.086  0.00  0.00    +0.000 C 
ATOM      2  C   UNL     1       8.815  -1.504  -1.296  0.00  0.00    +0.000 C 
ATOM      3  C   UNL     1       8.869  -2.376  -0.086  0.00  0.00    +0.000 C 
ENDROOT
BRANCH   1   4
ATOM      4  C   UNL     1       9.689  -0.015   0.687  0.00  0.00    +0.000 A 
ATOM      5  C   UNL     1      10.264  -0.285   1.938  0.00  0.00    +0.000 A 
ATOM      6  C   UNL     1      11.083   0.650   2.568  0.00  0.00    +0.000 A 
ATOM      7  C   UNL     1      11.331   1.882   1.962  0.00  0.00    +0.000 A 
ATOM      8  C   UNL     1      10.795   2.193   0.703  0.00  0.00    +0.000 A 
ATOM      9  C   UNL     1      10.015   1.209   0.071  0.00  0.00    +0.000 A 
BRANCH   8  10
ATOM     10  C   UNL     1      10.947   3.531   0.102  0.00  0.00    +0.000 A 
ATOM     11  C   UNL     1      10.873   4.698   0.877  0.00  0.00    +0.000 A 
ATOM     12  C   UNL     1      10.967   5.955   0.284  0.00  0.00    +0.000 A 
ATOM     13  C   UNL     1      11.128   6.020  -1.088  0.00  0.00    +0.000 A 
ATOM     14  N   UNL     1      11.198   4.933  -1.883  0.00  0.00    +0.000 NA
ATOM     15  C   UNL     1      11.110   3.726  -1.272  0.00  0.00    +0.000 A 
ENDBRANCH   8  10
ENDBRANCH   1   4
BRANCH   1  16
ATOM     16  N   UNL     1       7.265  -0.302   0.233  0.00  0.00    +0.000 N 
ATOM     17  H   UNL     1       7.191   0.619  -0.198  0.00  0.00    +0.000 HD
BRANCH  16  21
ATOM     18  C   UNL     1       4.633  -0.633   3.388  0.00  0.00    +0.000 A 
ATOM     19  N   UNL     1       5.754  -1.382   3.464  0.00  0.00    +0.000 NA
ATOM     20  C   UNL     1       6.635  -1.241   2.444  0.00  0.00    +0.000 A 
ATOM     21  C   UNL     1       6.458  -0.388   1.374  0.00  0.00    +0.000 A 
ATOM     22  C   UNL     1       5.262   0.319   1.419  0.00  0.00    +0.000 A 
ATOM     23  N   UNL     1       4.340   0.234   2.399  0.00  0.00    +0.000 NA
BRANCH  18  25
ATOM     24  N   UNL     1       2.826  -0.944   5.226  0.00  0.00    +0.000 NA
ATOM     25  C   UNL     1       3.645  -0.809   4.414  0.00  0.00    +0.000 C 
ENDBRANCH  18  25
ENDBRANCH  16  21
ENDBRANCH   1  16
TORSDOF 5
