REMARK  Name = 
REMARK  7 active torsions:
REMARK  status: ('A' for Active; 'I' for Inactive)
REMARK    1  A    between atoms: C_1  and  C_2
REMARK    2  A    between atoms: C_2  and  N_3
REMARK    3  A    between atoms: C_2  and  C_16
REMARK    4  A    between atoms: C_4  and  C_6
REMARK    5  A    between atoms: C_19  and  C_20
REMARK    6  A    between atoms: C_20  and  N_21
REMARK    7  A    between atoms: C_22  and  C_24
REMARK                            x       y       z     vdW  Elec       q    Type
REMARK                         _______ _______ _______ _____ _____    ______ ____
ROOT
ATOM      1  C   UNL     1       2.002  -1.068  -1.090  0.00  0.00    +0.000 C 
ATOM      2  C   UNL     1       2.448  -0.106   0.016  0.00  0.00    +0.000 C 
ENDROOT
BRANCH   2   3
ATOM      3  C   UNL     1       2.967   1.209  -0.549  0.00  0.00    +0.000 A 
ATOM      4  C   UNL     1       2.324   2.406  -0.201  0.00  0.00    +0.000 A 
ATOM      5  C   UNL     1       2.708   3.624  -0.771  0.00  0.00    +0.000 A 
ATOM      6  C   UNL     1       3.746   3.679  -1.708  0.00  0.00    +0.000 A 
ATOM      7  C   UNL     1       4.443   2.499  -2.002  0.00  0.00    +0.000 A 
ATOM      8  C   UNL     1       4.056   1.277  -1.433  0.00  0.00    +0.000 A 
BRANCH   6   9
ATOM      9  C   UNL     1       4.097   4.979  -2.383  0.00  0.00    +0.000 C 
BRANCH   9  10
ATOM     10  N   UNL     1       5.064   5.733  -1.627  0.00  0.00    +0.000 N 
ATOM     11  C   UNL     1       5.568   6.920  -2.100  0.00  0.00    +0.000 C 
ATOM     12  O   UNL     1       5.247   7.388  -3.189  0.00  0.00    +0.000 OA
ATOM     13  H   UNL     1       5.274   5.434  -0.688  0.00  0.00    +0.000 HD
BRANCH  11  14
ATOM     14  C   UNL     1       6.497   7.584  -1.222  0.00  0.00    +0.000 A 
ATOM     15  C   UNL     1       7.041   7.252   0.005  0.00  0.00    +0.000 A 
ATOM     16  C   UNL     1       7.896   8.320   0.330  0.00  0.00    +0.000 A 
ATOM     17  N   UNL     1       7.904   9.267  -0.607  0.00  0.00    +0.000 NA
ATOM     18  N   UNL     1       7.050   8.800  -1.536  0.00  0.00    +0.000 N 
ATOM     19  H   UNL     1       6.882   9.351  -2.373  0.00  0.00    +0.000 HD
ENDBRANCH  11  14
ENDBRANCH   9  10
ENDBRANCH   6   9
ENDBRANCH   2   3
BRANCH   2  20
ATOM     20  N   UNL     1       3.425  -0.735   0.881  0.00  0.00    +0.000 N 
ATOM     21  C   UNL     1       3.060  -1.568   1.909  0.00  0.00    +0.000 C 
ATOM     22  O   UNL     1       1.883  -1.793   2.181  0.00  0.00    +0.000 OA
ATOM     23  H   UNL     1       4.403  -0.520   0.721  0.00  0.00    +0.000 HD
BRANCH  21  24
ATOM     24  C   UNL     1       4.147  -2.227   2.642  0.00  0.00    +0.000 A 
ATOM     25  C   UNL     1       3.889  -3.389   3.358  0.00  0.00    +0.000 A 
ATOM     26  S   UNL     1       5.264  -4.035   4.132  0.00  0.00    +0.000 S 
ATOM     27  C   UNL     1       6.242  -2.756   3.581  0.00  0.00    +0.000 A 
ATOM     28  N   UNL     1       7.556  -2.682   3.923  0.00  0.00    +0.000 NA
ATOM     29  C   UNL     1       8.164  -1.632   3.482  0.00  0.00    +0.000 A 
ATOM     30  N   UNL     1       7.581  -0.656   2.717  0.00  0.00    +0.000 N 
ATOM     31  C   UNL     1       6.281  -0.732   2.278  0.00  0.00    +0.000 A 
ATOM     32  O   UNL     1       5.836   0.085   1.480  0.00  0.00    +0.000 OA
ATOM     33  C   UNL     1       5.536  -1.865   2.792  0.00  0.00    +0.000 A 
ATOM     34  H   UNL     1       8.120   0.124   2.374  0.00  0.00    +0.000 HD
ENDBRANCH  21  24
ENDBRANCH   2  20
TORSDOF 6
