REMARK  Name = 
REMARK  7 active torsions:
REMARK  status: ('A' for Active; 'I' for Inactive)
REMARK    1  A    between atoms: C_1  and  C_2
REMARK    2  A    between atoms: C_2  and  N_3
REMARK    3  A    between atoms: C_2  and  C_13
REMARK    4  A    between atoms: C_4  and  C_6
REMARK    5  A    between atoms: C_16  and  C_17
REMARK    6  A    between atoms: C_17  and  N_18
REMARK    7  A    between atoms: C_19  and  C_21
REMARK                            x       y       z     vdW  Elec       q    Type
REMARK                         _______ _______ _______ _____ _____    ______ ____
ROOT
ATOM      1  C   UNL     1       6.057  -3.973   6.387  0.00  0.00    +0.000 A 
ATOM      2  C   UNL     1       6.182  -4.533   7.671  0.00  0.00    +0.000 A 
ATOM      3  C   UNL     1       7.381  -5.122   8.084  0.00  0.00    +0.000 A 
ATOM      4  C   UNL     1       8.485  -5.161   7.224  0.00  0.00    +0.000 A 
ATOM      5  C   UNL     1       8.351  -4.642   5.931  0.00  0.00    +0.000 A 
ATOM      6  C   UNL     1       7.157  -4.039   5.524  0.00  0.00    +0.000 A 
ENDROOT
BRANCH   1   8
ATOM      7  C   UNL     1       4.909  -1.760   6.351  0.00  0.00    +0.000 C 
ATOM      8  C   UNL     1       4.771  -3.247   6.013  0.00  0.00    +0.000 C 
BRANCH   8   9
ATOM      9  N   UNL     1       4.398  -3.466   4.622  0.00  0.00    +0.000 N 
ATOM     10  C   UNL     1       3.139  -3.151   4.161  0.00  0.00    +0.000 C 
ATOM     11  O   UNL     1       2.356  -2.480   4.831  0.00  0.00    +0.000 OA
ATOM     12  H   UNL     1       4.899  -4.194   4.112  0.00  0.00    +0.000 HD
BRANCH  10  13
ATOM     13  C   UNL     1       2.785  -3.606   2.744  0.00  0.00    +0.000 C 
ATOM     14  C   UNL     1       1.252  -3.597   2.611  0.00  0.00    +0.000 C 
ATOM     15  C   UNL     1       0.772  -4.289   1.346  0.00  0.00    +0.000 C 
ATOM     16  C   UNL     1       1.281  -5.715   1.348  0.00  0.00    +0.000 C 
ATOM     17  N   UNL     1       2.713  -5.760   1.502  0.00  0.00    +0.000 N 
ATOM     18  C   UNL     1       3.416  -4.932   2.332  0.00  0.00    +0.000 C 
ATOM     19  O   UNL     1       4.570  -5.240   2.633  0.00  0.00    +0.000 OA
ATOM     20  H   UNL     1       3.193  -6.630   1.299  0.00  0.00    +0.000 HD
ENDBRANCH  10  13
ENDBRANCH   8   9
ENDBRANCH   1   8
BRANCH   4  21
ATOM     21  C   UNL     1       9.792  -5.763   7.670  0.00  0.00    +0.000 C 
BRANCH  21  22
ATOM     22  N   UNL     1       9.849  -7.174   7.391  0.00  0.00    +0.000 N 
ATOM     23  C   UNL     1      10.931  -7.923   7.777  0.00  0.00    +0.000 C 
ATOM     24  O   UNL     1      11.865  -7.437   8.410  0.00  0.00    +0.000 OA
ATOM     25  H   UNL     1       9.217  -7.531   6.681  0.00  0.00    +0.000 HD
BRANCH  23  26
ATOM     26  C   UNL     1      10.892  -9.354   7.452  0.00  0.00    +0.000 A 
ATOM     27  C   UNL     1      11.662 -10.245   8.188  0.00  0.00    +0.000 A 
ATOM     28  S   UNL     1      11.455 -11.873   7.726  0.00  0.00    +0.000 S 
ATOM     29  C   UNL     1      10.370 -11.440   6.489  0.00  0.00    +0.000 A 
ATOM     30  N   UNL     1       9.819 -12.384   5.681  0.00  0.00    +0.000 NA
ATOM     31  C   UNL     1       9.042 -11.914   4.763  0.00  0.00    +0.000 A 
ATOM     32  N   UNL     1       8.762 -10.583   4.585  0.00  0.00    +0.000 N 
ATOM     33  C   UNL     1       9.271  -9.595   5.395  0.00  0.00    +0.000 A 
ATOM     34  O   UNL     1       8.974  -8.419   5.229  0.00  0.00    +0.000 OA
ATOM     35  C   UNL     1      10.158 -10.073   6.438  0.00  0.00    +0.000 A 
ATOM     36  H   UNL     1       8.142 -10.279   3.848  0.00  0.00    +0.000 HD
ENDBRANCH  23  26
ENDBRANCH  21  22
ENDBRANCH   4  21
TORSDOF 6
