REMARK  Name = 
REMARK  8 active torsions:
REMARK  status: ('A' for Active; 'I' for Inactive)
REMARK    1  A    between atoms: C_1  and  O_2
REMARK    2  A    between atoms: O_2  and  C_3
REMARK    3  A    between atoms: C_8  and  N_9
REMARK    4  A    between atoms: N_9  and  C_10
REMARK    5  A    between atoms: C_10  and  C_11
REMARK    6  A    between atoms: C_14  and  C_15
REMARK    7  A    between atoms: C_15  and  N_16
REMARK    8  A    between atoms: C_17  and  C_19
REMARK                            x       y       z     vdW  Elec       q    Type
REMARK                         _______ _______ _______ _____ _____    ______ ____
ROOT
ATOM      1  C   UNL     1       3.956  -1.374   3.472  0.00  0.00    +0.000 A 
ATOM      2  C   UNL     1       4.232  -0.327   4.363  0.00  0.00    +0.000 A 
ATOM      3  C   UNL     1       4.483  -0.587   5.712  0.00  0.00    +0.000 A 
ATOM      4  C   UNL     1       4.492  -1.903   6.193  0.00  0.00    +0.000 A 
ATOM      5  C   UNL     1       4.227  -2.950   5.299  0.00  0.00    +0.000 A 
ATOM      6  C   UNL     1       3.972  -2.691   3.949  0.00  0.00    +0.000 A 
ENDROOT
BRANCH   1   7
ATOM      7  C   UNL     1       3.544  -1.070   2.049  0.00  0.00    +0.000 C 
BRANCH   7   8
ATOM      8  N   UNL     1       4.684  -0.902   1.160  0.00  0.00    +0.000 N 
ATOM      9  H   UNL     1       5.402  -1.608   1.298  0.00  0.00    +0.000 HD
BRANCH   8  15
ATOM     10  C   UNL     1       3.216  -0.310  -0.810  0.00  0.00    +0.000 A 
ATOM     11  C   UNL     1       3.144   0.004  -2.177  0.00  0.00    +0.000 A 
ATOM     12  C   UNL     1       4.290   0.013  -2.967  0.00  0.00    +0.000 A 
ATOM     13  C   UNL     1       5.522  -0.274  -2.395  0.00  0.00    +0.000 A 
ATOM     14  C   UNL     1       5.603  -0.589  -1.035  0.00  0.00    +0.000 A 
ATOM     15  C   UNL     1       4.460  -0.640  -0.211  0.00  0.00    +0.000 A 
BRANCH  10  17
ATOM     16  C   UNL     1       0.836  -0.453  -0.634  0.00  0.00    +0.000 C 
ATOM     17  O   UNL     1       2.099  -0.273  -0.011  0.00  0.00    +0.000 OA
ENDBRANCH  10  17
ENDBRANCH   8  15
ENDBRANCH   7   8
ENDBRANCH   1   7
BRANCH   4  18
ATOM     18  C   UNL     1       4.746  -2.194   7.649  0.00  0.00    +0.000 C 
BRANCH  18  19
ATOM     19  N   UNL     1       3.520  -2.228   8.405  0.00  0.00    +0.000 N 
ATOM     20  C   UNL     1       3.533  -2.408   9.765  0.00  0.00    +0.000 C 
ATOM     21  O   UNL     1       4.580  -2.508  10.398  0.00  0.00    +0.000 OA
ATOM     22  H   UNL     1       2.660  -2.388   7.889  0.00  0.00    +0.000 HD
BRANCH  20  23
ATOM     23  C   UNL     1       2.229  -2.416  10.442  0.00  0.00    +0.000 A 
ATOM     24  C   UNL     1       2.150  -2.079  11.786  0.00  0.00    +0.000 A 
ATOM     25  S   UNL     1       0.563  -2.105  12.407  0.00  0.00    +0.000 S 
ATOM     26  C   UNL     1      -0.071  -2.614  10.913  0.00  0.00    +0.000 A 
ATOM     27  N   UNL     1      -1.401  -2.859  10.765  0.00  0.00    +0.000 NA
ATOM     28  C   UNL     1      -1.740  -3.266   9.588  0.00  0.00    +0.000 A 
ATOM     29  N   UNL     1      -0.870  -3.443   8.542  0.00  0.00    +0.000 N 
ATOM     30  C   UNL     1       0.476  -3.182   8.634  0.00  0.00    +0.000 A 
ATOM     31  O   UNL     1       1.217  -3.308   7.670  0.00  0.00    +0.000 OA
ATOM     32  C   UNL     1       0.913  -2.737   9.947  0.00  0.00    +0.000 A 
ATOM     33  H   UNL     1      -1.202  -3.753   7.641  0.00  0.00    +0.000 HD
ENDBRANCH  20  23
ENDBRANCH  18  19
ENDBRANCH   4  18
TORSDOF 7
