REMARK  Name = 
REMARK  11 active torsions:
REMARK  status: ('A' for Active; 'I' for Inactive)
REMARK    1  A    between atoms: C_1  and  C_2
REMARK    2  A    between atoms: C_2  and  N_3
REMARK    3  A    between atoms: C_2  and  C_19
REMARK    4  A    between atoms: N_3  and  C_4
REMARK    5  A    between atoms: C_4  and  C_5
REMARK    6  A    between atoms: C_8  and  C_9
REMARK    7  A    between atoms: C_9  and  N_10
REMARK    8  A    between atoms: N_10  and  C_11
REMARK    9  A    between atoms: C_11  and  C_12
REMARK   10  A    between atoms: C_12  and  C_13
REMARK   11  A    between atoms: N_15  and  C_16
REMARK                            x       y       z     vdW  Elec       q    Type
REMARK                         _______ _______ _______ _____ _____    ______ ____
ROOT
ATOM      1  C   UNL     1       0.566  -0.648   1.070  0.00  0.00    +0.000 C 
ENDROOT
BRANCH   1   2
ATOM      2  C   UNL     1      -0.941  -0.690   1.040  0.00  0.00    +0.000 A 
ATOM      3  C   UNL     1      -1.617  -1.856   1.420  0.00  0.00    +0.000 A 
ATOM      4  C   UNL     1      -3.005  -1.863   1.520  0.00  0.00    +0.000 A 
ATOM      5  C   UNL     1      -3.741  -0.697   1.265  0.00  0.00    +0.000 A 
ATOM      6  C   UNL     1      -3.064   0.456   0.848  0.00  0.00    +0.000 A 
ATOM      7  C   UNL     1      -1.676   0.462   0.739  0.00  0.00    +0.000 A 
BRANCH   5   8
ATOM      8  C   UNL     1      -5.244  -0.660   1.367  0.00  0.00    +0.000 C 
BRANCH   8   9
ATOM      9  N   UNL     1      -5.757  -1.569   2.387  0.00  0.00    +0.000 NA
ATOM     10  H   UNL     1      -5.344  -1.333   3.290  0.00  0.00    +0.000 HD
BRANCH   9  11
ATOM     11  C   UNL     1      -7.212  -1.477   2.467  0.00  0.00    +0.000 C 
BRANCH  11  12
ATOM     12  C   UNL     1      -7.716  -2.440   3.510  0.00  0.00    +0.000 C 
ATOM     13  C   UNL     1      -7.422  -3.893   3.260  0.00  0.00    +0.000 C 
ATOM     14  O   UNL     1      -9.066  -2.202   3.916  0.00  0.00    +0.000 OA
ATOM     15  N   UNL     1      -8.008  -2.041   4.897  0.00  0.00    +0.000 NA
ATOM     16  C   UNL     1      -7.998  -0.613   5.185  0.00  0.00    +0.000 C 
ENDBRANCH  11  12
ENDBRANCH   9  11
ENDBRANCH   8   9
ENDBRANCH   5   8
ENDBRANCH   1   2
BRANCH   1  17
ATOM     17  N   UNL     1       1.162  -1.691   0.240  0.00  0.00    +0.000 NA
ATOM     18  H   UNL     1       0.838  -1.552  -0.720  0.00  0.00    +0.000 HD
BRANCH  17  20
ATOM     19  C   UNL     1       3.240  -1.756   1.650  0.00  0.00    +0.000 C 
ATOM     20  C   UNL     1       2.633  -1.648   0.243  0.00  0.00    +0.000 C 
BRANCH  20  21
ATOM     21  C   UNL     1       3.134  -2.765  -0.662  0.00  0.00    +0.000 A 
ATOM     22  C   UNL     1       2.472  -3.956  -0.926  0.00  0.00    +0.000 A 
ATOM     23  S   UNL     1       3.300  -4.966  -2.028  0.00  0.00    +0.000 S 
ATOM     24  C   UNL     1       4.597  -3.871  -2.150  0.00  0.00    +0.000 A 
ATOM     25  N   UNL     1       5.673  -4.133  -2.940  0.00  0.00    +0.000 NA
ATOM     26  C   UNL     1       6.574  -3.206  -2.936  0.00  0.00    +0.000 A 
ATOM     27  N   UNL     1       6.499  -2.048  -2.205  0.00  0.00    +0.000 N 
ATOM     28  C   UNL     1       5.439  -1.739  -1.385  0.00  0.00    +0.000 A 
ATOM     29  O   UNL     1       5.412  -0.706  -0.726  0.00  0.00    +0.000 OA
ATOM     30  C   UNL     1       4.392  -2.746  -1.374  0.00  0.00    +0.000 A 
ATOM     31  H   UNL     1       7.247  -1.366  -2.236  0.00  0.00    +0.000 HD
ENDBRANCH  20  21
ENDBRANCH  17  20
ENDBRANCH   1  17
TORSDOF 8
