REMARK  Name = 
REMARK  10 active torsions:
REMARK  status: ('A' for Active; 'I' for Inactive)
REMARK    1  A    between atoms: C_1  and  O_2
REMARK    2  A    between atoms: O_2  and  C_3
REMARK    3  A    between atoms: C_10  and  C_11
REMARK    4  A    between atoms: N_13  and  C_14
REMARK    5  A    between atoms: C_14  and  C_15
REMARK    6  A    between atoms: C_18  and  C_19
REMARK    7  A    between atoms: C_19  and  N_20
REMARK    8  A    between atoms: N_20  and  C_21
REMARK    9  A    between atoms: C_21  and  C_22
REMARK   10  A    between atoms: C_26  and  C_27
REMARK                            x       y       z     vdW  Elec       q    Type
REMARK                         _______ _______ _______ _____ _____    ______ ____
ROOT
ATOM      1  C   UNL     1       2.076  -1.709   3.087  0.00  0.00    +0.000 A 
ATOM      2  C   UNL     1       0.996  -2.370   3.684  0.00  0.00    +0.000 A 
ATOM      3  C   UNL     1       0.010  -1.649   4.363  0.00  0.00    +0.000 A 
ATOM      4  C   UNL     1       0.092  -0.254   4.477  0.00  0.00    +0.000 A 
ATOM      5  C   UNL     1       1.153   0.407   3.841  0.00  0.00    +0.000 A 
ATOM      6  C   UNL     1       2.133  -0.311   3.152  0.00  0.00    +0.000 A 
ENDROOT
BRANCH   1   7
ATOM      7  C   UNL     1       3.123  -2.473   2.322  0.00  0.00    +0.000 C 
BRANCH   7  10
ATOM      8  C   UNL     1       3.642  -2.852  -0.055  0.00  0.00    +0.000 C 
ATOM      9  O   UNL     1       4.847  -2.926   0.176  0.00  0.00    +0.000 OA
ATOM     10  N   UNL     1       2.740  -2.594   0.938  0.00  0.00    +0.000 N 
ATOM     11  H   UNL     1       1.750  -2.611   0.737  0.00  0.00    +0.000 HD
BRANCH   8  19
ATOM     12  C   UNL     1       0.458  -3.076  -1.350  0.00  0.00    +0.000 A 
ATOM     13  N   UNL     1      -0.649  -3.151  -2.116  0.00  0.00    +0.000 NA
ATOM     14  C   UNL     1      -0.494  -3.262  -3.437  0.00  0.00    +0.000 A 
ATOM     15  N   UNL     1       0.656  -3.322  -4.105  0.00  0.00    +0.000 NA
ATOM     16  C   UNL     1       1.733  -3.237  -3.307  0.00  0.00    +0.000 A 
ATOM     17  S   UNL     1       3.286  -3.308  -3.990  0.00  0.00    +0.000 S 
ATOM     18  C   UNL     1       4.017  -3.140  -2.467  0.00  0.00    +0.000 A 
ATOM     19  C   UNL     1       3.113  -3.019  -1.418  0.00  0.00    +0.000 A 
ATOM     20  C   UNL     1       1.743  -3.096  -1.924  0.00  0.00    +0.000 A 
BRANCH  12  22
ATOM     21  C   UNL     1      -0.975  -3.390   0.475  0.00  0.00    +0.000 C 
ATOM     22  O   UNL     1       0.299  -2.949   0.013  0.00  0.00    +0.000 OA
ENDBRANCH  12  22
ENDBRANCH   8  19
ENDBRANCH   7  10
ENDBRANCH   1   7
BRANCH   4  23
ATOM     23  C   UNL     1      -0.962   0.556   5.198  0.00  0.00    +0.000 C 
BRANCH  23  24
ATOM     24  N   UNL     1      -1.559  -0.165   6.328  0.00  0.00    +0.000 NA
ATOM     25  H   UNL     1      -0.813  -0.419   6.976  0.00  0.00    +0.000 HD
BRANCH  24  26
ATOM     26  C   UNL     1      -2.539   0.675   7.013  0.00  0.00    +0.000 C 
BRANCH  26  27
ATOM     27  C   UNL     1      -3.186  -0.060   8.206  0.00  0.00    +0.000 C 
ATOM     28  C   UNL     1      -3.915  -1.358   7.811  0.00  0.00    +0.000 C 
ATOM     29  C   UNL     1      -5.201  -1.092   7.028  0.00  0.00    +0.000 C 
ATOM     30  N   UNL     1      -6.075  -0.173   7.763  0.00  0.00    +0.000 N 
ATOM     31  C   UNL     1      -7.414  -0.356   8.065  0.00  0.00    +0.000 C 
ATOM     32  C   UNL     1      -8.112  -1.641   7.691  0.00  0.00    +0.000 C 
ATOM     33  O   UNL     1      -8.072   0.506   8.656  0.00  0.00    +0.000 OA
ATOM     34  C   UNL     1      -5.454   1.100   8.131  0.00  0.00    +0.000 C 
ATOM     35  C   UNL     1      -4.174   0.869   8.935  0.00  0.00    +0.000 C 
ENDBRANCH  26  27
ENDBRANCH  24  26
ENDBRANCH  23  24
ENDBRANCH   4  23
TORSDOF 8
