REMARK  Name = 
REMARK  9 active torsions:
REMARK  status: ('A' for Active; 'I' for Inactive)
REMARK    1  A    between atoms: C_1  and  C_2
REMARK    2  A    between atoms: C_2  and  C_3
REMARK    3  A    between atoms: C_2  and  C_17
REMARK    4  A    between atoms: C_3  and  N_4
REMARK    5  A    between atoms: C_5  and  C_7
REMARK    6  A    between atoms: C_20  and  C_21
REMARK    7  A    between atoms: C_21  and  N_22
REMARK    8  A    between atoms: N_22  and  C_23
REMARK    9  A    between atoms: C_23  and  C_24
REMARK                            x       y       z     vdW  Elec       q    Type
REMARK                         _______ _______ _______ _____ _____    ______ ____
ROOT
ATOM      1  C   UNL     1       3.305   1.095  -0.518  0.00  0.00    +0.000 C 
ATOM      2  C   UNL     1       2.362   0.026   0.074  0.00  0.00    +0.000 C 
ENDROOT
BRANCH   2   3
ATOM      3  C   UNL     1       2.927  -1.398  -0.021  0.00  0.00    +0.000 A 
ATOM      4  C   UNL     1       4.307  -1.649   0.033  0.00  0.00    +0.000 A 
ATOM      5  C   UNL     1       4.814  -2.952  -0.009  0.00  0.00    +0.000 A 
ATOM      6  C   UNL     1       3.955  -4.053  -0.083  0.00  0.00    +0.000 A 
ATOM      7  C   UNL     1       2.580  -3.822  -0.121  0.00  0.00    +0.000 A 
ATOM      8  C   UNL     1       2.079  -2.520  -0.079  0.00  0.00    +0.000 A 
BRANCH   6   9
ATOM      9  C   UNL     1       4.498  -5.461  -0.101  0.00  0.00    +0.000 C 
BRANCH   9  10
ATOM     10  N   UNL     1       5.275  -5.718   1.106  0.00  0.00    +0.000 NA
ATOM     11  H   UNL     1       4.673  -5.593   1.921  0.00  0.00    +0.000 HD
BRANCH  10  12
ATOM     12  C   UNL     1       5.787  -7.094   1.120  0.00  0.00    +0.000 C 
BRANCH  12  13
ATOM     13  C   UNL     1       6.582  -7.386   2.378  0.00  0.00    +0.000 A 
ATOM     14  C   UNL     1       7.711  -6.625   2.683  0.00  0.00    +0.000 A 
ATOM     15  C   UNL     1       8.408  -6.897   3.855  0.00  0.00    +0.000 A 
ATOM     16  C   UNL     1       7.966  -7.920   4.686  0.00  0.00    +0.000 A 
ATOM     17  C   UNL     1       6.839  -8.630   4.307  0.00  0.00    +0.000 A 
ATOM     18  N   UNL     1       6.139  -8.386   3.177  0.00  0.00    +0.000 NA
ENDBRANCH  12  13
ENDBRANCH  10  12
ENDBRANCH   9  10
ENDBRANCH   6   9
ENDBRANCH   2   3
BRANCH   2  19
ATOM     19  C   UNL     1       0.969   0.158  -0.597  0.00  0.00    +0.000 C 
BRANCH  19  20
ATOM     20  N   UNL     1       0.355   1.456  -0.431  0.00  0.00    +0.000 N 
ATOM     21  C   UNL     1      -0.384   1.773   0.682  0.00  0.00    +0.000 C 
ATOM     22  O   UNL     1      -0.518   0.997   1.624  0.00  0.00    +0.000 OA
ATOM     23  H   UNL     1       0.297   2.046  -1.254  0.00  0.00    +0.000 HD
BRANCH  21  24
ATOM     24  C   UNL     1      -0.959   3.118   0.712  0.00  0.00    +0.000 A 
ATOM     25  C   UNL     1      -1.261   3.709   1.931  0.00  0.00    +0.000 A 
ATOM     26  S   UNL     1      -1.872   5.294   1.787  0.00  0.00    +0.000 S 
ATOM     27  C   UNL     1      -1.806   5.224   0.087  0.00  0.00    +0.000 A 
ATOM     28  N   UNL     1      -2.218   6.273  -0.671  0.00  0.00    +0.000 NA
ATOM     29  C   UNL     1      -2.152   6.069  -1.945  0.00  0.00    +0.000 A 
ATOM     30  N   UNL     1      -1.703   4.913  -2.528  0.00  0.00    +0.000 N 
ATOM     31  C   UNL     1      -1.229   3.844  -1.803  0.00  0.00    +0.000 A 
ATOM     32  O   UNL     1      -0.754   2.860  -2.359  0.00  0.00    +0.000 OA
ATOM     33  C   UNL     1      -1.306   4.016  -0.365  0.00  0.00    +0.000 A 
ATOM     34  H   UNL     1      -1.661   4.823  -3.533  0.00  0.00    +0.000 HD
ENDBRANCH  21  24
ENDBRANCH  19  20
ENDBRANCH   2  19
TORSDOF 8
