REMARK  Name = 
REMARK  4 active torsions:
REMARK  status: ('A' for Active; 'I' for Inactive)
REMARK    1  A    between atoms: N_1  and  C_2
REMARK    2  A    between atoms: C_2  and  C_3
REMARK    3  A    between atoms: C_6  and  C_7
REMARK    4  A    between atoms: C_7  and  N_8
REMARK                            x       y       z     vdW  Elec       q    Type
REMARK                         _______ _______ _______ _____ _____    ______ ____
ROOT
ATOM      1  C   UNL     1       2.998  -1.329  -0.472  0.00  0.00    +0.000 A 
ATOM      2  C   UNL     1       2.643  -1.868  -1.716  0.00  0.00    +0.000 A 
ATOM      3  C   UNL     1       3.067  -3.146  -2.090  0.00  0.00    +0.000 A 
ATOM      4  C   UNL     1       3.857  -3.917  -1.227  0.00  0.00    +0.000 A 
ATOM      5  C   UNL     1       4.212  -3.378   0.018  0.00  0.00    +0.000 A 
ATOM      6  C   UNL     1       3.785  -2.100   0.392  0.00  0.00    +0.000 A 
ENDROOT
BRANCH   1   7
ATOM      7  C   UNL     1       2.585   0.073  -0.099  0.00  0.00    +0.000 C 
BRANCH   7   8
ATOM      8  N   UNL     1       1.136   0.239  -0.109  0.00  0.00    +0.000 NA
ATOM      9  H   UNL     1       0.910   1.197   0.151  0.00  0.00    +0.000 HD
ATOM     10  H   UNL     1       0.734  -0.358   0.612  0.00  0.00    +0.000 HD
ENDBRANCH   7   8
ENDBRANCH   1   7
BRANCH   4  11
ATOM     11  C   UNL     1       4.310  -5.299  -1.623  0.00  0.00    +0.000 C 
BRANCH  11  12
ATOM     12  N   UNL     1       5.598  -5.297  -2.308  0.00  0.00    +0.000 N 
ATOM     13  C   UNL     1       6.814  -5.381  -1.666  0.00  0.00    +0.000 A 
ATOM     14  C   UNL     1       7.798  -5.496  -2.625  0.00  0.00    +0.000 A 
ATOM     15  C   UNL     1       7.161  -5.492  -3.887  0.00  0.00    +0.000 A 
ATOM     16  N   UNL     1       7.722  -5.608  -5.115  0.00  0.00    +0.000 NA
ATOM     17  C   UNL     1       6.847  -5.580  -6.141  0.00  0.00    +0.000 A 
ATOM     18  C   UNL     1       5.472  -5.439  -6.025  0.00  0.00    +0.000 A 
ATOM     19  C   UNL     1       4.904  -5.321  -4.759  0.00  0.00    +0.000 A 
ATOM     20  C   UNL     1       5.788  -5.356  -3.675  0.00  0.00    +0.000 A 
ENDBRANCH  11  12
ENDBRANCH   4  11
TORSDOF 4
