REMARK  Name = 
REMARK  7 active torsions:
REMARK  status: ('A' for Active; 'I' for Inactive)
REMARK    1  A    between atoms: C_1  and  C_2
REMARK    2  A    between atoms: C_2  and  C_3
REMARK    3  A    between atoms: C_2  and  C_4
REMARK    4  A    between atoms: C_2  and  C_21
REMARK    5  A    between atoms: C_5  and  C_6
REMARK    6  A    between atoms: C_8  and  C_9
REMARK    7  A    between atoms: C_12  and  C_13
REMARK                            x       y       z     vdW  Elec       q    Type
REMARK                         _______ _______ _______ _____ _____    ______ ____
ROOT
ATOM      1  C   UNL     1       3.217  -2.568  -2.711  0.00  0.00    +0.000 A 
ATOM      2  C   UNL     1       2.908  -3.889  -3.026  0.00  0.00    +0.000 A 
ATOM      3  C   UNL     1       3.445  -4.477  -4.182  0.00  0.00    +0.000 A 
ATOM      4  C   UNL     1       4.260  -3.665  -4.981  0.00  0.00    +0.000 A 
ATOM      5  C   UNL     1       4.495  -2.353  -4.610  0.00  0.00    +0.000 A 
ATOM      6  N   UNL     1       3.997  -1.793  -3.494  0.00  0.00    +0.000 NA
ENDROOT
BRANCH   3   7
ATOM      7  C   UNL     1       3.179  -5.891  -4.537  0.00  0.00    +0.000 A 
ATOM      8  C   UNL     1       3.116  -6.308  -5.880  0.00  0.00    +0.000 A 
ATOM      9  C   UNL     1       2.891  -7.646  -6.221  0.00  0.00    +0.000 A 
ATOM     10  C   UNL     1       2.715  -8.608  -5.225  0.00  0.00    +0.000 A 
ATOM     11  C   UNL     1       2.750  -8.218  -3.885  0.00  0.00    +0.000 A 
ATOM     12  C   UNL     1       2.985  -6.877  -3.550  0.00  0.00    +0.000 A 
BRANCH  10  13
ATOM     13  C   UNL     1       2.465 -10.012  -5.637  0.00  0.00    +0.000 C 
ATOM     14  N   UNL     1       2.804 -11.000  -4.756  0.00  0.00    +0.000 N 
ATOM     15  O   UNL     1       2.011 -10.286  -6.743  0.00  0.00    +0.000 OA
ATOM     16  H   UNL     1       3.371 -10.839  -3.937  0.00  0.00    +0.000 HD
ATOM     17  H   UNL     1       2.719 -11.950  -5.093  0.00  0.00    +0.000 HD
ENDBRANCH  10  13
ENDBRANCH   3   7
BRANCH   1  19
ATOM     18  C   UNL     1       2.959  -0.701  -1.097  0.00  0.00    +0.000 C 
ATOM     19  C   UNL     1       2.691  -1.963  -1.481  0.00  0.00    +0.000 C 
BRANCH  18  21
ATOM     20  C   UNL     1       3.462  -0.206   1.266  0.00  0.00    +0.000 C 
ATOM     21  C   UNL     1       2.417  -0.003   0.146  0.00  0.00    +0.000 C 
ATOM     22  C   UNL     1       2.350   1.518  -0.136  0.00  0.00    +0.000 C 
BRANCH  21  23
ATOM     23  C   UNL     1       1.000  -0.494   0.515  0.00  0.00    +0.000 A 
ATOM     24  C   UNL     1       0.702  -1.090   1.754  0.00  0.00    +0.000 A 
ATOM     25  C   UNL     1      -0.595  -1.517   2.054  0.00  0.00    +0.000 A 
ATOM     26  C   UNL     1      -1.606  -1.363   1.116  0.00  0.00    +0.000 A 
ATOM     27  F   UNL     1      -2.848  -1.768   1.412  0.00  0.00    +0.000 F 
ATOM     28  C   UNL     1      -1.345  -0.799  -0.123  0.00  0.00    +0.000 A 
ATOM     29  C   UNL     1      -0.051  -0.368  -0.421  0.00  0.00    +0.000 A 
ENDBRANCH  21  23
ENDBRANCH  18  21
ENDBRANCH   1  19
TORSDOF 5
