REMARK  Name = 
REMARK  8 active torsions:
REMARK  status: ('A' for Active; 'I' for Inactive)
REMARK    1  A    between atoms: C_1  and  C_2
REMARK    2  A    between atoms: C_2  and  C_3
REMARK    3  A    between atoms: C_2  and  C_4
REMARK    4  A    between atoms: C_2  and  C_5
REMARK    5  A    between atoms: N_7  and  C_8
REMARK    6  A    between atoms: C_8  and  C_9
REMARK    7  A    between atoms: C_12  and  C_13
REMARK    8  A    between atoms: C_21  and  C_22
REMARK                            x       y       z     vdW  Elec       q    Type
REMARK                         _______ _______ _______ _____ _____    ______ ____
ROOT
ATOM      1  C   UNL     1       2.986  -1.403  -0.285  0.00  0.00    +0.000 A 
ATOM      2  C   UNL     1       2.422  -2.619   0.069  0.00  0.00    +0.000 A 
ATOM      3  N   UNL     1       3.167  -3.641  -0.467  0.00  0.00    +0.000 N 
ATOM      4  C   UNL     1       4.193  -3.119  -1.208  0.00  0.00    +0.000 A 
ATOM      5  N   UNL     1       5.096  -3.841  -1.903  0.00  0.00    +0.000 NA
ATOM      6  C   UNL     1       6.024  -3.072  -2.530  0.00  0.00    +0.000 A 
ATOM      7  C   UNL     1       6.097  -1.682  -2.494  0.00  0.00    +0.000 A 
ATOM      8  C   UNL     1       5.122  -0.990  -1.771  0.00  0.00    +0.000 A 
ATOM      9  C   UNL     1       4.127  -1.731  -1.101  0.00  0.00    +0.000 A 
ENDROOT
BRANCH   7  10
ATOM     10  C   UNL     1       7.203  -1.013  -3.221  0.00  0.00    +0.000 C 
ATOM     11  N   UNL     1       7.322   0.348  -3.133  0.00  0.00    +0.000 N 
ATOM     12  O   UNL     1       8.009  -1.656  -3.882  0.00  0.00    +0.000 OA
ATOM     13  H   UNL     1       6.742   0.951  -2.574  0.00  0.00    +0.000 HD
ATOM     14  H   UNL     1       8.106   0.767  -3.616  0.00  0.00    +0.000 HD
ENDBRANCH   7  10
BRANCH   1  16
ATOM     15  C   UNL     1       1.237  -0.110   1.027  0.00  0.00    +0.000 C 
ATOM     16  C   UNL     1       2.484  -0.017   0.116  0.00  0.00    +0.000 C 
ATOM     17  C   UNL     1       2.084   0.798  -1.131  0.00  0.00    +0.000 C 
ATOM     18  C   UNL     1       3.567   0.751   0.900  0.00  0.00    +0.000 C 
ENDBRANCH   1  16
BRANCH   3  19
ATOM     19  C   UNL     1       2.870  -5.056  -0.303  0.00  0.00    +0.000 C 
BRANCH  19  20
ATOM     20  C   UNL     1       3.588  -5.647   0.885  0.00  0.00    +0.000 A 
ATOM     21  N   UNL     1       3.415  -5.071   2.096  0.00  0.00    +0.000 NA
ATOM     22  C   UNL     1       4.101  -5.608   3.133  0.00  0.00    +0.000 A 
ATOM     23  C   UNL     1       4.906  -6.719   3.021  0.00  0.00    +0.000 A 
ATOM     24  C   UNL     1       4.977  -7.265   1.760  0.00  0.00    +0.000 A 
ATOM     25  N   UNL     1       4.321  -6.766   0.687  0.00  0.00    +0.000 NA
BRANCH  23  26
ATOM     26  C   UNL     1       5.657  -7.212   4.184  0.00  0.00    +0.000 C 
ATOM     27  N   UNL     1       6.058  -8.518   4.190  0.00  0.00    +0.000 N 
ATOM     28  O   UNL     1       5.898  -6.477   5.134  0.00  0.00    +0.000 OA
ATOM     29  H   UNL     1       5.719  -9.222   3.550  0.00  0.00    +0.000 HD
ATOM     30  H   UNL     1       6.516  -8.842   5.035  0.00  0.00    +0.000 HD
ENDBRANCH  23  26
ENDBRANCH  19  20
ENDBRANCH   3  19
TORSDOF 5
