REMARK  Name = 
REMARK  7 active torsions:
REMARK  status: ('A' for Active; 'I' for Inactive)
REMARK    1  A    between atoms: C_2  and  C_26
REMARK    2  A    between atoms: N_3  and  C_4
REMARK    3  A    between atoms: C_4  and  C_5
REMARK    4  A    between atoms: C_8  and  C_9
REMARK    5  A    between atoms: C_9  and  C_10
REMARK    6  A    between atoms: C_10  and  N_11
REMARK    7  A    between atoms: C_12  and  C_14
REMARK                            x       y       z     vdW  Elec       q    Type
REMARK                         _______ _______ _______ _____ _____    ______ ____
ROOT
ATOM      1  C   UNL     1       3.169   3.338  -1.381  0.00  0.00    +0.000 A 
ATOM      2  C   UNL     1       2.714   4.658  -1.338  0.00  0.00    +0.000 A 
ATOM      3  C   UNL     1       3.552   5.711  -1.705  0.00  0.00    +0.000 A 
ATOM      4  C   UNL     1       4.872   5.473  -2.113  0.00  0.00    +0.000 A 
ATOM      5  C   UNL     1       5.315   4.145  -2.188  0.00  0.00    +0.000 A 
ATOM      6  C   UNL     1       4.472   3.087  -1.830  0.00  0.00    +0.000 A 
ENDROOT
BRANCH   1   7
ATOM      7  C   UNL     1       2.261   2.220  -0.956  0.00  0.00    +0.000 C 
BRANCH   7  10
ATOM      8  O   UNL     1       0.318   0.225  -0.733  0.00  0.00    +0.000 OA
ATOM      9  C   UNL     1       0.539   0.723  -1.834  0.00  0.00    +0.000 C 
ATOM     10  N   UNL     1       1.485   1.699  -2.048  0.00  0.00    +0.000 N 
ATOM     11  H   UNL     1       1.638   2.010  -3.004  0.00  0.00    +0.000 HD
BRANCH   9  12
ATOM     12  C   UNL     1      -0.228   0.298  -3.046  0.00  0.00    +0.000 A 
ATOM     13  C   UNL     1      -1.211  -0.677  -2.919  0.00  0.00    +0.000 A 
ATOM     14  C   UNL     1      -1.933  -1.034  -4.053  0.00  0.00    +0.000 A 
ATOM     15  C   UNL     1      -1.644  -0.415  -5.265  0.00  0.00    +0.000 A 
ATOM     16  C   UNL     1      -0.641   0.544  -5.298  0.00  0.00    +0.000 A 
ATOM     17  N   UNL     1       0.080   0.921  -4.218  0.00  0.00    +0.000 NA
ENDBRANCH   9  12
ENDBRANCH   7  10
ENDBRANCH   1   7
BRANCH   4  18
ATOM     18  C   UNL     1       5.799   6.595  -2.525  0.00  0.00    +0.000 C 
BRANCH  18  19
ATOM     19  C   UNL     1       5.539   7.918  -1.803  0.00  0.00    +0.000 C 
BRANCH  19  20
ATOM     20  N   UNL     1       6.457   8.961  -2.193  0.00  0.00    +0.000 N 
ATOM     21  C   UNL     1       6.360  10.205  -1.614  0.00  0.00    +0.000 C 
ATOM     22  O   UNL     1       5.551  10.457  -0.725  0.00  0.00    +0.000 OA
ATOM     23  H   UNL     1       6.865   8.902  -3.122  0.00  0.00    +0.000 HD
BRANCH  21  24
ATOM     24  C   UNL     1       7.325  11.201  -2.073  0.00  0.00    +0.000 A 
ATOM     25  C   UNL     1       7.730  12.217  -1.219  0.00  0.00    +0.000 A 
ATOM     26  S   UNL     1       8.897  13.254  -1.905  0.00  0.00    +0.000 S 
ATOM     27  C   UNL     1       8.854  12.411  -3.384  0.00  0.00    +0.000 A 
ATOM     28  N   UNL     1       9.613  12.809  -4.440  0.00  0.00    +0.000 NA
ATOM     29  C   UNL     1       9.451  12.101  -5.508  0.00  0.00    +0.000 A 
ATOM     30  N   UNL     1       8.605  11.026  -5.613  0.00  0.00    +0.000 N 
ATOM     31  C   UNL     1       7.860  10.555  -4.561  0.00  0.00    +0.000 A 
ATOM     32  O   UNL     1       7.180   9.541  -4.663  0.00  0.00    +0.000 OA
ATOM     33  C   UNL     1       7.985  11.340  -3.348  0.00  0.00    +0.000 A 
ATOM     34  H   UNL     1       8.539  10.503  -6.476  0.00  0.00    +0.000 HD
ENDBRANCH  21  24
ENDBRANCH  19  20
ENDBRANCH  18  19
ENDBRANCH   4  18
TORSDOF 7
