REMARK  Name = 
REMARK  7 active torsions:
REMARK  status: ('A' for Active; 'I' for Inactive)
REMARK    1  A    between atoms: C_1  and  O_2
REMARK    2  A    between atoms: O_2  and  C_3
REMARK    3  A    between atoms: C_10  and  C_11
REMARK    4  A    between atoms: N_13  and  C_14
REMARK    5  A    between atoms: C_14  and  C_15
REMARK    6  A    between atoms: C_18  and  S_19
REMARK    7  A    between atoms: S_19  and  C_20
REMARK                            x       y       z     vdW  Elec       q    Type
REMARK                         _______ _______ _______ _____ _____    ______ ____
ROOT
ATOM      1  C   UNL     1       4.158  -0.764   2.353  0.00  0.00    +0.000 C 
ATOM      2  O   UNL     1       4.636  -1.024   3.455  0.00  0.00    +0.000 OA
ATOM      3  N   UNL     1       3.274   0.269   2.188  0.00  0.00    +0.000 N 
ATOM      4  H   UNL     1       2.920   0.487   1.265  0.00  0.00    +0.000 HD
ENDROOT
BRANCH   1  12
ATOM      5  C   UNL     1       3.147  -0.731  -0.948  0.00  0.00    +0.000 A 
ATOM      6  N   UNL     1       2.959  -0.924  -2.268  0.00  0.00    +0.000 NA
ATOM      7  C   UNL     1       3.655  -1.891  -2.871  0.00  0.00    +0.000 A 
ATOM      8  N   UNL     1       4.539  -2.709  -2.305  0.00  0.00    +0.000 NA
ATOM      9  C   UNL     1       4.706  -2.472  -0.993  0.00  0.00    +0.000 A 
ATOM     10  S   UNL     1       5.793  -3.431  -0.106  0.00  0.00    +0.000 S 
ATOM     11  C   UNL     1       5.454  -2.580   1.320  0.00  0.00    +0.000 A 
ATOM     12  C   UNL     1       4.522  -1.558   1.165  0.00  0.00    +0.000 A 
ATOM     13  C   UNL     1       4.069  -1.504  -0.222  0.00  0.00    +0.000 A 
BRANCH   5  15
ATOM     14  C   UNL     1       1.184   0.519  -0.991  0.00  0.00    +0.000 C 
ATOM     15  O   UNL     1       2.432   0.284  -0.340  0.00  0.00    +0.000 OA
ENDBRANCH   5  15
ENDBRANCH   1  12
BRANCH   3  16
ATOM     16  C   UNL     1       2.834   1.108   3.282  0.00  0.00    +0.000 C 
BRANCH  16  17
ATOM     17  C   UNL     1       1.337   1.034   3.476  0.00  0.00    +0.000 A 
ATOM     18  C   UNL     1       0.720  -0.186   3.800  0.00  0.00    +0.000 A 
ATOM     19  C   UNL     1      -0.668  -0.267   3.957  0.00  0.00    +0.000 A 
ATOM     20  C   UNL     1      -1.446   0.884   3.814  0.00  0.00    +0.000 A 
ATOM     21  C   UNL     1      -0.848   2.110   3.514  0.00  0.00    +0.000 A 
ATOM     22  C   UNL     1       0.539   2.182   3.350  0.00  0.00    +0.000 A 
BRANCH  20  23
ATOM     23  S   UNL     1      -3.221   0.760   3.873  0.00  0.00    +0.000 S 
ATOM     24  C   UNL     1      -3.630   0.972   5.583  0.00  0.00    +0.000 C 
ATOM     25  O   UNL     1      -3.758   1.893   3.142  0.00  0.00    +0.000 OA
ATOM     26  O   UNL     1      -3.571  -0.596   3.492  0.00  0.00    +0.000 OA
ENDBRANCH  20  23
ENDBRANCH  16  17
ENDBRANCH   3  16
TORSDOF 5
