REMARK  Name = 
REMARK  4 active torsions:
REMARK  status: ('A' for Active; 'I' for Inactive)
REMARK    1  A    between atoms: C_2  and  C_4
REMARK    2  A    between atoms: C_7  and  C_8
REMARK    3  A    between atoms: C_8  and  C_9
REMARK    4  A    between atoms: C_9  and  C_10
REMARK                            x       y       z     vdW  Elec       q    Type
REMARK                         _______ _______ _______ _____ _____    ______ ____
ROOT
ATOM      1  C   UNL     1       4.874   0.561  -1.573  0.00  0.00    +0.000 A 
ATOM      2  C   UNL     1       3.759  -0.256  -1.778  0.00  0.00    +0.000 A 
ATOM      3  C   UNL     1       3.918  -1.542  -2.300  0.00  0.00    +0.000 A 
ATOM      4  C   UNL     1       5.187  -2.019  -2.657  0.00  0.00    +0.000 A 
ATOM      5  C   UNL     1       6.294  -1.169  -2.506  0.00  0.00    +0.000 A 
ATOM      6  C   UNL     1       6.141   0.113  -1.965  0.00  0.00    +0.000 A 
ENDROOT
BRANCH   1   8
ATOM      7  N   UNL     1       3.729   2.044  -0.027  0.00  0.00    +0.000 N 
ATOM      8  C   UNL     1       4.757   1.888  -0.918  0.00  0.00    +0.000 C 
ATOM      9  O   UNL     1       5.569   2.780  -1.114  0.00  0.00    +0.000 OA
ATOM     10  H   UNL     1       3.737   2.900   0.516  0.00  0.00    +0.000 HD
ATOM     11  H   UNL     1       3.221   1.259   0.350  0.00  0.00    +0.000 HD
ENDBRANCH   1   8
BRANCH   4  12
ATOM     12  C   UNL     1       5.389  -3.468  -3.049  0.00  0.00    +0.000 C 
BRANCH  12  13
ATOM     13  C   UNL     1       4.918  -3.948  -4.425  0.00  0.00    +0.000 C 
ATOM     14  C   UNL     1       4.924  -2.964  -5.584  0.00  0.00    +0.000 C 
ATOM     15  C   UNL     1       3.616  -3.468  -5.053  0.00  0.00    +0.000 C 
BRANCH  13  16
ATOM     16  C   UNL     1       5.259  -5.424  -4.732  0.00  0.00    +0.000 C 
ATOM     17  C   UNL     1       4.721  -6.383  -3.654  0.00  0.00    +0.000 C 
ATOM     18  C   UNL     1       5.012  -7.841  -3.998  0.00  0.00    +0.000 C 
ATOM     19  C   UNL     1       6.501  -8.068  -4.244  0.00  0.00    +0.000 C 
ATOM     20  C   UNL     1       7.049  -7.116  -5.304  0.00  0.00    +0.000 C 
ATOM     21  C   UNL     1       6.760  -5.654  -4.958  0.00  0.00    +0.000 C 
ENDBRANCH  13  16
ENDBRANCH  12  13
ENDBRANCH   4  12
TORSDOF 4
