REMARK  Name = 
REMARK  10 active torsions:
REMARK  status: ('A' for Active; 'I' for Inactive)
REMARK    1  A    between atoms: C_1  and  C_2
REMARK    2  A    between atoms: C_2  and  C_3
REMARK    3  A    between atoms: C_2  and  N_4
REMARK    4  A    between atoms: C_5  and  C_7
REMARK    5  A    between atoms: C_10  and  O_11
REMARK    6  A    between atoms: O_11  and  C_12
REMARK    7  A    between atoms: C_12  and  C_13
REMARK    8  A    between atoms: C_13  and  C_14
REMARK    9  A    between atoms: C_13  and  C_15
REMARK   10  A    between atoms: C_13  and  C_16
REMARK                            x       y       z     vdW  Elec       q    Type
REMARK                         _______ _______ _______ _____ _____    ______ ____
ROOT
ATOM      1  C   UNL     1       4.928  -3.084  -0.083  0.00  0.00    +0.000 A 
ATOM      2  C   UNL     1       4.317  -4.006  -0.934  0.00  0.00    +0.000 A 
ATOM      3  C   UNL     1       4.798  -5.316  -1.009  0.00  0.00    +0.000 A 
ATOM      4  C   UNL     1       5.888  -5.714  -0.233  0.00  0.00    +0.000 A 
ATOM      5  C   UNL     1       6.502  -4.788   0.615  0.00  0.00    +0.000 A 
ATOM      6  C   UNL     1       6.027  -3.476   0.689  0.00  0.00    +0.000 A 
ENDROOT
BRANCH   1   8
ATOM      7  N   UNL     1       3.173  -1.408  -0.363  0.00  0.00    +0.000 N 
ATOM      8  C   UNL     1       4.497  -1.661  -0.041  0.00  0.00    +0.000 C 
ATOM      9  O   UNL     1       5.304  -0.796   0.246  0.00  0.00    +0.000 OA
ATOM     10  H   UNL     1       2.537  -2.176  -0.511  0.00  0.00    +0.000 HD
BRANCH   7  12
ATOM     11  C   UNL     1       1.496   0.065  -1.367  0.00  0.00    +0.000 C 
ATOM     12  C   UNL     1       2.635  -0.053  -0.360  0.00  0.00    +0.000 C 
ATOM     13  C   UNL     1       2.148   0.361   1.028  0.00  0.00    +0.000 C 
ENDBRANCH   7  12
ENDBRANCH   1   8
BRANCH   4  14
ATOM     14  O   UNL     1       6.446  -6.965  -0.225  0.00  0.00    +0.000 OA
BRANCH  14  15
ATOM     15  C   UNL     1       5.844  -7.931  -1.092  0.00  0.00    +0.000 C 
BRANCH  15  16
ATOM     16  C   UNL     1       6.555  -9.313  -0.996  0.00  0.00    +0.000 C 
ATOM     17  C   UNL     1       8.035  -9.130  -1.401  0.00  0.00    +0.000 C 
ATOM     18  C   UNL     1       6.495  -9.779   0.477  0.00  0.00    +0.000 C 
BRANCH  16  19
ATOM     19  C   UNL     1       5.923 -10.371  -1.925  0.00  0.00    +0.000 A 
ATOM     20  C   UNL     1       4.824 -10.103  -2.755  0.00  0.00    +0.000 A 
ATOM     21  C   UNL     1       4.347 -11.095  -3.604  0.00  0.00    +0.000 A 
ATOM     22  N   UNL     1       4.870 -12.332  -3.687  0.00  0.00    +0.000 NA
ATOM     23  C   UNL     1       5.921 -12.589  -2.885  0.00  0.00    +0.000 A 
ATOM     24  C   UNL     1       6.469 -11.663  -2.008  0.00  0.00    +0.000 A 
ENDBRANCH  16  19
ENDBRANCH  15  16
ENDBRANCH  14  15
ENDBRANCH   4  14
TORSDOF 6
