REMARK  Name = 
REMARK  7 active torsions:
REMARK  status: ('A' for Active; 'I' for Inactive)
REMARK    1  A    between atoms: C_2  and  C_4
REMARK    2  A    between atoms: C_7  and  N_8
REMARK    3  A    between atoms: N_8  and  C_9
REMARK    4  A    between atoms: C_9  and  C_10
REMARK    5  A    between atoms: C_10  and  C_13
REMARK    6  A    between atoms: C_18  and  O_19
REMARK    7  A    between atoms: O_19  and  C_20
REMARK                            x       y       z     vdW  Elec       q    Type
REMARK                         _______ _______ _______ _____ _____    ______ ____
ROOT
ATOM      1  C   UNL     1       5.226   6.713  -3.375  0.00  0.00    +0.000 C 
ATOM      2  F   UNL     1       6.564   6.662  -3.105  0.00  0.00    +0.000 F 
ATOM      3  F   UNL     1       5.102   6.283  -4.669  0.00  0.00    +0.000 F 
ENDROOT
BRANCH   1   4
ATOM      4  C   UNL     1       4.665   8.112  -3.185  0.00  0.00    +0.000 A 
ATOM      5  C   UNL     1       5.192   8.980  -2.216  0.00  0.00    +0.000 A 
ATOM      6  C   UNL     1       4.651  10.259  -2.049  0.00  0.00    +0.000 A 
ATOM      7  C   UNL     1       3.580  10.675  -2.838  0.00  0.00    +0.000 A 
ATOM      8  F   UNL     1       3.105  11.915  -2.654  0.00  0.00    +0.000 F 
ATOM      9  C   UNL     1       3.035   9.826  -3.798  0.00  0.00    +0.000 A 
ATOM     10  C   UNL     1       3.588   8.553  -3.972  0.00  0.00    +0.000 A 
BRANCH   9  11
ATOM     11  O   UNL     1       1.999  10.112  -4.650  0.00  0.00    +0.000 OA
BRANCH  11  12
ATOM     12  C   UNL     1       1.066  11.159  -4.309  0.00  0.00    +0.000 C 
ATOM     13  C   UNL     1       0.092  10.915  -3.146  0.00  0.00    +0.000 C 
ATOM     14  O   UNL     1      -1.053  11.227  -3.978  0.00  0.00    +0.000 OA
ATOM     15  C   UNL     1      -0.215  11.178  -5.158  0.00  0.00    +0.000 C 
ENDBRANCH  11  12
ENDBRANCH   9  11
ENDBRANCH   1   4
BRANCH   1  16
ATOM     16  C   UNL     1       4.488   5.699  -2.460  0.00  0.00    +0.000 C 
BRANCH  16  17
ATOM     17  N   UNL     1       4.904   4.294  -2.679  0.00  0.00    +0.000 N 
ATOM     18  H   UNL     1       4.981   4.068  -3.672  0.00  0.00    +0.000 HD
BRANCH  17  22
ATOM     19  C   UNL     1       3.263   1.172  -0.461  0.00  0.00    +0.000 A 
ATOM     20  C   UNL     1       3.250   2.438   0.097  0.00  0.00    +0.000 A 
ATOM     21  C   UNL     1       3.778   3.496  -0.644  0.00  0.00    +0.000 A 
ATOM     22  C   UNL     1       4.284   3.288  -1.929  0.00  0.00    +0.000 A 
ATOM     23  C   UNL     1       4.279   1.958  -2.372  0.00  0.00    +0.000 A 
ATOM     24  N   UNL     1       3.774   0.896  -1.690  0.00  0.00    +0.000 NA
BRANCH  19  26
ATOM     25  N   UNL     1       2.825  -1.207  -0.264  0.00  0.00    +0.000 N 
ATOM     26  C   UNL     1       2.715   0.021   0.327  0.00  0.00    +0.000 C 
ATOM     27  O   UNL     1       2.205   0.160   1.432  0.00  0.00    +0.000 OA
ATOM     28  H   UNL     1       2.501  -2.026   0.229  0.00  0.00    +0.000 HD
ATOM     29  H   UNL     1       3.278  -1.290  -1.167  0.00  0.00    +0.000 HD
ENDBRANCH  19  26
ENDBRANCH  17  22
ENDBRANCH  16  17
ENDBRANCH   1  16
TORSDOF 7
