REMARK  Name = 
REMARK  7 active torsions:
REMARK  status: ('A' for Active; 'I' for Inactive)
REMARK    1  A    between atoms: C_1  and  O_2
REMARK    2  A    between atoms: O_2  and  C_3
REMARK    3  A    between atoms: C_7  and  N_8
REMARK    4  A    between atoms: N_8  and  C_9
REMARK    5  A    between atoms: C_9  and  C_10
REMARK    6  A    between atoms: C_14  and  C_15
REMARK    7  A    between atoms: C_19  and  C_20
REMARK                            x       y       z     vdW  Elec       q    Type
REMARK                         _______ _______ _______ _____ _____    ______ ____
ROOT
ATOM      1  C   UNL     1       1.662   1.563   6.341  0.00  0.00    +0.000 A 
ATOM      2  C   UNL     1       1.573   0.487   7.231  0.00  0.00    +0.000 A 
ATOM      3  C   UNL     1       1.558   0.714   8.603  0.00  0.00    +0.000 A 
ATOM      4  C   UNL     1       1.658   2.017   9.096  0.00  0.00    +0.000 A 
ATOM      5  C   UNL     1       1.782   3.123   8.233  0.00  0.00    +0.000 A 
ATOM      6  C   UNL     1       1.733   2.872   6.851  0.00  0.00    +0.000 A 
ENDROOT
BRANCH   5   7
ATOM      7  C   UNL     1       2.049   4.483   8.744  0.00  0.00    +0.000 A 
ATOM      8  C   UNL     1       2.848   4.692   9.873  0.00  0.00    +0.000 A 
ATOM      9  C   UNL     1       3.148   5.987  10.274  0.00  0.00    +0.000 A 
ATOM     10  C   UNL     1       2.641   7.054   9.545  0.00  0.00    +0.000 A 
ATOM     11  C   UNL     1       1.853   6.789   8.432  0.00  0.00    +0.000 A 
ATOM     12  C   UNL     1       1.291   7.916   7.617  0.00  0.00    +0.000 C 
ATOM     13  N   UNL     1       1.556   5.525   8.025  0.00  0.00    +0.000 NA
ENDBRANCH   5   7
BRANCH   1  14
ATOM     14  C   UNL     1       1.724   1.317   4.854  0.00  0.00    +0.000 C 
BRANCH  14  15
ATOM     15  N   UNL     1       0.403   0.998   4.339  0.00  0.00    +0.000 N 
ATOM     16  H   UNL     1      -0.342   1.515   4.800  0.00  0.00    +0.000 HD
BRANCH  15  21
ATOM     17  C   UNL     1       1.000   0.499   0.687  0.00  0.00    +0.000 A 
ATOM     18  C   UNL     1      -0.330   0.422   0.293  0.00  0.00    +0.000 A 
ATOM     19  N   UNL     1      -1.382   0.539   1.133  0.00  0.00    +0.000 NA
ATOM     20  C   UNL     1      -1.081   0.747   2.437  0.00  0.00    +0.000 A 
ATOM     21  C   UNL     1       0.211   0.872   2.960  0.00  0.00    +0.000 A 
ATOM     22  C   UNL     1       1.258   0.712   2.042  0.00  0.00    +0.000 A 
BRANCH  17  24
ATOM     23  C   UNL     1       3.299   0.435   0.095  0.00  0.00    +0.000 C 
ATOM     24  O   UNL     1       1.932   0.353  -0.300  0.00  0.00    +0.000 OA
ENDBRANCH  17  24
ENDBRANCH  15  21
ENDBRANCH  14  15
ENDBRANCH   1  14
TORSDOF 5
