REMARK  Name = 
REMARK  4 active torsions:
REMARK  status: ('A' for Active; 'I' for Inactive)
REMARK    1  A    between atoms: C_2  and  C_4
REMARK    2  A    between atoms: C_8  and  C_9
REMARK    3  A    between atoms: C_9  and  N_10
REMARK    4  A    between atoms: C_15  and  N_16
REMARK                            x       y       z     vdW  Elec       q    Type
REMARK                         _______ _______ _______ _____ _____    ______ ____
ROOT
ATOM      1  C   UNL     1       6.636  -1.495  -2.345  0.00  0.00    +0.000 C 
ENDROOT
BRANCH   1   2
ATOM      2  N   UNL     1       7.086  -2.074  -3.602  0.00  0.00    +0.000 N 
ATOM      3  C   UNL     1       7.526  -1.344  -4.675  0.00  0.00    +0.000 A 
ATOM      4  N   UNL     1       7.431  -2.029  -5.791  0.00  0.00    +0.000 NA
ATOM      5  C   UNL     1       6.928  -3.250  -5.422  0.00  0.00    +0.000 A 
ATOM      6  C   UNL     1       6.479  -4.301  -6.229  0.00  0.00    +0.000 A 
ATOM      7  C   UNL     1       5.955  -5.434  -5.588  0.00  0.00    +0.000 A 
ATOM      8  C   UNL     1       5.988  -5.574  -4.191  0.00  0.00    +0.000 A 
ATOM      9  C   UNL     1       6.439  -4.527  -3.381  0.00  0.00    +0.000 A 
ATOM     10  C   UNL     1       6.834  -3.355  -4.036  0.00  0.00    +0.000 A 
BRANCH   7  11
ATOM     11  N   UNL     1       5.278  -6.456  -6.394  0.00  0.00    +0.000 N 
ATOM     12  O   UNL     1       5.140  -6.240  -7.606  0.00  0.00    +0.000 OA
ATOM     13  O   UNL     1       4.848  -7.460  -5.807  0.00  0.00    +0.000 OA
ENDBRANCH   7  11
ENDBRANCH   1   2
BRANCH   1  18
ATOM     14  C   UNL     1       4.159   1.376  -2.843  0.00  0.00    +0.000 A 
ATOM     15  C   UNL     1       2.990   0.685  -3.178  0.00  0.00    +0.000 A 
ATOM     16  C   UNL     1       2.987  -0.712  -3.194  0.00  0.00    +0.000 A 
ATOM     17  C   UNL     1       4.149  -1.419  -2.878  0.00  0.00    +0.000 A 
ATOM     18  C   UNL     1       5.339  -0.742  -2.562  0.00  0.00    +0.000 A 
ATOM     19  C   UNL     1       5.328   0.659  -2.542  0.00  0.00    +0.000 A 
BRANCH  14  21
ATOM     20  N   UNL     1       3.074   3.553  -2.645  0.00  0.00    +0.000 N 
ATOM     21  C   UNL     1       4.232   2.858  -2.835  0.00  0.00    +0.000 C 
ATOM     22  O   UNL     1       5.303   3.443  -2.958  0.00  0.00    +0.000 OA
ATOM     23  H   UNL     1       3.164   4.557  -2.548  0.00  0.00    +0.000 HD
ATOM     24  H   UNL     1       2.225   3.123  -2.312  0.00  0.00    +0.000 HD
ENDBRANCH  14  21
ENDBRANCH   1  18
TORSDOF 4
