REMARK  Name = 
REMARK  6 active torsions:
REMARK  status: ('A' for Active; 'I' for Inactive)
REMARK    1  A    between atoms: C_2  and  C_3
REMARK    2  A    between atoms: N_7  and  C_8
REMARK    3  A    between atoms: C_8  and  C_9
REMARK    4  A    between atoms: C_13  and  C_14
REMARK    5  A    between atoms: C_18  and  O_19
REMARK    6  A    between atoms: O_19  and  C_20
REMARK                            x       y       z     vdW  Elec       q    Type
REMARK                         _______ _______ _______ _____ _____    ______ ____
ROOT
ATOM      1  C   UNL     1       5.392   0.083  -0.003  0.00  0.00    +0.000 A 
ATOM      2  C   UNL     1       5.897  -0.413   1.205  0.00  0.00    +0.000 A 
ATOM      3  C   UNL     1       6.599  -1.616   1.237  0.00  0.00    +0.000 A 
ATOM      4  C   UNL     1       6.819  -2.329   0.056  0.00  0.00    +0.000 A 
ATOM      5  C   UNL     1       6.395  -1.830  -1.187  0.00  0.00    +0.000 A 
ATOM      6  C   UNL     1       5.734  -0.594  -1.191  0.00  0.00    +0.000 A 
ENDROOT
BRANCH   5   7
ATOM      7  C   UNL     1       6.488  -2.626  -2.427  0.00  0.00    +0.000 A 
ATOM      8  C   UNL     1       6.180  -3.992  -2.419  0.00  0.00    +0.000 A 
ATOM      9  N   UNL     1       6.175  -4.793  -3.508  0.00  0.00    +0.000 NA
ATOM     10  C   UNL     1       6.474  -4.206  -4.685  0.00  0.00    +0.000 A 
ATOM     11  C   UNL     1       6.760  -2.854  -4.833  0.00  0.00    +0.000 A 
ATOM     12  C   UNL     1       6.788  -2.064  -3.682  0.00  0.00    +0.000 A 
BRANCH  11  13
ATOM     13  O   UNL     1       7.014  -2.438  -6.106  0.00  0.00    +0.000 OA
BRANCH  13  14
ATOM     14  C   UNL     1       6.686  -1.090  -6.392  0.00  0.00    +0.000 C 
ATOM     15  F   UNL     1       7.735  -0.305  -6.046  0.00  0.00    +0.000 F 
ATOM     16  F   UNL     1       6.545  -0.987  -7.737  0.00  0.00    +0.000 F 
ENDBRANCH  13  14
ENDBRANCH  11  13
ENDBRANCH   5   7
BRANCH   1  17
ATOM     17  C   UNL     1       4.344   1.187  -0.055  0.00  0.00    +0.000 C 
ATOM     18  C   UNL     1       2.982   0.690  -0.543  0.00  0.00    +0.000 C 
ATOM     19  C   UNL     1       3.143   1.123   0.875  0.00  0.00    +0.000 C 
BRANCH  17  24
ATOM     20  C   UNL     1       6.756   5.119   1.945  0.00  0.00    +0.000 A 
ATOM     21  C   UNL     1       7.001   5.046   0.595  0.00  0.00    +0.000 A 
ATOM     22  N   UNL     1       6.364   4.186  -0.231  0.00  0.00    +0.000 NA
ATOM     23  C   UNL     1       5.454   3.364   0.321  0.00  0.00    +0.000 A 
ATOM     24  N   UNL     1       4.826   2.479  -0.553  0.00  0.00    +0.000 N 
ATOM     25  N   UNL     1       5.145   3.379   1.628  0.00  0.00    +0.000 NA
ATOM     26  C   UNL     1       5.798   4.257   2.413  0.00  0.00    +0.000 A 
ATOM     27  H   UNL     1       5.368   2.494  -1.409  0.00  0.00    +0.000 HD
BRANCH  20  29
ATOM     28  N   UNL     1       8.030   6.740   3.492  0.00  0.00    +0.000 NA
ATOM     29  C   UNL     1       7.454   6.013   2.799  0.00  0.00    +0.000 C 
ENDBRANCH  20  29
ENDBRANCH  17  24
ENDBRANCH   1  17
TORSDOF 6
