REMARK  Name = 
REMARK  11 active torsions:
REMARK  status: ('A' for Active; 'I' for Inactive)
REMARK    1  A    between atoms: N_1  and  C_2
REMARK    2  A    between atoms: C_2  and  C_3
REMARK    3  A    between atoms: C_3  and  N_4
REMARK    4  A    between atoms: C_3  and  C_21
REMARK    5  A    between atoms: N_4  and  C_5
REMARK    6  A    between atoms: C_5  and  C_6
REMARK    7  A    between atoms: C_9  and  C_10
REMARK    8  A    between atoms: C_10  and  N_11
REMARK    9  A    between atoms: N_11  and  C_12
REMARK   10  A    between atoms: C_12  and  C_13
REMARK   11  A    between atoms: C_17  and  O_18
REMARK                            x       y       z     vdW  Elec       q    Type
REMARK                         _______ _______ _______ _____ _____    ______ ____
ROOT
ATOM      1  C   UNL     1       0.909   1.985   1.459  0.00  0.00    +0.000 C 
ENDROOT
BRANCH   1   2
ATOM      2  C   UNL     1       0.540   2.475   2.840  0.00  0.00    +0.000 A 
ATOM      3  C   UNL     1       0.100   1.609   3.843  0.00  0.00    +0.000 A 
ATOM      4  C   UNL     1      -0.225   2.111   5.100  0.00  0.00    +0.000 A 
ATOM      5  C   UNL     1      -0.084   3.475   5.337  0.00  0.00    +0.000 A 
ATOM      6  N   UNL     1       0.346   4.341   4.382  0.00  0.00    +0.000 NA
ATOM      7  C   UNL     1       0.645   3.823   3.167  0.00  0.00    +0.000 A 
BRANCH   5   8
ATOM      8  C   UNL     1      -0.446   4.055   6.692  0.00  0.00    +0.000 C 
BRANCH   8   9
ATOM      9  N   UNL     1      -1.432   5.150   6.627  0.00  0.00    +0.000 NA
ATOM     10  H   UNL     1      -1.036   5.825   5.968  0.00  0.00    +0.000 HD
BRANCH   9  11
ATOM     11  C   UNL     1      -2.732   4.690   6.123  0.00  0.00    +0.000 C 
BRANCH  11  12
ATOM     12  C   UNL     1      -3.791   5.808   6.141  0.00  0.00    +0.000 C 
ATOM     13  C   UNL     1      -3.449   7.000   5.241  0.00  0.00    +0.000 C 
ATOM     14  N   UNL     1      -4.240   6.887   4.008  0.00  0.00    +0.000 NA
ATOM     15  C   UNL     1      -5.005   5.646   4.086  0.00  0.00    +0.000 C 
ATOM     16  C   UNL     1      -5.147   5.362   5.579  0.00  0.00    +0.000 C 
ATOM     17  H   UNL     1      -3.631   6.882   3.190  0.00  0.00    +0.000 HD
BRANCH  16  18
ATOM     18  O   UNL     1      -5.479   4.013   5.868  0.00  0.00    +0.000 OA
ATOM     19  H   UNL     1      -5.028   3.436   5.230  0.00  0.00    +0.000 HD
ENDBRANCH  16  18
ENDBRANCH  11  12
ENDBRANCH   9  11
ENDBRANCH   8   9
ENDBRANCH   5   8
ENDBRANCH   1   2
BRANCH   1  20
ATOM     20  N   UNL     1      -0.234   1.349   0.810  0.00  0.00    +0.000 NA
ATOM     21  H   UNL     1      -0.577   0.609   1.419  0.00  0.00    +0.000 HD
BRANCH  20  22
ATOM     22  C   UNL     1       0.056   0.736  -0.503  0.00  0.00    +0.000 C 
BRANCH  22  23
ATOM     23  C   UNL     1      -1.249   0.053  -0.928  0.00  0.00    +0.000 A 
ATOM     24  C   UNL     1      -2.513   0.581  -0.695  0.00  0.00    +0.000 A 
ATOM     25  S   UNL     1      -3.781  -0.404  -1.262  0.00  0.00    +0.000 S 
ATOM     26  C   UNL     1      -2.689  -1.548  -1.887  0.00  0.00    +0.000 A 
ATOM     27  N   UNL     1      -3.133  -2.652  -2.545  0.00  0.00    +0.000 NA
ATOM     28  C   UNL     1      -2.193  -3.422  -2.982  0.00  0.00    +0.000 A 
ATOM     29  N   UNL     1      -0.850  -3.196  -2.811  0.00  0.00    +0.000 N 
ATOM     30  C   UNL     1      -0.352  -2.096  -2.144  0.00  0.00    +0.000 A 
ATOM     31  O   UNL     1       0.853  -1.916  -2.006  0.00  0.00    +0.000 OA
ATOM     32  C   UNL     1      -1.372  -1.195  -1.645  0.00  0.00    +0.000 A 
ATOM     33  H   UNL     1      -0.171  -3.843  -3.183  0.00  0.00    +0.000 HD
ENDBRANCH  22  23
BRANCH  22  34
ATOM     34  C   UNL     1       0.517   1.722  -1.629  0.00  0.00    +0.000 C 
BRANCH  34  35
ATOM     35  N   UNL     1       1.806   2.396  -1.416  0.00  0.00    +0.000 NA
ATOM     36  H   UNL     1       2.008   2.990  -2.220  0.00  0.00    +0.000 HD
ATOM     37  H   UNL     1       2.551   1.704  -1.370  0.00  0.00    +0.000 HD
ENDBRANCH  34  35
ENDBRANCH  22  34
ENDBRANCH  20  22
ENDBRANCH   1  20
TORSDOF 11
