REMARK  Name = 
REMARK  4 active torsions:
REMARK  status: ('A' for Active; 'I' for Inactive)
REMARK    1  A    between atoms: C_2  and  C_4
REMARK    2  A    between atoms: N_8  and  C_9
REMARK    3  A    between atoms: C_9  and  C_10
REMARK    4  A    between atoms: C_15  and  C_16
REMARK                            x       y       z     vdW  Elec       q    Type
REMARK                         _______ _______ _______ _____ _____    ______ ____
ROOT
ATOM      1  C   UNL     1       5.529  -4.126   4.184  0.00  0.00    +0.000 C 
ENDROOT
BRANCH   1   6
ATOM      2  C   UNL     1       7.810  -1.349   0.507  0.00  0.00    +0.000 A 
ATOM      3  C   UNL     1       7.255  -2.621   0.415  0.00  0.00    +0.000 A 
ATOM      4  C   UNL     1       6.529  -3.127   1.495  0.00  0.00    +0.000 A 
ATOM      5  C   UNL     1       6.377  -2.363   2.648  0.00  0.00    +0.000 A 
ATOM      6  N   UNL     1       5.625  -2.753   3.732  0.00  0.00    +0.000 N 
ATOM      7  N   UNL     1       6.920  -1.133   2.750  0.00  0.00    +0.000 NA
ATOM      8  C   UNL     1       7.627  -0.654   1.692  0.00  0.00    +0.000 A 
ATOM      9  H   UNL     1       5.712  -2.055   4.465  0.00  0.00    +0.000 HD
BRANCH   2  11
ATOM     10  N   UNL     1       8.323  -1.139  -1.858  0.00  0.00    +0.000 N 
ATOM     11  C   UNL     1       8.586  -0.723  -0.583  0.00  0.00    +0.000 C 
ATOM     12  O   UNL     1       9.409   0.154  -0.359  0.00  0.00    +0.000 OA
ATOM     13  H   UNL     1       8.792  -0.633  -2.601  0.00  0.00    +0.000 HD
ATOM     14  H   UNL     1       7.492  -1.659  -2.104  0.00  0.00    +0.000 HD
ENDBRANCH   2  11
ENDBRANCH   1   6
BRANCH   1  15
ATOM     15  C   UNL     1       6.630  -4.582   5.125  0.00  0.00    +0.000 A 
ATOM     16  C   UNL     1       7.699  -3.771   5.522  0.00  0.00    +0.000 A 
ATOM     17  C   UNL     1       8.662  -4.260   6.404  0.00  0.00    +0.000 A 
ATOM     18  C   UNL     1       8.567  -5.561   6.894  0.00  0.00    +0.000 A 
ATOM     19  F   UNL     1       9.536  -5.981   7.722  0.00  0.00    +0.000 F 
ATOM     20  C   UNL     1       7.516  -6.419   6.537  0.00  0.00    +0.000 A 
ATOM     21  C   UNL     1       6.556  -5.897   5.643  0.00  0.00    +0.000 A 
BRANCH  20  22
ATOM     22  C   UNL     1       7.413  -7.791   7.072  0.00  0.00    +0.000 A 
ATOM     23  C   UNL     1       7.814  -8.148   8.353  0.00  0.00    +0.000 A 
ATOM     24  N   UNL     1       7.741  -9.396   8.872  0.00  0.00    +0.000 NA
ATOM     25  C   UNL     1       7.236 -10.333   8.061  0.00  0.00    +0.000 A 
ATOM     26  N   UNL     1       6.802 -10.132   6.811  0.00  0.00    +0.000 NA
ATOM     27  C   UNL     1       6.906  -8.863   6.352  0.00  0.00    +0.000 A 
ENDBRANCH  20  22
ENDBRANCH   1  15
TORSDOF 4
