REMARK  Name = 
REMARK  9 active torsions:
REMARK  status: ('A' for Active; 'I' for Inactive)
REMARK    1  A    between atoms: C_1  and  C_2
REMARK    2  A    between atoms: C_2  and  C_3
REMARK    3  A    between atoms: C_2  and  C_14
REMARK    4  A    between atoms: C_2  and  C_22
REMARK    5  A    between atoms: C_3  and  O_4
REMARK    6  A    between atoms: O_4  and  C_5
REMARK    7  A    between atoms: C_8  and  C_9
REMARK    8  A    between atoms: C_18  and  C_19
REMARK    9  A    between atoms: C_19  and  N_20
REMARK                            x       y       z     vdW  Elec       q    Type
REMARK                         _______ _______ _______ _____ _____    ______ ____
ROOT
ATOM      1  C   UNL     1       0.990   0.094  -0.075  0.00  0.00    +0.000 C 
ATOM      2  C   UNL     1       2.541   0.060  -0.101  0.00  0.00    +0.000 C 
ENDROOT
BRANCH   2   3
ATOM      3  C   UNL     1       3.073   0.258   1.337  0.00  0.00    +0.000 A 
ATOM      4  C   UNL     1       2.674  -0.603   2.377  0.00  0.00    +0.000 A 
ATOM      5  C   UNL     1       3.186  -0.462   3.671  0.00  0.00    +0.000 A 
ATOM      6  C   UNL     1       4.122   0.530   3.956  0.00  0.00    +0.000 A 
ATOM      7  C   UNL     1       4.551   1.392   2.947  0.00  0.00    +0.000 A 
ATOM      8  C   UNL     1       4.004   1.259   1.660  0.00  0.00    +0.000 A 
BRANCH   7   9
ATOM      9  C   UNL     1       5.596   2.450   3.200  0.00  0.00    +0.000 C 
BRANCH   9  10
ATOM     10  N   UNL     1       6.730   2.288   2.292  0.00  0.00    +0.000 NA
ATOM     11  H   UNL     1       7.158   1.380   2.468  0.00  0.00    +0.000 HD
ATOM     12  H   UNL     1       7.436   2.988   2.507  0.00  0.00    +0.000 HD
ENDBRANCH   9  10
ENDBRANCH   7   9
ENDBRANCH   2   3
BRANCH   2  13
ATOM     13  C   UNL     1       3.025  -1.293  -0.694  0.00  0.00    +0.000 C 
ATOM     14  F   UNL     1       1.986  -2.103  -1.013  0.00  0.00    +0.000 F 
ATOM     15  F   UNL     1       3.737  -1.120  -1.837  0.00  0.00    +0.000 F 
ATOM     16  F   UNL     1       3.820  -1.999   0.141  0.00  0.00    +0.000 F 
ENDBRANCH   2  13
BRANCH   2  17
ATOM     17  C   UNL     1       3.007   1.168  -1.095  0.00  0.00    +0.000 C 
BRANCH  17  18
ATOM     18  O   UNL     1       2.498   2.449  -0.696  0.00  0.00    +0.000 OA
BRANCH  18  19
ATOM     19  C   UNL     1       2.892   3.531  -1.415  0.00  0.00    +0.000 A 
ATOM     20  C   UNL     1       3.697   3.563  -2.536  0.00  0.00    +0.000 A 
ATOM     21  N   UNL     1       3.994   4.689  -3.223  0.00  0.00    +0.000 NA
ATOM     22  C   UNL     1       3.453   5.832  -2.731  0.00  0.00    +0.000 A 
ATOM     23  N   UNL     1       2.685   5.927  -1.631  0.00  0.00    +0.000 NA
ATOM     24  C   UNL     1       2.427   4.764  -1.000  0.00  0.00    +0.000 A 
BRANCH  22  25
ATOM     25  C   UNL     1       3.699   7.091  -3.530  0.00  0.00    +0.000 C 
ATOM     26  N   UNL     1       4.445   6.935  -4.676  0.00  0.00    +0.000 N 
ATOM     27  O   UNL     1       3.265   8.198  -3.220  0.00  0.00    +0.000 OA
ATOM     28  H   UNL     1       4.780   6.018  -4.946  0.00  0.00    +0.000 HD
ATOM     29  H   UNL     1       4.604   7.738  -5.267  0.00  0.00    +0.000 HD
ENDBRANCH  22  25
ENDBRANCH  18  19
ENDBRANCH  17  18
ENDBRANCH   2  17
TORSDOF 8
