REMARK  Name = 
REMARK  8 active torsions:
REMARK  status: ('A' for Active; 'I' for Inactive)
REMARK    1  A    between atoms: C_1  and  O_2
REMARK    2  A    between atoms: O_2  and  C_3
REMARK    3  A    between atoms: C_5  and  C_6
REMARK    4  A    between atoms: C_6  and  N_7
REMARK    5  A    between atoms: C_8  and  C_10
REMARK    6  A    between atoms: C_22  and  C_23
REMARK    7  A    between atoms: C_23  and  N_24
REMARK    8  A    between atoms: C_25  and  C_27
REMARK                            x       y       z     vdW  Elec       q    Type
REMARK                         _______ _______ _______ _____ _____    ______ ____
ROOT
ATOM      1  C   UNL     1       3.229   0.858   0.743  0.00  0.00    +0.000 A 
ATOM      2  C   UNL     1       2.773   1.179   2.039  0.00  0.00    +0.000 A 
ATOM      3  C   UNL     1       3.449   2.116   2.832  0.00  0.00    +0.000 A 
ATOM      4  C   UNL     1       4.587   2.681   2.283  0.00  0.00    +0.000 A 
ATOM      5  N   UNL     1       5.034   2.431   1.030  0.00  0.00    +0.000 NA
ATOM      6  C   UNL     1       4.348   1.544   0.253  0.00  0.00    +0.000 A 
ENDROOT
BRANCH   1   8
ATOM      7  C   UNL     1       3.111  -0.980  -0.775  0.00  0.00    +0.000 C 
ATOM      8  O   UNL     1       2.448  -0.054   0.081  0.00  0.00    +0.000 OA
ENDBRANCH   1   8
BRANCH   3   9
ATOM      9  C   UNL     1       3.017   2.470   4.230  0.00  0.00    +0.000 C 
BRANCH   9  10
ATOM     10  N   UNL     1       3.629   1.606   5.212  0.00  0.00    +0.000 N 
ATOM     11  C   UNL     1       3.347   1.701   6.549  0.00  0.00    +0.000 C 
ATOM     12  O   UNL     1       2.537   2.507   6.996  0.00  0.00    +0.000 OA
ATOM     13  H   UNL     1       4.480   1.132   4.929  0.00  0.00    +0.000 HD
BRANCH  11  14
ATOM     14  C   UNL     1       4.042   0.742   7.431  0.00  0.00    +0.000 A 
ATOM     15  C   UNL     1       3.483   0.382   8.650  0.00  0.00    +0.000 A 
ATOM     16  S   UNL     1       4.402  -0.772   9.509  0.00  0.00    +0.000 S 
ATOM     17  C   UNL     1       5.602  -0.801   8.304  0.00  0.00    +0.000 A 
ATOM     18  N   UNL     1       6.711  -1.578   8.426  0.00  0.00    +0.000 NA
ATOM     19  C   UNL     1       7.549  -1.484   7.449  0.00  0.00    +0.000 A 
ATOM     20  N   UNL     1       7.372  -0.680   6.351  0.00  0.00    +0.000 N 
ATOM     21  C   UNL     1       6.256   0.110   6.172  0.00  0.00    +0.000 A 
ATOM     22  O   UNL     1       6.112   0.776   5.157  0.00  0.00    +0.000 OA
ATOM     23  C   UNL     1       5.293   0.041   7.246  0.00  0.00    +0.000 A 
ATOM     24  H   UNL     1       8.057  -0.657   5.612  0.00  0.00    +0.000 HD
ENDBRANCH  11  14
ENDBRANCH   9  10
ENDBRANCH   3   9
BRANCH   6  25
ATOM     25  C   UNL     1       4.873   1.412  -1.165  0.00  0.00    +0.000 C 
BRANCH  25  26
ATOM     26  N   UNL     1       3.895   1.751  -2.183  0.00  0.00    +0.000 N 
ATOM     27  C   UNL     1       4.110   1.542  -3.530  0.00  0.00    +0.000 C 
ATOM     28  O   UNL     1       5.151   1.092  -3.992  0.00  0.00    +0.000 OA
ATOM     29  H   UNL     1       2.938   1.970  -1.915  0.00  0.00    +0.000 HD
BRANCH  27  30
ATOM     30  C   UNL     1       2.936   1.887  -4.405  0.00  0.00    +0.000 A 
ATOM     31  C   UNL     1       3.029   1.768  -5.787  0.00  0.00    +0.000 A 
ATOM     32  C   UNL     1       1.931   2.142  -6.559  0.00  0.00    +0.000 A 
ATOM     33  C   UNL     1       0.785   2.616  -5.928  0.00  0.00    +0.000 A 
ATOM     34  C   UNL     1       0.775   2.687  -4.543  0.00  0.00    +0.000 A 
ATOM     35  N   UNL     1       1.819   2.330  -3.761  0.00  0.00    +0.000 NA
ENDBRANCH  27  30
ENDBRANCH  25  26
ENDBRANCH   6  25
TORSDOF 7
