REMARK  Name = 
REMARK  9 active torsions:
REMARK  status: ('A' for Active; 'I' for Inactive)
REMARK    1  A    between atoms: C_1  and  O_2
REMARK    2  A    between atoms: O_2  and  C_3
REMARK    3  A    between atoms: C_6  and  C_7
REMARK    4  A    between atoms: C_7  and  C_8
REMARK    5  A    between atoms: C_8  and  N_9
REMARK    6  A    between atoms: C_13  and  C_14
REMARK    7  A    between atoms: C_20  and  O_21
REMARK    8  A    between atoms: O_21  and  C_22
REMARK    9  A    between atoms: N_24  and  C_25
REMARK                            x       y       z     vdW  Elec       q    Type
REMARK                         _______ _______ _______ _____ _____    ______ ____
ROOT
ATOM      1  C   UNL     1       5.148   2.322  -4.424  0.00  0.00    +0.000 C 
ENDROOT
BRANCH   1   5
ATOM      2  C   UNL     1       2.931   0.744  -1.001  0.00  0.00    +0.000 A 
ATOM      3  C   UNL     1       2.581   1.969  -1.593  0.00  0.00    +0.000 A 
ATOM      4  C   UNL     1       3.277   2.472  -2.687  0.00  0.00    +0.000 A 
ATOM      5  C   UNL     1       4.363   1.789  -3.233  0.00  0.00    +0.000 A 
ATOM      6  C   UNL     1       4.725   0.571  -2.641  0.00  0.00    +0.000 A 
ATOM      7  C   UNL     1       4.033   0.054  -1.521  0.00  0.00    +0.000 A 
BRANCH   2   9
ATOM      8  C   UNL     1       0.919   0.759   0.255  0.00  0.00    +0.000 C 
ATOM      9  O   UNL     1       2.230   0.227   0.054  0.00  0.00    +0.000 OA
ENDBRANCH   2   9
BRANCH   7  10
ATOM     10  O   UNL     1       4.521  -1.172  -1.130  0.00  0.00    +0.000 OA
BRANCH  10  11
ATOM     11  C   UNL     1       4.384  -1.636   0.233  0.00  0.00    +0.000 C 
ATOM     12  C   UNL     1       5.141  -0.896   1.357  0.00  0.00    +0.000 C 
ATOM     13  N   UNL     1       5.900  -2.114   1.690  0.00  0.00    +0.000 NA
ATOM     14  C   UNL     1       5.463  -2.676   2.966  0.00  0.00    +0.000 C 
ATOM     15  C   UNL     1       5.289  -2.845   0.571  0.00  0.00    +0.000 C 
ENDBRANCH  10  11
ENDBRANCH   7  10
ENDBRANCH   1   5
BRANCH   1  16
ATOM     16  C   UNL     1       4.618   3.669  -4.927  0.00  0.00    +0.000 C 
BRANCH  16  17
ATOM     17  N   UNL     1       5.366   4.228  -6.055  0.00  0.00    +0.000 N 
ATOM     18  C   UNL     1       4.799   5.469  -6.442  0.00  0.00    +0.000 A 
ATOM     19  C   UNL     1       5.371   6.162  -7.505  0.00  0.00    +0.000 A 
ATOM     20  C   UNL     1       4.829   7.388  -7.898  0.00  0.00    +0.000 A 
ATOM     21  C   UNL     1       3.721   7.897  -7.219  0.00  0.00    +0.000 A 
ATOM     22  C   UNL     1       3.208   7.148  -6.175  0.00  0.00    +0.000 A 
ATOM     23  N   UNL     1       3.734   5.967  -5.775  0.00  0.00    +0.000 NA
ATOM     24  H   UNL     1       5.362   3.611  -6.862  0.00  0.00    +0.000 HD
BRANCH  21  25
ATOM     25  C   UNL     1       3.054   9.166  -7.570  0.00  0.00    +0.000 C 
ATOM     26  N   UNL     1       3.805  10.111  -8.216  0.00  0.00    +0.000 N 
ATOM     27  O   UNL     1       1.888   9.379  -7.276  0.00  0.00    +0.000 OA
ATOM     28  H   UNL     1       4.812  10.069  -8.267  0.00  0.00    +0.000 HD
ATOM     29  H   UNL     1       3.363  11.008  -8.365  0.00  0.00    +0.000 HD
ENDBRANCH  21  25
ENDBRANCH  16  17
ENDBRANCH   1  16
TORSDOF 7
