REMARK  Name = 
REMARK  4 active torsions:
REMARK  status: ('A' for Active; 'I' for Inactive)
REMARK    1  A    between atoms: C_2  and  C_4
REMARK    2  A    between atoms: C_8  and  N_9
REMARK    3  A    between atoms: N_9  and  C_10
REMARK    4  A    between atoms: C_10  and  C_11
REMARK                            x       y       z     vdW  Elec       q    Type
REMARK                         _______ _______ _______ _____ _____    ______ ____
ROOT
ATOM      1  C   UNL     1       3.166  -0.876  -0.812  0.00  0.00    +0.000 A 
ATOM      2  C   UNL     1       4.144  -1.660  -0.220  0.00  0.00    +0.000 A 
ATOM      3  N   UNL     1       4.755  -2.689  -0.850  0.00  0.00    +0.000 NA
ATOM      4  C   UNL     1       4.380  -2.916  -2.133  0.00  0.00    +0.000 A 
ATOM      5  C   UNL     1       3.445  -2.161  -2.854  0.00  0.00    +0.000 A 
ATOM      6  C   UNL     1       2.816  -1.135  -2.144  0.00  0.00    +0.000 A 
ENDROOT
BRANCH   1   8
ATOM      7  N   UNL     1       1.284   0.596  -0.360  0.00  0.00    +0.000 N 
ATOM      8  C   UNL     1       2.551   0.208  -0.019  0.00  0.00    +0.000 C 
ATOM      9  O   UNL     1       3.133   0.717   0.929  0.00  0.00    +0.000 OA
ATOM     10  H   UNL     1       0.840   1.255   0.268  0.00  0.00    +0.000 HD
ATOM     11  H   UNL     1       0.680   0.026  -0.934  0.00  0.00    +0.000 HD
ENDBRANCH   1   8
BRANCH   5  12
ATOM     12  N   UNL     1       3.101  -2.540  -4.153  0.00  0.00    +0.000 N 
ATOM     13  H   UNL     1       3.898  -2.907  -4.673  0.00  0.00    +0.000 HD
BRANCH  12  14
ATOM     14  C   UNL     1       2.214  -1.716  -4.963  0.00  0.00    +0.000 C 
BRANCH  14  15
ATOM     15  C   UNL     1       2.038  -2.328  -6.327  0.00  0.00    +0.000 A 
ATOM     16  C   UNL     1       1.558  -3.632  -6.496  0.00  0.00    +0.000 A 
ATOM     17  C   UNL     1       1.385  -4.144  -7.780  0.00  0.00    +0.000 A 
ATOM     18  C   UNL     1       1.697  -3.327  -8.850  0.00  0.00    +0.000 A 
ATOM     19 CL   UNL     1       1.507  -3.873 -10.464  0.00  0.00    +0.000 Cl
ATOM     20  N   UNL     1       2.154  -2.063  -8.735  0.00  0.00    +0.000 NA
ATOM     21  C   UNL     1       2.313  -1.594  -7.478  0.00  0.00    +0.000 A 
ENDBRANCH  14  15
ENDBRANCH  12  14
ENDBRANCH   5  12
TORSDOF 4
