REMARK  Name = 
REMARK  6 active torsions:
REMARK  status: ('A' for Active; 'I' for Inactive)
REMARK    1  A    between atoms: C_2  and  C_3
REMARK    2  A    between atoms: C_6  and  N_7
REMARK    3  A    between atoms: N_7  and  C_8
REMARK    4  A    between atoms: C_8  and  C_9
REMARK    5  A    between atoms: C_11  and  C_12
REMARK    6  A    between atoms: C_16  and  C_17
REMARK                            x       y       z     vdW  Elec       q    Type
REMARK                         _______ _______ _______ _____ _____    ______ ____
ROOT
ATOM      1  C   UNL     1       6.016  -0.993   0.317  0.00  0.00    +0.000 A 
ATOM      2  C   UNL     1       6.519   0.309   0.361  0.00  0.00    +0.000 A 
ATOM      3  C   UNL     1       7.905   0.534   0.457  0.00  0.00    +0.000 A 
ATOM      4  C   UNL     1       8.731  -0.593   0.513  0.00  0.00    +0.000 A 
ATOM      5  C   UNL     1       8.157  -1.853   0.473  0.00  0.00    +0.000 A 
ATOM      6  N   UNL     1       6.832  -2.073   0.373  0.00  0.00    +0.000 NA
ENDROOT
BRANCH   3   7
ATOM      7  C   UNL     1       8.456   1.904   0.486  0.00  0.00    +0.000 A 
ATOM      8  C   UNL     1       9.631   2.233   1.168  0.00  0.00    +0.000 A 
ATOM      9  N   UNL     1      10.182   3.471   1.215  0.00  0.00    +0.000 NA
ATOM     10  C   UNL     1       9.538   4.452   0.550  0.00  0.00    +0.000 A 
ATOM     11  C   UNL     1       8.367   4.260  -0.162  0.00  0.00    +0.000 A 
ATOM     12  C   UNL     1       7.831   2.965  -0.187  0.00  0.00    +0.000 A 
BRANCH  11  13
ATOM     13  C   UNL     1       7.713   5.395  -0.884  0.00  0.00    +0.000 C 
ATOM     14  F   UNL     1       8.376   6.576  -0.755  0.00  0.00    +0.000 F 
ATOM     15  F   UNL     1       7.609   5.168  -2.222  0.00  0.00    +0.000 F 
ATOM     16  F   UNL     1       6.445   5.628  -0.446  0.00  0.00    +0.000 F 
ENDBRANCH  11  13
ENDBRANCH   3   7
BRANCH   1  17
ATOM     17  C   UNL     1       4.518  -1.242   0.233  0.00  0.00    +0.000 C 
BRANCH  17  18
ATOM     18  N   UNL     1       4.038  -1.331  -1.142  0.00  0.00    +0.000 N 
ATOM     19  H   UNL     1       4.540  -0.775  -1.826  0.00  0.00    +0.000 HD
BRANCH  18  23
ATOM     20  C   UNL     1       0.070  -2.313  -2.203  0.00  0.00    +0.000 A 
ATOM     21  C   UNL     1       0.400  -2.138  -0.858  0.00  0.00    +0.000 A 
ATOM     22  C   UNL     1       1.710  -1.798  -0.490  0.00  0.00    +0.000 A 
ATOM     23  C   UNL     1       2.709  -1.594  -1.451  0.00  0.00    +0.000 A 
ATOM     24  C   UNL     1       2.360  -1.795  -2.796  0.00  0.00    +0.000 A 
ATOM     25  C   UNL     1       1.057  -2.146  -3.174  0.00  0.00    +0.000 A 
BRANCH  20  27
ATOM     26  N   UNL     1      -2.348  -2.953  -2.887  0.00  0.00    +0.000 NA
ATOM     27  C   UNL     1      -1.268  -2.670  -2.582  0.00  0.00    +0.000 C 
ENDBRANCH  20  27
ENDBRANCH  18  23
ENDBRANCH  17  18
ENDBRANCH   1  17
TORSDOF 6
