REMARK  Name = 
REMARK  9 active torsions:
REMARK  status: ('A' for Active; 'I' for Inactive)
REMARK    1  A    between atoms: C_1  and  C_2
REMARK    2  A    between atoms: C_2  and  C_3
REMARK    3  A    between atoms: C_2  and  C_4
REMARK    4  A    between atoms: C_2  and  O_5
REMARK    5  A    between atoms: O_5  and  C_6
REMARK    6  A    between atoms: C_6  and  C_7
REMARK    7  A    between atoms: N_14  and  C_15
REMARK    8  A    between atoms: C_15  and  C_16
REMARK    9  A    between atoms: C_19  and  C_20
REMARK                            x       y       z     vdW  Elec       q    Type
REMARK                         _______ _______ _______ _____ _____    ______ ____
ROOT
ATOM      1  C   UNL     1       4.771  -2.423  -1.784  0.00  0.00    +0.000 A 
ATOM      2  C   UNL     1       5.507  -2.347  -2.965  0.00  0.00    +0.000 A 
ATOM      3  N   UNL     1       5.892  -3.393  -3.740  0.00  0.00    +0.000 NA
ATOM      4  C   UNL     1       5.470  -4.584  -3.265  0.00  0.00    +0.000 A 
ATOM      5  C   UNL     1       4.718  -4.806  -2.115  0.00  0.00    +0.000 A 
ATOM      6  C   UNL     1       4.508  -6.206  -2.011  0.00  0.00    +0.000 A 
ATOM      7  C   UNL     1       5.136  -6.802  -3.083  0.00  0.00    +0.000 A 
ATOM      8  N   UNL     1       5.727  -5.809  -3.833  0.00  0.00    +0.000 N 
ATOM      9  C   UNL     1       4.357  -3.688  -1.347  0.00  0.00    +0.000 A 
ENDROOT
BRANCH   1  10
ATOM     10  C   UNL     1       4.488  -1.195  -0.964  0.00  0.00    +0.000 C 
BRANCH  10  11
ATOM     11  O   UNL     1       3.729  -0.261  -1.725  0.00  0.00    +0.000 OA
BRANCH  11  13
ATOM     12  C   UNL     1       4.670   1.764  -0.701  0.00  0.00    +0.000 C 
ATOM     13  C   UNL     1       3.405   0.980  -1.074  0.00  0.00    +0.000 C 
ATOM     14  C   UNL     1       2.514   0.765   0.157  0.00  0.00    +0.000 C 
ATOM     15  C   UNL     1       2.614   1.797  -2.107  0.00  0.00    +0.000 C 
ENDBRANCH  11  13
ENDBRANCH  10  11
ENDBRANCH   1  10
BRANCH   8  16
ATOM     16  C   UNL     1       6.486  -6.025  -5.056  0.00  0.00    +0.000 C 
BRANCH  16  17
ATOM     17  C   UNL     1       7.939  -6.313  -4.760  0.00  0.00    +0.000 A 
ATOM     18  C   UNL     1       8.771  -5.322  -4.242  0.00  0.00    +0.000 A 
ATOM     19  C   UNL     1      10.101  -5.625  -3.948  0.00  0.00    +0.000 A 
ATOM     20  C   UNL     1      10.584  -6.911  -4.187  0.00  0.00    +0.000 A 
ATOM     21  C   UNL     1       9.696  -7.833  -4.732  0.00  0.00    +0.000 A 
ATOM     22  N   UNL     1       8.394  -7.565  -5.021  0.00  0.00    +0.000 NA
BRANCH  20  23
ATOM     23  C   UNL     1      11.968  -7.353  -3.896  0.00  0.00    +0.000 C 
ATOM     24  N   UNL     1      12.836  -6.458  -3.332  0.00  0.00    +0.000 N 
ATOM     25  O   UNL     1      12.337  -8.495  -4.139  0.00  0.00    +0.000 OA
ATOM     26  H   UNL     1      12.616  -5.510  -3.076  0.00  0.00    +0.000 HD
ATOM     27  H   UNL     1      13.765  -6.799  -3.124  0.00  0.00    +0.000 HD
ENDBRANCH  20  23
ENDBRANCH  16  17
ENDBRANCH   8  16
TORSDOF 6
