REMARK  Name = 
REMARK  5 active torsions:
REMARK  status: ('A' for Active; 'I' for Inactive)
REMARK    1  A    between atoms: C_2  and  C_4
REMARK    2  A    between atoms: N_8  and  C_9
REMARK    3  A    between atoms: C_9  and  C_10
REMARK    4  A    between atoms: C_14  and  C_15
REMARK    5  A    between atoms: C_19  and  C_20
REMARK                            x       y       z     vdW  Elec       q    Type
REMARK                         _______ _______ _______ _____ _____    ______ ____
ROOT
ATOM      1  C   UNL     1       5.184   1.668   5.733  0.00  0.00    +0.000 C 
ATOM      2  C   UNL     1       4.170   1.958   4.635  0.00  0.00    +0.000 C 
ATOM      3  C   UNL     1       5.422   1.222   4.301  0.00  0.00    +0.000 C 
ENDROOT
BRANCH   1   8
ATOM      4  C   UNL     1       6.513  -2.563   8.500  0.00  0.00    +0.000 A 
ATOM      5  C   UNL     1       6.829  -2.249   7.181  0.00  0.00    +0.000 A 
ATOM      6  C   UNL     1       6.264  -1.113   6.596  0.00  0.00    +0.000 A 
ATOM      7  C   UNL     1       5.388  -0.320   7.327  0.00  0.00    +0.000 A 
ATOM      8  N   UNL     1       4.702   0.771   6.793  0.00  0.00    +0.000 N 
ATOM      9  N   UNL     1       5.073  -0.620   8.606  0.00  0.00    +0.000 NA
ATOM     10  C   UNL     1       5.630  -1.727   9.163  0.00  0.00    +0.000 A 
ATOM     11  H   UNL     1       4.195   1.199   7.565  0.00  0.00    +0.000 HD
BRANCH   4  13
ATOM     12  N   UNL     1       8.210  -4.288   8.743  0.00  0.00    +0.000 N 
ATOM     13  C   UNL     1       7.034  -3.757   9.197  0.00  0.00    +0.000 C 
ATOM     14  O   UNL     1       6.454  -4.243  10.158  0.00  0.00    +0.000 OA
ATOM     15  H   UNL     1       8.595  -5.057   9.279  0.00  0.00    +0.000 HD
ATOM     16  H   UNL     1       8.834  -3.797   8.118  0.00  0.00    +0.000 HD
ENDBRANCH   4  13
ENDBRANCH   1   8
BRANCH   1  17
ATOM     17  C   UNL     1       6.043   2.833   6.227  0.00  0.00    +0.000 A 
ATOM     18  C   UNL     1       7.427   2.703   6.409  0.00  0.00    +0.000 A 
ATOM     19  C   UNL     1       8.217   3.805   6.729  0.00  0.00    +0.000 A 
ATOM     20  C   UNL     1       7.635   5.066   6.868  0.00  0.00    +0.000 A 
ATOM     21  C   UNL     1       6.252   5.253   6.710  0.00  0.00    +0.000 A 
ATOM     22  C   UNL     1       5.481   4.111   6.428  0.00  0.00    +0.000 A 
BRANCH  21  23
ATOM     23  C   UNL     1       5.634   6.599   6.771  0.00  0.00    +0.000 A 
ATOM     24  C   UNL     1       4.339   6.800   7.280  0.00  0.00    +0.000 A 
ATOM     25  C   UNL     1       3.748   8.067   7.298  0.00  0.00    +0.000 A 
ATOM     26  C   UNL     1       4.452   9.174   6.831  0.00  0.00    +0.000 A 
ATOM     27  C   UNL     1       5.750   9.021   6.333  0.00  0.00    +0.000 A 
ATOM     28  C   UNL     1       6.315   7.733   6.288  0.00  0.00    +0.000 A 
BRANCH  27  29
ATOM     29  C   UNL     1       6.558  10.203   5.863  0.00  0.00    +0.000 C 
ATOM     30  F   UNL     1       5.926  11.399   6.025  0.00  0.00    +0.000 F 
ATOM     31  F   UNL     1       7.742  10.316   6.529  0.00  0.00    +0.000 F 
ATOM     32  F   UNL     1       6.881  10.127   4.542  0.00  0.00    +0.000 F 
ENDBRANCH  27  29
ENDBRANCH  21  23
ENDBRANCH   1  17
TORSDOF 5
