REMARK  Name = 
REMARK  7 active torsions:
REMARK  status: ('A' for Active; 'I' for Inactive)
REMARK    1  A    between atoms: C_2  and  C_3
REMARK    2  A    between atoms: C_3  and  N_4
REMARK    3  A    between atoms: C_3  and  C_17
REMARK    4  A    between atoms: C_5  and  C_7
REMARK    5  A    between atoms: C_20  and  C_21
REMARK    6  A    between atoms: C_21  and  N_22
REMARK    7  A    between atoms: C_23  and  C_25
REMARK                            x       y       z     vdW  Elec       q    Type
REMARK                         _______ _______ _______ _____ _____    ______ ____
ROOT
ATOM      1  C   UNL     1       2.269   2.117 -14.420  0.00  0.00    +0.000 C 
ENDROOT
BRANCH   1   2
ATOM      2  C   UNL     1       3.089   1.100 -13.631  0.00  0.00    +0.000 A 
ATOM      3  C   UNL     1       3.463   1.367 -12.304  0.00  0.00    +0.000 A 
ATOM      4  C   UNL     1       4.232   0.449 -11.577  0.00  0.00    +0.000 A 
ATOM      5  C   UNL     1       4.661  -0.750 -12.165  0.00  0.00    +0.000 A 
ATOM      6  C   UNL     1       4.286  -1.020 -13.485  0.00  0.00    +0.000 A 
ATOM      7  C   UNL     1       3.531  -0.101 -14.214  0.00  0.00    +0.000 A 
BRANCH   5   8
ATOM      8  C   UNL     1       5.540  -1.722 -11.424  0.00  0.00    +0.000 C 
BRANCH   8   9
ATOM      9  N   UNL     1       4.788  -2.732 -10.716  0.00  0.00    +0.000 N 
ATOM     10  C   UNL     1       5.457  -3.746 -10.062  0.00  0.00    +0.000 C 
ATOM     11  O   UNL     1       6.684  -3.837 -10.086  0.00  0.00    +0.000 OA
ATOM     12  H   UNL     1       3.855  -2.507 -10.404  0.00  0.00    +0.000 HD
BRANCH  10  13
ATOM     13  C   UNL     1       4.589  -4.781  -9.310  0.00  0.00    +0.000 C 
ATOM     14  C   UNL     1       4.877  -4.780  -7.818  0.00  0.00    +0.000 C 
ATOM     15  C   UNL     1       3.993  -3.659  -7.295  0.00  0.00    +0.000 C 
ATOM     16  C   UNL     1       2.797  -3.634  -8.238  0.00  0.00    +0.000 C 
ATOM     17  N   UNL     1       3.141  -4.510  -9.351  0.00  0.00    +0.000 NA
ATOM     18  H   UNL     1       2.804  -4.218 -10.263  0.00  0.00    +0.000 HD
ENDBRANCH  10  13
ENDBRANCH   8   9
ENDBRANCH   5   8
ENDBRANCH   1   2
BRANCH   1  19
ATOM     19  N   UNL     1       3.170   3.044 -15.086  0.00  0.00    +0.000 N 
ATOM     20  C   UNL     1       2.800   4.324 -15.404  0.00  0.00    +0.000 C 
ATOM     21  O   UNL     1       1.692   4.750 -15.094  0.00  0.00    +0.000 OA
ATOM     22  H   UNL     1       4.087   2.691 -15.342  0.00  0.00    +0.000 HD
BRANCH  20  23
ATOM     23  C   UNL     1       3.779   5.160 -16.118  0.00  0.00    +0.000 A 
ATOM     24  C   UNL     1       3.456   6.480 -16.418  0.00  0.00    +0.000 A 
ATOM     25  S   UNL     1       4.666   7.312 -17.283  0.00  0.00    +0.000 S 
ATOM     26  C   UNL     1       5.666   5.940 -17.305  0.00  0.00    +0.000 A 
ATOM     27  N   UNL     1       6.869   5.970 -17.945  0.00  0.00    +0.000 NA
ATOM     28  C   UNL     1       7.522   4.854 -17.900  0.00  0.00    +0.000 A 
ATOM     29  N   UNL     1       7.096   3.726 -17.256  0.00  0.00    +0.000 N 
ATOM     30  C   UNL     1       5.911   3.666 -16.562  0.00  0.00    +0.000 A 
ATOM     31  O   UNL     1       5.587   2.658 -15.938  0.00  0.00    +0.000 OA
ATOM     32  C   UNL     1       5.104   4.873 -16.626  0.00  0.00    +0.000 A 
ATOM     33  H   UNL     1       7.667   2.898 -17.234  0.00  0.00    +0.000 HD
ENDBRANCH  20  23
ENDBRANCH   1  19
BRANCH   1  35
ATOM     34  N   UNL     1       0.653   0.871 -16.110  0.00  0.00    +0.000 NA
ATOM     35  C   UNL     1       1.341   1.454 -15.376  0.00  0.00    +0.000 C 
ENDBRANCH   1  35
TORSDOF 7
