REMARK  Name = 
REMARK  5 active torsions:
REMARK  status: ('A' for Active; 'I' for Inactive)
REMARK    1  A    between atoms: N_1  and  C_2
REMARK    2  A    between atoms: C_2  and  C_3
REMARK    3  A    between atoms: C_3  and  C_4
REMARK    4  A    between atoms: C_8  and  C_9
REMARK    5  A    between atoms: C_9  and  N_10
REMARK                            x       y       z     vdW  Elec       q    Type
REMARK                         _______ _______ _______ _____ _____    ______ ____
ROOT
ATOM      1  C   UNL     1       4.335   1.189  -0.851  0.00  0.00    +0.000 A 
ATOM      2  C   UNL     1       4.986   2.422  -0.976  0.00  0.00    +0.000 A 
ATOM      3  C   UNL     1       6.377   2.494  -0.921  0.00  0.00    +0.000 A 
ATOM      4  C   UNL     1       7.132   1.337  -0.730  0.00  0.00    +0.000 A 
ATOM      5  C   UNL     1       6.502   0.092  -0.599  0.00  0.00    +0.000 A 
ATOM      6  C   UNL     1       5.101   0.028  -0.680  0.00  0.00    +0.000 A 
ENDROOT
BRANCH   1   7
ATOM      7  C   UNL     1       2.827   1.110  -0.885  0.00  0.00    +0.000 C 
BRANCH   7   8
ATOM      8  C   UNL     1       2.280   1.003  -2.312  0.00  0.00    +0.000 C 
BRANCH   8   9
ATOM      9  N   UNL     1       0.819   0.933  -2.302  0.00  0.00    +0.000 NA
ATOM     10  H   UNL     1       0.476   0.905  -3.263  0.00  0.00    +0.000 HD
ATOM     11  H   UNL     1       0.435   1.780  -1.888  0.00  0.00    +0.000 HD
ENDBRANCH   8   9
ENDBRANCH   7   8
ENDBRANCH   1   7
BRANCH   5  12
ATOM     12  C   UNL     1       7.307  -1.152  -0.327  0.00  0.00    +0.000 C 
BRANCH  12  13
ATOM     13  N   UNL     1       7.424  -1.412   1.099  0.00  0.00    +0.000 N 
ATOM     14  C   UNL     1       6.519  -2.124   1.840  0.00  0.00    +0.000 A 
ATOM     15  N   UNL     1       6.930  -2.302   3.075  0.00  0.00    +0.000 NA
ATOM     16  C   UNL     1       8.149  -1.668   3.144  0.00  0.00    +0.000 A 
ATOM     17  C   UNL     1       9.044  -1.546   4.211  0.00  0.00    +0.000 A 
ATOM     18  N   UNL     1      10.213  -0.867   4.055  0.00  0.00    +0.000 NA
ATOM     19  C   UNL     1      10.484  -0.309   2.853  0.00  0.00    +0.000 A 
ATOM     20  C   UNL     1       9.664  -0.377   1.733  0.00  0.00    +0.000 A 
ATOM     21  C   UNL     1       8.479  -1.088   1.918  0.00  0.00    +0.000 A 
ENDBRANCH  12  13
ENDBRANCH   5  12
TORSDOF 5
