REMARK  Name = 
REMARK  5 active torsions:
REMARK  status: ('A' for Active; 'I' for Inactive)
REMARK    1  A    between atoms: C_2  and  C_4
REMARK    2  A    between atoms: C_7  and  C_8
REMARK    3  A    between atoms: C_8  and  C_9
REMARK    4  A    between atoms: C_9  and  N_10
REMARK    5  A    between atoms: C_9  and  C_11
REMARK                            x       y       z     vdW  Elec       q    Type
REMARK                         _______ _______ _______ _____ _____    ______ ____
ROOT
ATOM      1  C   UNL     1       5.229  -5.766   1.257  0.00  0.00    +0.000 C 
ENDROOT
BRANCH   1   2
ATOM      2  C   UNL     1       6.118  -6.849   1.845  0.00  0.00    +0.000 A 
ATOM      3  C   UNL     1       5.633  -7.815   2.715  0.00  0.00    +0.000 A 
ATOM      4  S   UNL     1       6.823  -8.918   3.243  0.00  0.00    +0.000 S 
ATOM      5  C   UNL     1       8.029  -8.150   2.320  0.00  0.00    +0.000 A 
ATOM      6  N   UNL     1       9.312  -8.604   2.330  0.00  0.00    +0.000 NA
ATOM      7  C   UNL     1      10.119  -7.931   1.579  0.00  0.00    +0.000 A 
ATOM      8  N   UNL     1       9.760  -6.846   0.819  0.00  0.00    +0.000 N 
ATOM      9  C   UNL     1       8.467  -6.373   0.746  0.00  0.00    +0.000 A 
ATOM     10  O   UNL     1       8.167  -5.446   0.002  0.00  0.00    +0.000 OA
ATOM     11  C   UNL     1       7.528  -7.077   1.606  0.00  0.00    +0.000 A 
ATOM     12  H   UNL     1      10.438  -6.379   0.239  0.00  0.00    +0.000 HD
ENDBRANCH   1   2
BRANCH   1  13
ATOM     13  N   UNL     1       5.194  -5.964  -0.194  0.00  0.00    +0.000 NA
ATOM     14  H   UNL     1       6.120  -5.724  -0.563  0.00  0.00    +0.000 HD
ATOM     15  H   UNL     1       4.571  -5.268  -0.602  0.00  0.00    +0.000 HD
ENDBRANCH   1  13
BRANCH   1  16
ATOM     16  C   UNL     1       5.619  -4.333   1.693  0.00  0.00    +0.000 C 
BRANCH  16  20
ATOM     17  C   UNL     1       3.156  -1.012   0.351  0.00  0.00    +0.000 A 
ATOM     18  C   UNL     1       2.556  -2.241   0.644  0.00  0.00    +0.000 A 
ATOM     19  C   UNL     1       3.335  -3.320   1.085  0.00  0.00    +0.000 A 
ATOM     20  C   UNL     1       4.726  -3.196   1.215  0.00  0.00    +0.000 A 
ATOM     21  C   UNL     1       5.312  -1.950   0.937  0.00  0.00    +0.000 A 
ATOM     22  C   UNL     1       4.538  -0.872   0.500  0.00  0.00    +0.000 A 
BRANCH  17  24
ATOM     23  N   UNL     1       1.055   0.221   0.201  0.00  0.00    +0.000 N 
ATOM     24  C   UNL     1       2.376   0.154  -0.143  0.00  0.00    +0.000 C 
ATOM     25  O   UNL     1       2.897   1.043  -0.804  0.00  0.00    +0.000 OA
ATOM     26  H   UNL     1       0.571   1.072  -0.055  0.00  0.00    +0.000 HD
ATOM     27  H   UNL     1       0.661  -0.338   0.944  0.00  0.00    +0.000 HD
ENDBRANCH  17  24
ENDBRANCH  16  20
ENDBRANCH   1  16
TORSDOF 5
