REMARK  Name = 
REMARK  12 active torsions:
REMARK  status: ('A' for Active; 'I' for Inactive)
REMARK    1  A    between atoms: N_1  and  C_2
REMARK    2  A    between atoms: C_2  and  C_3
REMARK    3  A    between atoms: C_3  and  N_4
REMARK    4  A    between atoms: N_4  and  C_5
REMARK    5  A    between atoms: C_5  and  C_6
REMARK    6  A    between atoms: C_6  and  N_7
REMARK    7  A    between atoms: C_6  and  C_29
REMARK    8  A    between atoms: N_7  and  C_8
REMARK    9  A    between atoms: C_8  and  C_9
REMARK   10  A    between atoms: C_12  and  C_13
REMARK   11  A    between atoms: C_13  and  N_14
REMARK   12  A    between atoms: C_15  and  C_17
REMARK                            x       y       z     vdW  Elec       q    Type
REMARK                         _______ _______ _______ _____ _____    ______ ____
ROOT
ATOM      1  C   UNL     1       7.086   2.147   1.251  0.00  0.00    +0.000 A 
ATOM      2  C   UNL     1       8.422   2.457   1.486  0.00  0.00    +0.000 A 
ATOM      3  C   UNL     1       8.799   3.794   1.599  0.00  0.00    +0.000 A 
ATOM      4  C   UNL     1       7.835   4.796   1.466  0.00  0.00    +0.000 A 
ATOM      5  C   UNL     1       6.538   4.397   1.170  0.00  0.00    +0.000 A 
ATOM      6  N   UNL     1       6.145   3.110   1.060  0.00  0.00    +0.000 NA
ENDROOT
BRANCH   1   7
ATOM      7  C   UNL     1       6.622   0.699   1.188  0.00  0.00    +0.000 C 
BRANCH   7   8
ATOM      8  N   UNL     1       6.902  -0.039   2.434  0.00  0.00    +0.000 NA
ATOM      9  H   UNL     1       7.908  -0.069   2.582  0.00  0.00    +0.000 HD
BRANCH   8  10
ATOM     10  C   UNL     1       6.432  -1.445   2.400  0.00  0.00    +0.000 C 
BRANCH  10  11
ATOM     11  C   UNL     1       4.926  -1.580   2.169  0.00  0.00    +0.000 A 
ATOM     12  C   UNL     1       4.036  -1.437   3.227  0.00  0.00    +0.000 A 
ATOM     13  C   UNL     1       2.670  -1.524   2.968  0.00  0.00    +0.000 A 
ATOM     14  C   UNL     1       2.230  -1.731   1.665  0.00  0.00    +0.000 A 
ATOM     15  C   UNL     1       3.178  -1.849   0.667  0.00  0.00    +0.000 A 
ATOM     16  N   UNL     1       4.504  -1.783   0.891  0.00  0.00    +0.000 NA
ENDBRANCH  10  11
BRANCH  10  17
ATOM     17  C   UNL     1       7.198  -2.353   1.392  0.00  0.00    +0.000 C 
BRANCH  17  18
ATOM     18  N   UNL     1       8.674  -2.305   1.510  0.00  0.00    +0.000 NA
ATOM     19  H   UNL     1       8.963  -1.363   1.231  0.00  0.00    +0.000 HD
BRANCH  18  20
ATOM     20  C   UNL     1       9.277  -3.199   0.497  0.00  0.00    +0.000 C 
BRANCH  20  21
ATOM     21  C   UNL     1       9.091  -2.674  -0.945  0.00  0.00    +0.000 C 
BRANCH  21  22
ATOM     22  N   UNL     1       9.479  -1.260  -1.039  0.00  0.00    +0.000 NA
ATOM     23  H   UNL     1       9.268  -0.922  -1.978  0.00  0.00    +0.000 HD
ATOM     24  H   UNL     1      10.491  -1.193  -0.932  0.00  0.00    +0.000 HD
ENDBRANCH  21  22
ENDBRANCH  20  21
ENDBRANCH  18  20
ENDBRANCH  17  18
ENDBRANCH  10  17
ENDBRANCH   8  10
ENDBRANCH   7   8
ENDBRANCH   1   7
BRANCH   4  25
ATOM     25  C   UNL     1       8.171   6.249   1.604  0.00  0.00    +0.000 C 
BRANCH  25  26
ATOM     26  N   UNL     1       8.555   6.820   0.339  0.00  0.00    +0.000 N 
ATOM     27  C   UNL     1       8.962   8.126   0.250  0.00  0.00    +0.000 C 
ATOM     28  O   UNL     1       9.054   8.847   1.240  0.00  0.00    +0.000 OA
ATOM     29  H   UNL     1       8.269   6.328  -0.502  0.00  0.00    +0.000 HD
BRANCH  27  30
ATOM     30  C   UNL     1       9.344   8.602  -1.084  0.00  0.00    +0.000 A 
ATOM     31  C   UNL     1      10.216   9.676  -1.204  0.00  0.00    +0.000 A 
ATOM     32  S   UNL     1      10.593  10.073  -2.819  0.00  0.00    +0.000 S 
ATOM     33  C   UNL     1       9.566   8.853  -3.416  0.00  0.00    +0.000 A 
ATOM     34  N   UNL     1       9.409   8.665  -4.753  0.00  0.00    +0.000 NA
ATOM     35  C   UNL     1       8.581   7.724  -5.065  0.00  0.00    +0.000 A 
ATOM     36  N   UNL     1       7.902   6.949  -4.160  0.00  0.00    +0.000 N 
ATOM     37  C   UNL     1       8.056   7.081  -2.799  0.00  0.00    +0.000 A 
ATOM     38  O   UNL     1       7.477   6.338  -2.017  0.00  0.00    +0.000 OA
ATOM     39  C   UNL     1       8.963   8.139  -2.397  0.00  0.00    +0.000 A 
ATOM     40  H   UNL     1       7.278   6.216  -4.471  0.00  0.00    +0.000 HD
ENDBRANCH  27  30
ENDBRANCH  25  26
ENDBRANCH   4  25
TORSDOF 12
