REMARK  Name = 
REMARK  5 active torsions:
REMARK  status: ('A' for Active; 'I' for Inactive)
REMARK    1  A    between atoms: C_2  and  C_17
REMARK    2  A    between atoms: N_3  and  C_4
REMARK    3  A    between atoms: C_4  and  C_5
REMARK    4  A    between atoms: C_8  and  C_9
REMARK    5  A    between atoms: C_9  and  C_10
REMARK                            x       y       z     vdW  Elec       q    Type
REMARK                         _______ _______ _______ _____ _____    ______ ____
ROOT
ATOM      1  O   UNL     1       2.508   1.151  10.900  0.00  0.00    +0.000 OA
ATOM      2  C   UNL     1       3.489   1.084  11.631  0.00  0.00    +0.000 C 
ATOM      3  N   UNL     1       4.151   2.192  12.094  0.00  0.00    +0.000 N 
ATOM      4  H   UNL     1       5.075   2.088  12.500  0.00  0.00    +0.000 HD
ENDROOT
BRANCH   2   5
ATOM      5  C   UNL     1       4.002  -0.199  12.100  0.00  0.00    +0.000 A 
ATOM      6  C   UNL     1       3.160  -1.292  12.255  0.00  0.00    +0.000 A 
ATOM      7  S   UNL     1       3.980  -2.703  12.758  0.00  0.00    +0.000 S 
ATOM      8  C   UNL     1       5.481  -1.897  12.765  0.00  0.00    +0.000 A 
ATOM      9  N   UNL     1       6.634  -2.547  13.072  0.00  0.00    +0.000 NA
ATOM     10  C   UNL     1       7.692  -1.813  13.006  0.00  0.00    +0.000 A 
ATOM     11  N   UNL     1       7.706  -0.478  12.675  0.00  0.00    +0.000 N 
ATOM     12  C   UNL     1       6.563   0.238  12.439  0.00  0.00    +0.000 A 
ATOM     13  O   UNL     1       6.602   1.453  12.313  0.00  0.00    +0.000 OA
ATOM     14  C   UNL     1       5.354  -0.563  12.434  0.00  0.00    +0.000 A 
ATOM     15  H   UNL     1       8.561   0.055  12.690  0.00  0.00    +0.000 HD
ENDBRANCH   2   5
BRANCH   3  16
ATOM     16  C   UNL     1       3.773   3.519  11.694  0.00  0.00    +0.000 C 
BRANCH  16  17
ATOM     17  C   UNL     1       4.486   3.969  10.454  0.00  0.00    +0.000 A 
ATOM     18  C   UNL     1       3.958   3.697   9.193  0.00  0.00    +0.000 A 
ATOM     19  C   UNL     1       4.594   4.176   8.050  0.00  0.00    +0.000 A 
ATOM     20  C   UNL     1       5.743   4.950   8.192  0.00  0.00    +0.000 A 
ATOM     21  N   UNL     1       6.303   5.184   9.405  0.00  0.00    +0.000 NA
ATOM     22  C   UNL     1       5.677   4.681  10.498  0.00  0.00    +0.000 A 
BRANCH  20  23
ATOM     23  C   UNL     1       6.379   5.637   6.998  0.00  0.00    +0.000 C 
BRANCH  23  24
ATOM     24  C   UNL     1       5.433   6.643   6.298  0.00  0.00    +0.000 C 
ATOM     25  C   UNL     1       4.967   7.779   7.203  0.00  0.00    +0.000 C 
ATOM     26  C   UNL     1       6.073   8.806   7.080  0.00  0.00    +0.000 C 
ATOM     27  C   UNL     1       6.571   8.644   5.655  0.00  0.00    +0.000 C 
ATOM     28  N   UNL     1       6.051   7.363   5.168  0.00  0.00    +0.000 NA
ATOM     29  H   UNL     1       6.775   6.820   4.703  0.00  0.00    +0.000 HD
ENDBRANCH  23  24
ENDBRANCH  20  23
ENDBRANCH  16  17
ENDBRANCH   3  16
TORSDOF 5
