REMARK  Name = 
REMARK  12 active torsions:
REMARK  status: ('A' for Active; 'I' for Inactive)
REMARK    1  A    between atoms: C_1  and  O_2
REMARK    2  A    between atoms: O_2  and  C_3
REMARK    3  A    between atoms: C_5  and  C_6
REMARK    4  A    between atoms: C_6  and  N_7
REMARK    5  A    between atoms: N_7  and  C_8
REMARK    6  A    between atoms: C_8  and  C_9
REMARK    7  A    between atoms: C_12  and  C_13
REMARK    8  A    between atoms: C_13  and  N_14
REMARK    9  A    between atoms: C_15  and  C_16
REMARK   10  A    between atoms: C_22  and  C_23
REMARK   11  A    between atoms: C_23  and  N_24
REMARK   12  A    between atoms: C_25  and  C_27
REMARK                            x       y       z     vdW  Elec       q    Type
REMARK                         _______ _______ _______ _____ _____    ______ ____
ROOT
ATOM      1  C   UNL     1       3.008  -0.506   1.053  0.00  0.00    +0.000 A 
ATOM      2  C   UNL     1       2.695  -1.803   1.484  0.00  0.00    +0.000 A 
ATOM      3  C   UNL     1       3.536  -2.494   2.372  0.00  0.00    +0.000 A 
ATOM      4  C   UNL     1       4.713  -1.873   2.808  0.00  0.00    +0.000 A 
ATOM      5  C   UNL     1       5.025  -0.579   2.394  0.00  0.00    +0.000 A 
ATOM      6  C   UNL     1       4.181   0.119   1.514  0.00  0.00    +0.000 A 
ENDROOT
BRANCH   1   8
ATOM      7  C   UNL     1       0.901  -0.183  -0.017  0.00  0.00    +0.000 C 
ATOM      8  O   UNL     1       2.253   0.215   0.165  0.00  0.00    +0.000 OA
ENDBRANCH   1   8
BRANCH   3   9
ATOM      9  C   UNL     1       3.185  -3.885   2.856  0.00  0.00    +0.000 C 
BRANCH   9  10
ATOM     10  N   UNL     1       3.058  -3.904   4.313  0.00  0.00    +0.000 NA
ATOM     11  H   UNL     1       2.334  -3.242   4.589  0.00  0.00    +0.000 HD
BRANCH  10  12
ATOM     12  C   UNL     1       2.718  -5.231   4.817  0.00  0.00    +0.000 C 
BRANCH  12  13
ATOM     13  C   UNL     1       2.572  -5.214   6.317  0.00  0.00    +0.000 A 
ATOM     14  C   UNL     1       1.367  -5.536   6.945  0.00  0.00    +0.000 A 
ATOM     15  C   UNL     1       1.281  -5.510   8.337  0.00  0.00    +0.000 A 
ATOM     16  C   UNL     1       2.409  -5.176   9.082  0.00  0.00    +0.000 A 
ATOM     17  N   UNL     1       3.589  -4.845   8.497  0.00  0.00    +0.000 NA
ATOM     18  C   UNL     1       3.642  -4.877   7.141  0.00  0.00    +0.000 A 
BRANCH  16  19
ATOM     19  C   UNL     1       2.360  -5.190  10.593  0.00  0.00    +0.000 C 
BRANCH  19  20
ATOM     20  N   UNL     1       2.048  -3.898  11.172  0.00  0.00    +0.000 N 
ATOM     21  C   UNL     1       0.764  -3.534  11.486  0.00  0.00    +0.000 C 
ATOM     22  C   UNL     1       0.634  -2.175  12.124  0.00  0.00    +0.000 C 
ATOM     23  O   UNL     1      -0.211  -4.253  11.291  0.00  0.00    +0.000 OA
ATOM     24  H   UNL     1       2.797  -3.219  11.210  0.00  0.00    +0.000 HD
ENDBRANCH  19  20
ENDBRANCH  16  19
ENDBRANCH  12  13
ENDBRANCH  10  12
ENDBRANCH   9  10
ENDBRANCH   3   9
BRANCH   6  25
ATOM     25  C   UNL     1       4.511   1.553   1.173  0.00  0.00    +0.000 C 
BRANCH  25  26
ATOM     26  N   UNL     1       3.893   2.457   2.116  0.00  0.00    +0.000 N 
ATOM     27  C   UNL     1       4.048   3.815   2.032  0.00  0.00    +0.000 C 
ATOM     28  O   UNL     1       4.690   4.348   1.132  0.00  0.00    +0.000 OA
ATOM     29  H   UNL     1       3.499   2.046   2.954  0.00  0.00    +0.000 HD
BRANCH  27  30
ATOM     30  C   UNL     1       3.342   4.610   3.045  0.00  0.00    +0.000 A 
ATOM     31  C   UNL     1       2.969   5.917   2.763  0.00  0.00    +0.000 A 
ATOM     32  S   UNL     1       2.094   6.665   4.021  0.00  0.00    +0.000 S 
ATOM     33  C   UNL     1       2.227   5.285   5.011  0.00  0.00    +0.000 A 
ATOM     34  N   UNL     1       1.685   5.261   6.256  0.00  0.00    +0.000 NA
ATOM     35  C   UNL     1       1.895   4.166   6.907  0.00  0.00    +0.000 A 
ATOM     36  N   UNL     1       2.601   3.094   6.428  0.00  0.00    +0.000 N 
ATOM     37  C   UNL     1       3.150   3.064   5.166  0.00  0.00    +0.000 A 
ATOM     38  O   UNL     1       3.750   2.078   4.756  0.00  0.00    +0.000 OA
ATOM     39  C   UNL     1       2.935   4.270   4.388  0.00  0.00    +0.000 A 
ATOM     40  H   UNL     1       2.731   2.266   6.988  0.00  0.00    +0.000 HD
ENDBRANCH  27  30
ENDBRANCH  25  26
ENDBRANCH   6  25
TORSDOF 10
