REMARK  Name = 
REMARK  9 active torsions:
REMARK  status: ('A' for Active; 'I' for Inactive)
REMARK    1  A    between atoms: C_1  and  O_2
REMARK    2  A    between atoms: O_2  and  C_3
REMARK    3  A    between atoms: C_10  and  C_11
REMARK    4  A    between atoms: N_13  and  C_14
REMARK    5  A    between atoms: C_14  and  C_15
REMARK    6  A    between atoms: C_18  and  C_19
REMARK    7  A    between atoms: C_19  and  N_20
REMARK    8  A    between atoms: N_20  and  C_21
REMARK    9  A    between atoms: C_21  and  C_22
REMARK                            x       y       z     vdW  Elec       q    Type
REMARK                         _______ _______ _______ _____ _____    ______ ____
ROOT
ATOM      1  C   UNL     1       1.892  -0.792   3.375  0.00  0.00    +0.000 A 
ATOM      2  C   UNL     1       0.664  -1.327   3.786  0.00  0.00    +0.000 A 
ATOM      3  C   UNL     1      -0.395  -0.486   4.141  0.00  0.00    +0.000 A 
ATOM      4  C   UNL     1      -0.254   0.909   4.089  0.00  0.00    +0.000 A 
ATOM      5  C   UNL     1       0.965   1.442   3.651  0.00  0.00    +0.000 A 
ATOM      6  C   UNL     1       2.025   0.601   3.293  0.00  0.00    +0.000 A 
ENDROOT
BRANCH   1   7
ATOM      7  C   UNL     1       3.031  -1.695   2.973  0.00  0.00    +0.000 C 
BRANCH   7  10
ATOM      8  C   UNL     1       3.868  -2.829   0.954  0.00  0.00    +0.000 C 
ATOM      9  O   UNL     1       4.783  -3.356   1.584  0.00  0.00    +0.000 OA
ATOM     10  N   UNL     1       2.972  -1.998   1.566  0.00  0.00    +0.000 N 
ATOM     11  H   UNL     1       2.256  -1.537   1.023  0.00  0.00    +0.000 HD
BRANCH   8  19
ATOM     12  C   UNL     1       1.526  -1.797  -1.352  0.00  0.00    +0.000 A 
ATOM     13  N   UNL     1       0.768  -1.550  -2.438  0.00  0.00    +0.000 NA
ATOM     14  C   UNL     1       1.130  -2.107  -3.597  0.00  0.00    +0.000 A 
ATOM     15  N   UNL     1       2.178  -2.897  -3.812  0.00  0.00    +0.000 NA
ATOM     16  C   UNL     1       2.911  -3.112  -2.706  0.00  0.00    +0.000 A 
ATOM     17  S   UNL     1       4.289  -4.098  -2.796  0.00  0.00    +0.000 S 
ATOM     18  C   UNL     1       4.611  -3.884  -1.141  0.00  0.00    +0.000 A 
ATOM     19  C   UNL     1       3.691  -3.070  -0.490  0.00  0.00    +0.000 A 
ATOM     20  C   UNL     1       2.674  -2.607  -1.431  0.00  0.00    +0.000 A 
BRANCH  12  22
ATOM     21  C   UNL     1      -0.206  -0.844  -0.098  0.00  0.00    +0.000 C 
ATOM     22  O   UNL     1       1.175  -1.190  -0.165  0.00  0.00    +0.000 OA
ENDBRANCH  12  22
ENDBRANCH   8  19
ENDBRANCH   7  10
ENDBRANCH   1   7
BRANCH   4  23
ATOM     23  C   UNL     1      -1.399   1.815   4.487  0.00  0.00    +0.000 C 
BRANCH  23  24
ATOM     24  N   UNL     1      -1.787   1.588   5.879  0.00  0.00    +0.000 NA
ATOM     25  H   UNL     1      -0.972   1.738   6.474  0.00  0.00    +0.000 HD
BRANCH  24  26
ATOM     26  C   UNL     1      -2.864   2.482   6.295  0.00  0.00    +0.000 C 
BRANCH  26  27
ATOM     27  C   UNL     1      -3.263   2.214   7.723  0.00  0.00    +0.000 A 
ATOM     28  C   UNL     1      -3.208   3.212   8.693  0.00  0.00    +0.000 A 
ATOM     29  N   UNL     1      -3.557   3.034   9.989  0.00  0.00    +0.000 NA
ATOM     30  C   UNL     1      -3.980   1.795  10.338  0.00  0.00    +0.000 A 
ATOM     31  C   UNL     1      -4.077   0.735   9.451  0.00  0.00    +0.000 A 
ATOM     32 CL   UNL     1      -4.625  -0.806   9.971  0.00  0.00    +0.000 Cl
ATOM     33  C   UNL     1      -3.717   0.949   8.125  0.00  0.00    +0.000 A 
ENDBRANCH  26  27
ENDBRANCH  24  26
ENDBRANCH  23  24
ENDBRANCH   4  23
TORSDOF 8
