REMARK  Name = 
REMARK  9 active torsions:
REMARK  status: ('A' for Active; 'I' for Inactive)
REMARK    1  A    between atoms: N_1  and  C_2
REMARK    2  A    between atoms: C_2  and  C_3
REMARK    3  A    between atoms: C_6  and  O_7
REMARK    4  A    between atoms: O_7  and  C_8
REMARK    5  A    between atoms: C_8  and  C_9
REMARK    6  A    between atoms: C_9  and  O_10
REMARK    7  A    between atoms: C_9  and  C_11
REMARK    8  A    between atoms: C_14  and  C_15
REMARK    9  A    between atoms: C_15  and  O_17
REMARK                            x       y       z     vdW  Elec       q    Type
REMARK                         _______ _______ _______ _____ _____    ______ ____
ROOT
ATOM      1  C   UNL     1       4.424  -4.636   6.155  0.00  0.00    +0.000 C 
ENDROOT
BRANCH   1   2
ATOM      2  C   UNL     1       5.561  -5.521   5.687  0.00  0.00    +0.000 A 
ATOM      3  C   UNL     1       5.496  -6.237   4.479  0.00  0.00    +0.000 A 
ATOM      4  C   UNL     1       6.572  -7.020   4.049  0.00  0.00    +0.000 A 
ATOM      5  C   UNL     1       7.733  -7.114   4.829  0.00  0.00    +0.000 A 
ATOM      6  C   UNL     1       7.784  -6.424   6.035  0.00  0.00    +0.000 A 
ATOM      7  F   UNL     1       8.874  -6.494   6.815  0.00  0.00    +0.000 F 
ATOM      8  C   UNL     1       6.717  -5.637   6.467  0.00  0.00    +0.000 A 
BRANCH   5   9
ATOM      9  C   UNL     1       8.860  -7.939   4.323  0.00  0.00    +0.000 C 
ATOM     10  O   UNL     1       8.803  -8.526   3.254  0.00  0.00    +0.000 OA
BRANCH   9  11
ATOM     11  O   UNL     1       9.951  -7.994   5.114  0.00  0.00    +0.000 OA
ATOM     12  H   UNL     1       9.895  -7.490   5.952  0.00  0.00    +0.000 HD
ENDBRANCH   9  11
ENDBRANCH   5   9
ENDBRANCH   1   2
BRANCH   1  13
ATOM     13  O   UNL     1       3.256  -5.433   6.334  0.00  0.00    +0.000 OA
ATOM     14  H   UNL     1       2.856  -5.541   5.453  0.00  0.00    +0.000 HD
ENDBRANCH   1  13
BRANCH   1  15
ATOM     15  C   UNL     1       4.152  -3.424   5.241  0.00  0.00    +0.000 C 
BRANCH  15  16
ATOM     16  O   UNL     1       3.658  -3.845   3.965  0.00  0.00    +0.000 OA
BRANCH  16  20
ATOM     17  C   UNL     1       2.779  -0.982   1.040  0.00  0.00    +0.000 A 
ATOM     18  C   UNL     1       3.235  -0.558   2.295  0.00  0.00    +0.000 A 
ATOM     19  C   UNL     1       3.556  -1.483   3.292  0.00  0.00    +0.000 A 
ATOM     20  C   UNL     1       3.420  -2.851   3.054  0.00  0.00    +0.000 A 
ATOM     21  C   UNL     1       2.987  -3.282   1.797  0.00  0.00    +0.000 A 
ATOM     22  C   UNL     1       2.667  -2.357   0.797  0.00  0.00    +0.000 A 
BRANCH  17  23
ATOM     23  C   UNL     1       2.380   0.029  -0.004  0.00  0.00    +0.000 C 
BRANCH  23  24
ATOM     24  N   UNL     1       3.476   0.936  -0.321  0.00  0.00    +0.000 NA
ATOM     25  H   UNL     1       3.205   1.523  -1.107  0.00  0.00    +0.000 HD
ATOM     26  H   UNL     1       4.275   0.387  -0.633  0.00  0.00    +0.000 HD
ENDBRANCH  23  24
ENDBRANCH  17  23
ENDBRANCH  16  20
ENDBRANCH  15  16
ENDBRANCH   1  15
TORSDOF 9
