REMARK  Name = 
REMARK  6 active torsions:
REMARK  status: ('A' for Active; 'I' for Inactive)
REMARK    1  A    between atoms: C_2  and  C_4
REMARK    2  A    between atoms: C_7  and  N_8
REMARK    3  A    between atoms: N_8  and  C_9
REMARK    4  A    between atoms: C_9  and  C_10
REMARK    5  A    between atoms: C_10  and  C_13
REMARK    6  A    between atoms: N_18  and  C_19
REMARK                            x       y       z     vdW  Elec       q    Type
REMARK                         _______ _______ _______ _____ _____    ______ ____
ROOT
ATOM      1  C   UNL     1       5.844   1.086   7.268  0.00  0.00    +0.000 C 
ATOM      2  F   UNL     1       7.114   0.766   6.868  0.00  0.00    +0.000 F 
ATOM      3  F   UNL     1       5.818   2.453   7.303  0.00  0.00    +0.000 F 
ENDROOT
BRANCH   1   4
ATOM      4  C   UNL     1       5.509   0.495   8.619  0.00  0.00    +0.000 A 
ATOM      5  C   UNL     1       6.074  -0.698   9.065  0.00  0.00    +0.000 A 
ATOM      6  C   UNL     1       5.684  -1.186  10.302  0.00  0.00    +0.000 A 
ATOM      7  N   UNL     1       4.770  -0.585  11.103  0.00  0.00    +0.000 NA
ATOM      8  C   UNL     1       4.249   0.583  10.687  0.00  0.00    +0.000 A 
ATOM      9  N   UNL     1       3.291   1.264  11.463  0.00  0.00    +0.000 N 
ATOM     10  C   UNL     1       4.599   1.147   9.462  0.00  0.00    +0.000 A 
ATOM     11  H   UNL     1       3.632   2.203  11.659  0.00  0.00    +0.000 HD
BRANCH   9  12
ATOM     12  C   UNL     1       2.576   0.671  12.562  0.00  0.00    +0.000 C 
ATOM     13  C   UNL     1       1.789   1.715  13.369  0.00  0.00    +0.000 C 
ATOM     14  O   UNL     1       2.472   1.354  14.592  0.00  0.00    +0.000 OA
ATOM     15  C   UNL     1       3.353   0.459  13.864  0.00  0.00    +0.000 C 
ENDBRANCH   9  12
ENDBRANCH   1   4
BRANCH   1  16
ATOM     16  C   UNL     1       4.861   0.602   6.159  0.00  0.00    +0.000 C 
BRANCH  16  17
ATOM     17  N   UNL     1       5.149   1.223   4.847  0.00  0.00    +0.000 N 
ATOM     18  H   UNL     1       6.150   1.299   4.664  0.00  0.00    +0.000 HD
BRANCH  17  22
ATOM     19  C   UNL     1       2.946   0.555   1.382  0.00  0.00    +0.000 A 
ATOM     20  C   UNL     1       2.332   0.285   2.596  0.00  0.00    +0.000 A 
ATOM     21  C   UNL     1       3.068   0.471   3.769  0.00  0.00    +0.000 A 
ATOM     22  C   UNL     1       4.392   0.912   3.719  0.00  0.00    +0.000 A 
ATOM     23  C   UNL     1       4.891   1.183   2.437  0.00  0.00    +0.000 A 
ATOM     24  N   UNL     1       4.223   1.000   1.269  0.00  0.00    +0.000 NA
BRANCH  19  26
ATOM     25  N   UNL     1       2.888   0.611  -1.042  0.00  0.00    +0.000 N 
ATOM     26  C   UNL     1       2.181   0.374   0.106  0.00  0.00    +0.000 C 
ATOM     27  O   UNL     1       1.003   0.034   0.082  0.00  0.00    +0.000 OA
ATOM     28  H   UNL     1       2.431   0.522  -1.938  0.00  0.00    +0.000 HD
ATOM     29  H   UNL     1       3.858   0.897  -0.979  0.00  0.00    +0.000 HD
ENDBRANCH  19  26
ENDBRANCH  17  22
ENDBRANCH  16  17
ENDBRANCH   1  16
TORSDOF 6
