REMARK  Name = 
REMARK  5 active torsions:
REMARK  status: ('A' for Active; 'I' for Inactive)
REMARK    1  A    between atoms: N_1  and  C_2
REMARK    2  A    between atoms: C_2  and  C_3
REMARK    3  A    between atoms: C_3  and  C_4
REMARK    4  A    between atoms: C_7  and  C_8
REMARK    5  A    between atoms: C_8  and  N_9
REMARK                            x       y       z     vdW  Elec       q    Type
REMARK                         _______ _______ _______ _____ _____    ______ ____
ROOT
ATOM      1  C   UNL     1       4.592  -1.433  -0.383  0.00  0.00    +0.000 A 
ATOM      2  C   UNL     1       5.348  -2.494  -0.885  0.00  0.00    +0.000 A 
ATOM      3  C   UNL     1       6.740  -2.423  -0.926  0.00  0.00    +0.000 A 
ATOM      4  C   UNL     1       7.418  -1.271  -0.511  0.00  0.00    +0.000 A 
ATOM      5  C   UNL     1       6.663  -0.193  -0.029  0.00  0.00    +0.000 A 
ATOM      6  C   UNL     1       5.264  -0.277   0.033  0.00  0.00    +0.000 A 
ENDROOT
BRANCH   1   7
ATOM      7  C   UNL     1       3.078  -1.480  -0.382  0.00  0.00    +0.000 C 
BRANCH   7   8
ATOM      8  C   UNL     1       2.481  -2.638   0.431  0.00  0.00    +0.000 C 
BRANCH   8   9
ATOM      9  N   UNL     1       1.018  -2.607   0.386  0.00  0.00    +0.000 NA
ATOM     10  H   UNL     1       0.645  -3.402   0.906  0.00  0.00    +0.000 HD
ATOM     11  H   UNL     1       0.701  -2.724  -0.576  0.00  0.00    +0.000 HD
ENDBRANCH   8   9
ENDBRANCH   7   8
ENDBRANCH   1   7
BRANCH   4  12
ATOM     12  C   UNL     1       8.924  -1.191  -0.548  0.00  0.00    +0.000 C 
BRANCH  12  13
ATOM     13  N   UNL     1       9.448  -0.613  -1.783  0.00  0.00    +0.000 N 
ATOM     14  C   UNL     1       9.329  -1.211  -3.017  0.00  0.00    +0.000 A 
ATOM     15  C   UNL     1      10.000  -0.436  -3.932  0.00  0.00    +0.000 A 
ATOM     16  C   UNL     1      10.824   0.442  -3.186  0.00  0.00    +0.000 A 
ATOM     17  C   UNL     1      11.946   1.226  -3.512  0.00  0.00    +0.000 A 
ATOM     18  C   UNL     1      12.548   2.003  -2.520  0.00  0.00    +0.000 A 
ATOM     19  C   UNL     1      11.979   2.091  -1.253  0.00  0.00    +0.000 A 
ATOM     20  C   UNL     1      10.865   1.319  -0.904  0.00  0.00    +0.000 A 
ATOM     21  C   UNL     1      10.359   0.428  -1.866  0.00  0.00    +0.000 A 
ENDBRANCH  12  13
ENDBRANCH   4  12
TORSDOF 5
