REMARK  Name = 
REMARK  7 active torsions:
REMARK  status: ('A' for Active; 'I' for Inactive)
REMARK    1  A    between atoms: C_1  and  C_2
REMARK    2  A    between atoms: C_2  and  C_3
REMARK    3  A    between atoms: C_2  and  C_4
REMARK    4  A    between atoms: C_2  and  C_18
REMARK    5  A    between atoms: C_5  and  C_6
REMARK    6  A    between atoms: C_10  and  C_11
REMARK    7  A    between atoms: C_21  and  C_22
REMARK                            x       y       z     vdW  Elec       q    Type
REMARK                         _______ _______ _______ _____ _____    ______ ____
ROOT
ATOM      1  C   UNL     1       0.900   0.132  -0.082  0.00  0.00    +0.000 C 
ATOM      2  C   UNL     1       2.442   0.085   0.022  0.00  0.00    +0.000 C 
ATOM      3  C   UNL     1       2.909   1.405   0.684  0.00  0.00    +0.000 C 
ENDROOT
BRANCH   2   4
ATOM      4  C   UNL     1       2.989  -0.078  -1.410  0.00  0.00    +0.000 A 
ATOM      5  C   UNL     1       3.210  -1.354  -1.966  0.00  0.00    +0.000 A 
ATOM      6  C   UNL     1       3.663  -1.505  -3.284  0.00  0.00    +0.000 A 
ATOM      7  C   UNL     1       3.893  -0.387  -4.093  0.00  0.00    +0.000 A 
ATOM      8  C   UNL     1       3.659   0.877  -3.557  0.00  0.00    +0.000 A 
ATOM      9  F   UNL     1       3.844   1.989  -4.286  0.00  0.00    +0.000 F 
ATOM     10  C   UNL     1       3.213   1.032  -2.242  0.00  0.00    +0.000 A 
BRANCH   7  11
ATOM     11  C   UNL     1       4.357  -0.600  -5.486  0.00  0.00    +0.000 C 
ATOM     12  N   UNL     1       4.553   0.495  -6.279  0.00  0.00    +0.000 N 
ATOM     13  O   UNL     1       4.556  -1.726  -5.927  0.00  0.00    +0.000 OA
ATOM     14  H   UNL     1       4.392   1.443  -5.960  0.00  0.00    +0.000 HD
ATOM     15  H   UNL     1       4.863   0.347  -7.229  0.00  0.00    +0.000 HD
ENDBRANCH   7  11
ENDBRANCH   2   4
BRANCH   2  16
ATOM     16  C   UNL     1       2.955  -1.018   0.954  0.00  0.00    +0.000 C 
ATOM     17  C   UNL     1       2.199  -1.884   1.651  0.00  0.00    +0.000 C 
BRANCH  17  18
ATOM     18  C   UNL     1       2.689  -2.886   2.608  0.00  0.00    +0.000 A 
ATOM     19  C   UNL     1       3.874  -2.732   3.331  0.00  0.00    +0.000 A 
ATOM     20  C   UNL     1       4.234  -3.670   4.297  0.00  0.00    +0.000 A 
ATOM     21  C   UNL     1       3.401  -4.760   4.563  0.00  0.00    +0.000 A 
ATOM     22  C   UNL     1       2.187  -4.936   3.878  0.00  0.00    +0.000 A 
ATOM     23  C   UNL     1       1.862  -3.985   2.892  0.00  0.00    +0.000 A 
BRANCH  22  24
ATOM     24  C   UNL     1       1.260  -6.039   4.205  0.00  0.00    +0.000 A 
ATOM     25  C   UNL     1       0.469  -6.675   3.235  0.00  0.00    +0.000 A 
ATOM     26  C   UNL     1      -0.426  -7.683   3.593  0.00  0.00    +0.000 A 
ATOM     27  C   UNL     1      -0.506  -8.049   4.924  0.00  0.00    +0.000 A 
ATOM     28  N   UNL     1       0.231  -7.479   5.897  0.00  0.00    +0.000 NA
ATOM     29  C   UNL     1       1.083  -6.494   5.515  0.00  0.00    +0.000 A 
ENDBRANCH  22  24
ENDBRANCH  17  18
ENDBRANCH   2  16
TORSDOF 5
