REMARK  Name = 
REMARK  3 active torsions:
REMARK  status: ('A' for Active; 'I' for Inactive)
REMARK    1  A    between atoms: C_2  and  C_4
REMARK    2  A    between atoms: N_8  and  C_9
REMARK    3  A    between atoms: C_9  and  C_10
REMARK                            x       y       z     vdW  Elec       q    Type
REMARK                         _______ _______ _______ _____ _____    ______ ____
ROOT
ATOM      1  C   UNL     1       2.801  -0.987   1.191  0.00  0.00    +0.000 A 
ATOM      2  C   UNL     1       4.116  -0.741   0.811  0.00  0.00    +0.000 A 
ATOM      3  C   UNL     1       5.125  -1.561   1.314  0.00  0.00    +0.000 A 
ATOM      4  C   UNL     1       4.805  -2.627   2.156  0.00  0.00    +0.000 A 
ATOM      5  N   UNL     1       5.856  -3.441   2.580  0.00  0.00    +0.000 N 
ATOM      6  N   UNL     1       3.536  -2.876   2.528  0.00  0.00    +0.000 NA
ATOM      7  C   UNL     1       2.568  -2.042   2.062  0.00  0.00    +0.000 A 
ATOM      8  H   UNL     1       6.494  -2.902   3.158  0.00  0.00    +0.000 HD
ENDROOT
BRANCH   1  10
ATOM      9  N   UNL     1       1.786   0.454  -0.483  0.00  0.00    +0.000 N 
ATOM     10  C   UNL     1       1.663  -0.166   0.730  0.00  0.00    +0.000 C 
ATOM     11  O   UNL     1       0.638  -0.068   1.390  0.00  0.00    +0.000 OA
ATOM     12  H   UNL     1       0.958   0.926  -0.830  0.00  0.00    +0.000 HD
ATOM     13  H   UNL     1       2.491   0.201  -1.160  0.00  0.00    +0.000 HD
ENDBRANCH   1  10
BRANCH   5  14
ATOM     14  C   UNL     1       5.502  -4.711   3.206  0.00  0.00    +0.000 C 
BRANCH  14  15
ATOM     15  C   UNL     1       6.729  -5.605   3.175  0.00  0.00    +0.000 A 
ATOM     16  C   UNL     1       7.391  -5.788   1.941  0.00  0.00    +0.000 A 
ATOM     17  C   UNL     1       8.524  -6.595   1.834  0.00  0.00    +0.000 A 
ATOM     18  C   UNL     1       9.011  -7.253   2.955  0.00  0.00    +0.000 A 
ATOM     19  C   UNL     1       8.362  -7.101   4.182  0.00  0.00    +0.000 A 
ATOM     20  C   UNL     1       7.226  -6.288   4.294  0.00  0.00    +0.000 A 
ATOM     21 CL   UNL     1       6.489  -6.172   5.851  0.00  0.00    +0.000 Cl
ENDBRANCH  14  15
ENDBRANCH   5  14
TORSDOF 3
