REMARK  Name = 
REMARK  5 active torsions:
REMARK  status: ('A' for Active; 'I' for Inactive)
REMARK    1  A    between atoms: C_2  and  C_4
REMARK    2  A    between atoms: C_7  and  O_8
REMARK    3  A    between atoms: O_8  and  C_9
REMARK    4  A    between atoms: C_9  and  C_10
REMARK    5  A    between atoms: C_15  and  C_16
REMARK                            x       y       z     vdW  Elec       q    Type
REMARK                         _______ _______ _______ _____ _____    ______ ____
ROOT
ATOM      1  C   UNL     1       5.110   6.129  -4.196  0.00  0.00    +0.000 A 
ATOM      2  C   UNL     1       4.649   7.451  -4.257  0.00  0.00    +0.000 A 
ATOM      3  C   UNL     1       5.213   8.339  -5.153  0.00  0.00    +0.000 A 
ATOM      4  F   UNL     1       4.760   9.598  -5.209  0.00  0.00    +0.000 F 
ATOM      5  C   UNL     1       6.262   7.950  -5.970  0.00  0.00    +0.000 A 
ATOM      6  C   UNL     1       6.804   6.657  -5.881  0.00  0.00    +0.000 A 
ATOM      7  C   UNL     1       6.177   5.738  -5.017  0.00  0.00    +0.000 A 
ENDROOT
BRANCH   6   8
ATOM      8  C   UNL     1       8.073   6.243  -6.632  0.00  0.00    +0.000 C 
ATOM      9  C   UNL     1       9.181   5.783  -5.659  0.00  0.00    +0.000 C 
ATOM     10  C   UNL     1       9.775   6.962  -4.889  0.00  0.00    +0.000 C 
ATOM     11  C   UNL     1      10.213   8.099  -5.814  0.00  0.00    +0.000 C 
ATOM     12  N   UNL     1       9.201   8.480  -6.794  0.00  0.00    +0.000 NA
ATOM     13  C   UNL     1       8.687   7.330  -7.549  0.00  0.00    +0.000 C 
ATOM     14  H   UNL     1       9.580   9.178  -7.433  0.00  0.00    +0.000 HD
ENDBRANCH   6   8
BRANCH   1  15
ATOM     15  C   UNL     1       4.436   5.208  -3.212  0.00  0.00    +0.000 C 
BRANCH  15  16
ATOM     16  O   UNL     1       4.954   3.877  -3.228  0.00  0.00    +0.000 OA
BRANCH  16  20
ATOM     17  C   UNL     1       3.194   1.076  -0.689  0.00  0.00    +0.000 A 
ATOM     18  C   UNL     1       2.725   2.391  -0.659  0.00  0.00    +0.000 A 
ATOM     19  C   UNL     1       3.294   3.352  -1.493  0.00  0.00    +0.000 A 
ATOM     20  C   UNL     1       4.338   3.014  -2.358  0.00  0.00    +0.000 A 
ATOM     21  C   UNL     1       4.823   1.703  -2.368  0.00  0.00    +0.000 A 
ATOM     22  C   UNL     1       4.259   0.736  -1.530  0.00  0.00    +0.000 A 
BRANCH  17  24
ATOM     23  N   UNL     1       1.270   0.203   0.506  0.00  0.00    +0.000 N 
ATOM     24  C   UNL     1       2.587   0.037   0.180  0.00  0.00    +0.000 C 
ATOM     25  O   UNL     1       3.219  -0.939   0.552  0.00  0.00    +0.000 OA
ATOM     26  H   UNL     1       0.835  -0.557   1.015  0.00  0.00    +0.000 HD
ATOM     27  H   UNL     1       0.662   0.841   0.012  0.00  0.00    +0.000 HD
ENDBRANCH  17  24
ENDBRANCH  16  20
ENDBRANCH  15  16
ENDBRANCH   1  15
TORSDOF 5
