REMARK  Name = 
REMARK  7 active torsions:
REMARK  status: ('A' for Active; 'I' for Inactive)
REMARK    1  A    between atoms: N_1  and  C_2
REMARK    2  A    between atoms: C_2  and  C_3
REMARK    3  A    between atoms: C_3  and  O_4
REMARK    4  A    between atoms: O_4  and  C_5
REMARK    5  A    between atoms: C_10  and  C_11
REMARK    6  A    between atoms: C_11  and  N_12
REMARK    7  A    between atoms: C_17  and  C_18
REMARK                            x       y       z     vdW  Elec       q    Type
REMARK                         _______ _______ _______ _____ _____    ______ ____
ROOT
ATOM      1  N   UNL     1       6.959   0.298   1.949  0.00  0.00    +0.000 N 
ATOM      2  C   UNL     1       8.083   0.296   1.152  0.00  0.00    +0.000 A 
ATOM      3  C   UNL     1       7.966   1.451   0.411  0.00  0.00    +0.000 A 
ATOM      4  C   UNL     1       7.397   2.381   1.279  0.00  0.00    +0.000 A 
ATOM      5  C   UNL     1       7.419   3.781   1.454  0.00  0.00    +0.000 A 
ATOM      6  C   UNL     1       6.653   4.330   2.490  0.00  0.00    +0.000 A 
ATOM      7  C   UNL     1       5.814   3.473   3.192  0.00  0.00    +0.000 A 
ATOM      8  N   UNL     1       5.751   2.106   3.082  0.00  0.00    +0.000 NA
ATOM      9  C   UNL     1       6.618   1.622   2.168  0.00  0.00    +0.000 A 
ENDROOT
BRANCH   6  10
ATOM     10  C   UNL     1       6.837   5.809   2.766  0.00  0.00    +0.000 C 
ATOM     11  N   UNL     1       6.065   6.379   3.729  0.00  0.00    +0.000 N 
ATOM     12  O   UNL     1       7.724   6.416   2.224  0.00  0.00    +0.000 OA
ATOM     13  H   UNL     1       5.335   5.968   4.257  0.00  0.00    +0.000 HD
ATOM     14  H   UNL     1       6.270   7.341   3.896  0.00  0.00    +0.000 HD
ENDBRANCH   6  10
BRANCH   1  15
ATOM     15  C   UNL     1       6.582  -0.826   2.804  0.00  0.00    +0.000 C 
BRANCH  15  21
ATOM     16  C   UNL     1       5.085  -2.358   1.388  0.00  0.00    +0.000 A 
ATOM     17  C   UNL     1       4.860  -3.638   0.885  0.00  0.00    +0.000 A 
ATOM     18  C   UNL     1       5.800  -4.655   1.066  0.00  0.00    +0.000 A 
ATOM     19  C   UNL     1       6.982  -4.311   1.680  0.00  0.00    +0.000 A 
ATOM     20  N   UNL     1       7.246  -3.107   2.213  0.00  0.00    +0.000 NA
ATOM     21  C   UNL     1       6.308  -2.119   2.060  0.00  0.00    +0.000 A 
BRANCH  16  22
ATOM     22  O   UNL     1       4.208  -1.310   1.263  0.00  0.00    +0.000 OA
BRANCH  22  23
ATOM     23  C   UNL     1       2.969  -1.610   0.603  0.00  0.00    +0.000 C 
BRANCH  23  24
ATOM     24  C   UNL     1       2.115  -0.343   0.490  0.00  0.00    +0.000 C 
BRANCH  24  25
ATOM     25  N   UNL     1       1.761   0.150   1.804  0.00  0.00    +0.000 NA
ATOM     26  H   UNL     1       1.332   1.058   1.713  0.00  0.00    +0.000 HD
ATOM     27  H   UNL     1       2.626   0.382   2.324  0.00  0.00    +0.000 HD
ENDBRANCH  24  25
ENDBRANCH  23  24
ENDBRANCH  22  23
ENDBRANCH  16  22
ENDBRANCH  15  21
ENDBRANCH   1  15
TORSDOF 7
