REMARK  Name = 
REMARK  5 active torsions:
REMARK  status: ('A' for Active; 'I' for Inactive)
REMARK    1  A    between atoms: C_2  and  C_3
REMARK    2  A    between atoms: C_6  and  N_7
REMARK    3  A    between atoms: N_7  and  C_8
REMARK    4  A    between atoms: C_8  and  C_9
REMARK    5  A    between atoms: C_13  and  C_14
REMARK                            x       y       z     vdW  Elec       q    Type
REMARK                         _______ _______ _______ _____ _____    ______ ____
ROOT
ATOM      1  C   UNL     1       8.771  -1.152   0.138  0.00  0.00    +0.000 C 
ATOM      2  C   UNL     1       7.749  -1.947   0.929  0.00  0.00    +0.000 C 
ATOM      3  C   UNL     1       7.343  -0.643   0.339  0.00  0.00    +0.000 C 
ENDROOT
BRANCH   1   4
ATOM      4  C   UNL     1       9.785  -0.200   0.773  0.00  0.00    +0.000 A 
ATOM      5  C   UNL     1      10.357  -0.432   2.030  0.00  0.00    +0.000 A 
ATOM      6  C   UNL     1      11.156   0.532   2.641  0.00  0.00    +0.000 A 
ATOM      7  C   UNL     1      11.377   1.760   2.014  0.00  0.00    +0.000 A 
ATOM      8  C   UNL     1      10.818   2.056   0.760  0.00  0.00    +0.000 A 
ATOM      9  C   UNL     1      10.074   1.034   0.143  0.00  0.00    +0.000 A 
BRANCH   8  10
ATOM     10  C   UNL     1      10.925   3.415   0.169  0.00  0.00    +0.000 A 
ATOM     11  C   UNL     1      10.960   3.639  -1.218  0.00  0.00    +0.000 A 
ATOM     12  C   UNL     1      11.033   4.936  -1.747  0.00  0.00    +0.000 A 
ATOM     13  C   UNL     1      11.089   6.037  -0.899  0.00  0.00    +0.000 A 
ATOM     14  C   UNL     1      11.045   5.847   0.477  0.00  0.00    +0.000 A 
ATOM     15  C   UNL     1      10.949   4.554   0.999  0.00  0.00    +0.000 A 
ENDBRANCH   8  10
ENDBRANCH   1   4
BRANCH   1  16
ATOM     16  N   UNL     1       9.187  -1.702  -1.157  0.00  0.00    +0.000 N 
ATOM     17  H   UNL     1       8.745  -1.354  -2.002  0.00  0.00    +0.000 HD
BRANCH  16  21
ATOM     18  C   UNL     1      11.564  -5.044  -1.658  0.00  0.00    +0.000 A 
ATOM     19  N   UNL     1      11.055  -4.849  -0.426  0.00  0.00    +0.000 NA
ATOM     20  C   UNL     1      10.274  -3.751  -0.283  0.00  0.00    +0.000 A 
ATOM     21  C   UNL     1       9.946  -2.870  -1.300  0.00  0.00    +0.000 A 
ATOM     22  C   UNL     1      10.557  -3.183  -2.505  0.00  0.00    +0.000 A 
ATOM     23  N   UNL     1      11.351  -4.253  -2.722  0.00  0.00    +0.000 NA
BRANCH  18  25
ATOM     24  N   UNL     1      13.111  -7.112  -2.013  0.00  0.00    +0.000 NA
ATOM     25  C   UNL     1      12.416  -6.186  -1.849  0.00  0.00    +0.000 C 
ENDBRANCH  18  25
ENDBRANCH  16  21
ENDBRANCH   1  16
TORSDOF 5
