REMARK  Name = 
REMARK  7 active torsions:
REMARK  status: ('A' for Active; 'I' for Inactive)
REMARK    1  A    between atoms: C_2  and  C_3
REMARK    2  A    between atoms: C_5  and  C_6
REMARK    3  A    between atoms: C_11  and  N_12
REMARK    4  A    between atoms: N_12  and  C_13
REMARK    5  A    between atoms: C_13  and  C_14
REMARK    6  A    between atoms: C_17  and  O_18
REMARK    7  A    between atoms: O_18  and  C_19
REMARK                            x       y       z     vdW  Elec       q    Type
REMARK                         _______ _______ _______ _____ _____    ______ ____
ROOT
ATOM      1  N   UNL     1       0.496  -2.164   0.231  0.00  0.00    +0.000 N 
ATOM      2  H   UNL     1       0.026  -2.731   0.936  0.00  0.00    +0.000 HD
ENDROOT
BRANCH   1   8
ATOM      3  C   UNL     1      -1.729  -1.330  -0.418  0.00  0.00    +0.000 A 
ATOM      4  C   UNL     1      -2.562  -0.680  -1.335  0.00  0.00    +0.000 A 
ATOM      5  C   UNL     1      -2.026  -0.309  -2.554  0.00  0.00    +0.000 A 
ATOM      6  N   UNL     1      -0.731  -0.520  -2.896  0.00  0.00    +0.000 NA
ATOM      7  C   UNL     1       0.048  -1.130  -1.967  0.00  0.00    +0.000 A 
ATOM      8  C   UNL     1      -0.380  -1.596  -0.722  0.00  0.00    +0.000 A 
BRANCH   5   9
ATOM      9  C   UNL     1      -2.895   0.345  -3.580  0.00  0.00    +0.000 C 
ATOM     10  N   UNL     1      -2.298   0.611  -4.780  0.00  0.00    +0.000 N 
ATOM     11  O   UNL     1      -4.070   0.614  -3.365  0.00  0.00    +0.000 OA
ATOM     12  H   UNL     1      -1.327   0.361  -4.928  0.00  0.00    +0.000 HD
ATOM     13  H   UNL     1      -2.840   1.027  -5.522  0.00  0.00    +0.000 HD
ENDBRANCH   5   9
BRANCH   3  15
ATOM     14  N   UNL     1      -2.759  -2.072   1.843  0.00  0.00    +0.000 NA
ATOM     15  C   UNL     1      -2.301  -1.730   0.836  0.00  0.00    +0.000 C 
ENDBRANCH   3  15
ENDBRANCH   1   8
BRANCH   1  16
ATOM     16  C   UNL     1       1.889  -2.577  -0.047  0.00  0.00    +0.000 C 
ATOM     17  C   UNL     1       2.917  -2.096   0.972  0.00  0.00    +0.000 C 
ATOM     18  C   UNL     1       2.972  -1.581  -0.427  0.00  0.00    +0.000 C 
BRANCH  16  19
ATOM     19  C   UNL     1       2.032  -3.988  -0.611  0.00  0.00    +0.000 A 
ATOM     20  C   UNL     1       1.969  -4.225  -1.995  0.00  0.00    +0.000 A 
ATOM     21  C   UNL     1       2.191  -5.493  -2.545  0.00  0.00    +0.000 A 
ATOM     22  C   UNL     1       2.531  -6.557  -1.719  0.00  0.00    +0.000 A 
ATOM     23  C   UNL     1       2.520  -6.366  -0.336  0.00  0.00    +0.000 A 
ATOM     24  C   UNL     1       2.269  -5.100   0.210  0.00  0.00    +0.000 A 
BRANCH  22  25
ATOM     25  O   UNL     1       2.855  -7.814  -2.126  0.00  0.00    +0.000 OA
BRANCH  25  26
ATOM     26  C   UNL     1       3.493  -7.989  -3.385  0.00  0.00    +0.000 C 
ATOM     27  F   UNL     1       3.941  -6.845  -3.946  0.00  0.00    +0.000 F 
ATOM     28  F   UNL     1       4.560  -8.802  -3.212  0.00  0.00    +0.000 F 
ATOM     29  F   UNL     1       2.640  -8.590  -4.240  0.00  0.00    +0.000 F 
ENDBRANCH  25  26
ENDBRANCH  22  25
ENDBRANCH  16  19
ENDBRANCH   1  16
TORSDOF 7
