REMARK  Name = 
REMARK  7 active torsions:
REMARK  status: ('A' for Active; 'I' for Inactive)
REMARK    1  A    between atoms: C_1  and  N_2
REMARK    2  A    between atoms: N_2  and  C_3
REMARK    3  A    between atoms: C_3  and  C_4
REMARK    4  A    between atoms: C_7  and  C_8
REMARK    5  A    between atoms: C_8  and  N_9
REMARK    6  A    between atoms: C_10  and  C_12
REMARK    7  A    between atoms: C_24  and  C_26
REMARK                            x       y       z     vdW  Elec       q    Type
REMARK                         _______ _______ _______ _____ _____    ______ ____
ROOT
ATOM      1  C   UNL     1       2.196  -1.692   1.911  0.00  0.00    +0.000 A 
ATOM      2  C   UNL     1       2.266  -3.090   1.858  0.00  0.00    +0.000 A 
ATOM      3  C   UNL     1       1.491  -3.871   2.718  0.00  0.00    +0.000 A 
ATOM      4  C   UNL     1       0.611  -3.270   3.627  0.00  0.00    +0.000 A 
ATOM      5  C   UNL     1       0.562  -1.872   3.700  0.00  0.00    +0.000 A 
ATOM      6  C   UNL     1       1.346  -1.091   2.850  0.00  0.00    +0.000 A 
ENDROOT
BRANCH   1   7
ATOM      7  C   UNL     1       3.035  -0.847   0.986  0.00  0.00    +0.000 C 
BRANCH   7   9
ATOM      8  C   UNL     1       1.110  -0.362  -0.564  0.00  0.00    +0.000 C 
ATOM      9  N   UNL     1       2.522  -0.675  -0.376  0.00  0.00    +0.000 N 
ATOM     10  C   UNL     1       3.345  -0.390  -1.472  0.00  0.00    +0.000 C 
ATOM     11  O   UNL     1       2.862  -0.106  -2.573  0.00  0.00    +0.000 OA
BRANCH  10  12
ATOM     12  C   UNL     1       4.863  -0.433  -1.278  0.00  0.00    +0.000 C 
ATOM     13  C   UNL     1       5.392   0.701  -0.397  0.00  0.00    +0.000 C 
ATOM     14  C   UNL     1       6.856   0.883  -0.782  0.00  0.00    +0.000 C 
ATOM     15  C   UNL     1       7.036   0.190  -2.126  0.00  0.00    +0.000 C 
ATOM     16  C   UNL     1       5.638  -0.204  -2.581  0.00  0.00    +0.000 C 
ENDBRANCH  10  12
ENDBRANCH   7   9
ENDBRANCH   1   7
BRANCH   4  17
ATOM     17  C   UNL     1      -0.256  -4.108   4.528  0.00  0.00    +0.000 C 
BRANCH  17  18
ATOM     18  N   UNL     1       0.409  -4.412   5.768  0.00  0.00    +0.000 N 
ATOM     19  C   UNL     1      -0.188  -5.225   6.698  0.00  0.00    +0.000 C 
ATOM     20  O   UNL     1      -1.274  -5.758   6.491  0.00  0.00    +0.000 OA
ATOM     21  H   UNL     1       1.187  -3.820   6.040  0.00  0.00    +0.000 HD
BRANCH  19  22
ATOM     22  C   UNL     1       0.564  -5.476   7.933  0.00  0.00    +0.000 A 
ATOM     23  C   UNL     1       0.289  -6.614   8.680  0.00  0.00    +0.000 A 
ATOM     24  S   UNL     1       1.275  -6.782  10.059  0.00  0.00    +0.000 S 
ATOM     25  C   UNL     1       2.070  -5.316   9.733  0.00  0.00    +0.000 A 
ATOM     26  N   UNL     1       3.039  -4.846  10.566  0.00  0.00    +0.000 NA
ATOM     27  C   UNL     1       3.537  -3.704  10.221  0.00  0.00    +0.000 A 
ATOM     28  N   UNL     1       3.155  -2.991   9.114  0.00  0.00    +0.000 N 
ATOM     29  C   UNL     1       2.208  -3.440   8.226  0.00  0.00    +0.000 A 
ATOM     30  O   UNL     1       1.930  -2.802   7.214  0.00  0.00    +0.000 OA
ATOM     31  C   UNL     1       1.604  -4.712   8.578  0.00  0.00    +0.000 A 
ATOM     32  H   UNL     1       3.593  -2.109   8.894  0.00  0.00    +0.000 HD
ENDBRANCH  19  22
ENDBRANCH  17  18
ENDBRANCH   4  17
TORSDOF 6
