REMARK  Name = 
REMARK  5 active torsions:
REMARK  status: ('A' for Active; 'I' for Inactive)
REMARK    1  A    between atoms: C_2  and  C_18
REMARK    2  A    between atoms: N_3  and  C_4
REMARK    3  A    between atoms: C_4  and  C_5
REMARK    4  A    between atoms: C_8  and  C_9
REMARK    5  A    between atoms: C_9  and  N_10
REMARK                            x       y       z     vdW  Elec       q    Type
REMARK                         _______ _______ _______ _____ _____    ______ ____
ROOT
ATOM      1  O   UNL     1       1.816  -3.297   0.878  0.00  0.00    +0.000 OA
ATOM      2  C   UNL     1       2.613  -2.369   0.782  0.00  0.00    +0.000 C 
ATOM      3  N   UNL     1       2.732  -1.622  -0.360  0.00  0.00    +0.000 N 
ATOM      4  H   UNL     1       3.509  -0.976  -0.447  0.00  0.00    +0.000 HD
ENDROOT
BRANCH   2   5
ATOM      5  C   UNL     1       3.470  -1.977   1.909  0.00  0.00    +0.000 A 
ATOM      6  C   UNL     1       3.104  -2.317   3.202  0.00  0.00    +0.000 A 
ATOM      7  S   UNL     1       4.216  -1.793   4.387  0.00  0.00    +0.000 S 
ATOM      8  C   UNL     1       5.249  -1.136   3.207  0.00  0.00    +0.000 A 
ATOM      9  N   UNL     1       6.431  -0.559   3.554  0.00  0.00    +0.000 NA
ATOM     10  C   UNL     1       7.142  -0.154   2.555  0.00  0.00    +0.000 A 
ATOM     11  N   UNL     1       6.770  -0.251   1.241  0.00  0.00    +0.000 N 
ATOM     12  C   UNL     1       5.543  -0.740   0.850  0.00  0.00    +0.000 A 
ATOM     13  O   UNL     1       5.175  -0.665  -0.319  0.00  0.00    +0.000 OA
ATOM     14  C   UNL     1       4.735  -1.277   1.930  0.00  0.00    +0.000 A 
ATOM     15  H   UNL     1       7.358   0.116   0.508  0.00  0.00    +0.000 HD
ENDBRANCH   2   5
BRANCH   3  16
ATOM     16  C   UNL     1       2.069  -1.984  -1.589  0.00  0.00    +0.000 C 
BRANCH  16  17
ATOM     17  C   UNL     1       3.008  -2.723  -2.497  0.00  0.00    +0.000 A 
ATOM     18  C   UNL     1       3.845  -2.040  -3.384  0.00  0.00    +0.000 A 
ATOM     19  C   UNL     1       4.731  -2.750  -4.189  0.00  0.00    +0.000 A 
ATOM     20  C   UNL     1       4.788  -4.137  -4.078  0.00  0.00    +0.000 A 
ATOM     21  N   UNL     1       3.995  -4.821  -3.212  0.00  0.00    +0.000 NA
ATOM     22  C   UNL     1       3.129  -4.106  -2.450  0.00  0.00    +0.000 A 
BRANCH  20  23
ATOM     23  C   UNL     1       5.702  -4.938  -4.988  0.00  0.00    +0.000 C 
BRANCH  23  24
ATOM     24  N   UNL     1       7.087  -5.204  -4.579  0.00  0.00    +0.000 NA
ATOM     25  C   UNL     1       7.241  -5.994  -3.352  0.00  0.00    +0.000 C 
ATOM     26  C   UNL     1       7.361  -5.162  -2.066  0.00  0.00    +0.000 C 
ATOM     27  O   UNL     1       8.405  -4.183  -2.171  0.00  0.00    +0.000 OA
ATOM     28  C   UNL     1       8.175  -3.309  -3.282  0.00  0.00    +0.000 C 
ATOM     29  C   UNL     1       8.021  -4.077  -4.605  0.00  0.00    +0.000 C 
ENDBRANCH  23  24
ENDBRANCH  20  23
ENDBRANCH  16  17
ENDBRANCH   3  16
TORSDOF 5
