REMARK  Name = 
REMARK  9 active torsions:
REMARK  status: ('A' for Active; 'I' for Inactive)
REMARK    1  A    between atoms: N_1  and  C_2
REMARK    2  A    between atoms: C_2  and  C_3
REMARK    3  A    between atoms: C_3  and  N_4
REMARK    4  A    between atoms: C_7  and  C_8
REMARK    5  A    between atoms: C_8  and  N_9
REMARK    6  A    between atoms: C_10  and  C_12
REMARK    7  A    between atoms: N_18  and  C_19
REMARK    8  A    between atoms: C_19  and  C_20
REMARK    9  A    between atoms: C_20  and  O_21
REMARK                            x       y       z     vdW  Elec       q    Type
REMARK                         _______ _______ _______ _____ _____    ______ ____
ROOT
ATOM      1  N   UNL     1       7.243   0.231  -3.186  0.00  0.00    +0.000 N 
ATOM      2  C   UNL     1       6.467  -0.706  -3.818  0.00  0.00    +0.000 C 
ATOM      3  O   UNL     1       5.241  -0.654  -3.824  0.00  0.00    +0.000 OA
ATOM      4  H   UNL     1       8.252   0.190  -3.283  0.00  0.00    +0.000 HD
ENDROOT
BRANCH   2   5
ATOM      5  C   UNL     1       7.187  -1.818  -4.450  0.00  0.00    +0.000 A 
ATOM      6  C   UNL     1       6.529  -3.018  -4.684  0.00  0.00    +0.000 A 
ATOM      7  S   UNL     1       7.508  -4.197  -5.429  0.00  0.00    +0.000 S 
ATOM      8  C   UNL     1       8.834  -3.132  -5.500  0.00  0.00    +0.000 A 
ATOM      9  N   UNL     1      10.004  -3.510  -6.070  0.00  0.00    +0.000 NA
ATOM     10  C   UNL     1      10.904  -2.586  -6.121  0.00  0.00    +0.000 A 
ATOM     11  N   UNL     1      10.761  -1.304  -5.625  0.00  0.00    +0.000 N 
ATOM     12  C   UNL     1       9.615  -0.919  -4.940  0.00  0.00    +0.000 A 
ATOM     13  O   UNL     1       9.534   0.153  -4.344  0.00  0.00    +0.000 OA
ATOM     14  C   UNL     1       8.546  -1.905  -4.935  0.00  0.00    +0.000 A 
BRANCH  11  15
ATOM     15  C   UNL     1      11.869  -0.356  -5.709  0.00  0.00    +0.000 C 
BRANCH  15  16
ATOM     16  C   UNL     1      12.736  -0.368  -4.448  0.00  0.00    +0.000 C 
BRANCH  16  17
ATOM     17  O   UNL     1      13.379  -1.631  -4.302  0.00  0.00    +0.000 OA
ATOM     18  H   UNL     1      12.747  -2.237  -3.877  0.00  0.00    +0.000 HD
ENDBRANCH  16  17
ENDBRANCH  15  16
ENDBRANCH  11  15
ENDBRANCH   2   5
BRANCH   1  19
ATOM     19  C   UNL     1       6.710   1.405  -2.536  0.00  0.00    +0.000 C 
BRANCH  19  23
ATOM     20  N   UNL     1       4.339   1.462   0.315  0.00  0.00    +0.000 NA
ATOM     21  C   UNL     1       4.835   0.231  -0.318  0.00  0.00    +0.000 C 
ATOM     22  C   UNL     1       6.363   0.176  -0.317  0.00  0.00    +0.000 C 
ATOM     23  C   UNL     1       6.978   1.390  -1.022  0.00  0.00    +0.000 C 
ATOM     24  C   UNL     1       6.426   2.658  -0.359  0.00  0.00    +0.000 C 
ATOM     25  C   UNL     1       4.895   2.669  -0.323  0.00  0.00    +0.000 C 
BRANCH  20  26
ATOM     26  C   UNL     1       2.861   1.533   0.282  0.00  0.00    +0.000 C 
BRANCH  26  27
ATOM     27  C   UNL     1       2.150   0.408   1.064  0.00  0.00    +0.000 C 
BRANCH  27  28
ATOM     28  N   UNL     1       0.693   0.573   1.045  0.00  0.00    +0.000 NA
ATOM     29  H   UNL     1       0.269  -0.213   1.536  0.00  0.00    +0.000 HD
ATOM     30  H   UNL     1       0.362   0.517   0.083  0.00  0.00    +0.000 HD
ENDBRANCH  27  28
ENDBRANCH  26  27
ENDBRANCH  20  26
ENDBRANCH  19  23
ENDBRANCH   1  19
TORSDOF 9
