REMARK  Name = 
REMARK  9 active torsions:
REMARK  status: ('A' for Active; 'I' for Inactive)
REMARK    1  A    between atoms: C_1  and  C_2
REMARK    2  A    between atoms: C_2  and  N_3
REMARK    3  A    between atoms: C_2  and  C_20
REMARK    4  A    between atoms: N_3  and  C_4
REMARK    5  A    between atoms: C_4  and  C_5
REMARK    6  A    between atoms: C_8  and  C_9
REMARK    7  A    between atoms: C_9  and  O_10
REMARK    8  A    between atoms: C_9  and  C_11
REMARK    9  A    between atoms: C_11  and  N_12
REMARK                            x       y       z     vdW  Elec       q    Type
REMARK                         _______ _______ _______ _____ _____    ______ ____
ROOT
ATOM      1  C   UNL     1       2.938  -2.791   2.462  0.00  0.00    +0.000 A 
ATOM      2  C   UNL     1       3.650  -2.920   3.661  0.00  0.00    +0.000 A 
ATOM      3  C   UNL     1       3.994  -4.185   4.155  0.00  0.00    +0.000 A 
ATOM      4  C   UNL     1       3.634  -5.350   3.460  0.00  0.00    +0.000 A 
ATOM      5  C   UNL     1       2.913  -5.212   2.266  0.00  0.00    +0.000 A 
ATOM      6  C   UNL     1       2.580  -3.953   1.769  0.00  0.00    +0.000 A 
ENDROOT
BRANCH   1   7
ATOM      7  C   UNL     1       2.484  -1.448   1.941  0.00  0.00    +0.000 C 
BRANCH   7   8
ATOM      8  N   UNL     1       3.599  -0.556   1.623  0.00  0.00    +0.000 NA
ATOM      9  H   UNL     1       4.146  -0.414   2.471  0.00  0.00    +0.000 HD
BRANCH   8  11
ATOM     10  C   UNL     1       2.365   0.679  -0.171  0.00  0.00    +0.000 C 
ATOM     11  C   UNL     1       3.130   0.760   1.156  0.00  0.00    +0.000 C 
BRANCH  11  12
ATOM     12  C   UNL     1       4.330   1.677   0.999  0.00  0.00    +0.000 A 
ATOM     13  C   UNL     1       5.608   1.286   0.629  0.00  0.00    +0.000 A 
ATOM     14  S   UNL     1       6.701   2.593   0.493  0.00  0.00    +0.000 S 
ATOM     15  C   UNL     1       5.494   3.726   0.892  0.00  0.00    +0.000 A 
ATOM     16  N   UNL     1       5.754   5.061   0.922  0.00  0.00    +0.000 NA
ATOM     17  C   UNL     1       4.732   5.793   1.218  0.00  0.00    +0.000 A 
ATOM     18  N   UNL     1       3.476   5.315   1.495  0.00  0.00    +0.000 N 
ATOM     19  C   UNL     1       3.164   3.975   1.482  0.00  0.00    +0.000 A 
ATOM     20  O   UNL     1       2.030   3.577   1.731  0.00  0.00    +0.000 OA
ATOM     21  C   UNL     1       4.282   3.113   1.146  0.00  0.00    +0.000 A 
ATOM     22  H   UNL     1       2.721   5.944   1.719  0.00  0.00    +0.000 HD
ENDBRANCH  11  12
ENDBRANCH   8  11
ENDBRANCH   7   8
ENDBRANCH   1   7
BRANCH   4  23
ATOM     23  C   UNL     1       3.991  -6.712   4.032  0.00  0.00    +0.000 C 
BRANCH  23  24
ATOM     24  O   UNL     1       2.931  -7.151   4.897  0.00  0.00    +0.000 OA
ATOM     25  H   UNL     1       2.106  -6.765   4.553  0.00  0.00    +0.000 HD
ENDBRANCH  23  24
BRANCH  23  26
ATOM     26  C   UNL     1       4.230  -7.789   2.952  0.00  0.00    +0.000 C 
BRANCH  26  27
ATOM     27  N   UNL     1       4.622  -9.074   3.541  0.00  0.00    +0.000 N 
ATOM     28  C   UNL     1       4.789 -10.075   2.653  0.00  0.00    +0.000 A 
ATOM     29  N   UNL     1       4.799 -10.009   1.342  0.00  0.00    +0.000 NA
ATOM     30  C   UNL     1       5.004 -11.291   0.905  0.00  0.00    +0.000 A 
ATOM     31  C   UNL     1       5.130 -12.151   1.969  0.00  0.00    +0.000 A 
ATOM     32  N   UNL     1       4.986 -11.361   3.078  0.00  0.00    +0.000 N 
ATOM     33  H   UNL     1       4.122  -9.263   4.410  0.00  0.00    +0.000 HD
ATOM     34  H   UNL     1       5.045 -11.650   4.041  0.00  0.00    +0.000 HD
ENDBRANCH  26  27
ENDBRANCH  23  26
ENDBRANCH   4  23
TORSDOF 8
