REMARK  Name = 
REMARK  4 active torsions:
REMARK  status: ('A' for Active; 'I' for Inactive)
REMARK    1  A    between atoms: C_2  and  C_4
REMARK    2  A    between atoms: N_8  and  C_9
REMARK    3  A    between atoms: C_9  and  C_10
REMARK    4  A    between atoms: C_14  and  C_15
REMARK                            x       y       z     vdW  Elec       q    Type
REMARK                         _______ _______ _______ _____ _____    ______ ____
ROOT
ATOM      1  C   UNL     1       5.085  -4.610  -4.008  0.00  0.00    +0.000 C 
ENDROOT
BRANCH   1   6
ATOM      2  C   UNL     1       6.707  -2.666   0.493  0.00  0.00    +0.000 A 
ATOM      3  C   UNL     1       7.254  -2.566  -0.781  0.00  0.00    +0.000 A 
ATOM      4  C   UNL     1       6.633  -3.225  -1.842  0.00  0.00    +0.000 A 
ATOM      5  C   UNL     1       5.486  -3.977  -1.614  0.00  0.00    +0.000 A 
ATOM      6  N   UNL     1       4.787  -4.611  -2.600  0.00  0.00    +0.000 N 
ATOM      7  N   UNL     1       4.966  -4.106  -0.375  0.00  0.00    +0.000 NA
ATOM      8  C   UNL     1       5.583  -3.461   0.648  0.00  0.00    +0.000 A 
ATOM      9  H   UNL     1       4.008  -5.156  -2.255  0.00  0.00    +0.000 HD
BRANCH   2  11
ATOM     10  N   UNL     1       7.973  -0.817   1.420  0.00  0.00    +0.000 N 
ATOM     11  C   UNL     1       7.279  -1.971   1.661  0.00  0.00    +0.000 C 
ATOM     12  O   UNL     1       7.110  -2.385   2.801  0.00  0.00    +0.000 OA
ATOM     13  H   UNL     1       8.272  -0.294   2.231  0.00  0.00    +0.000 HD
ATOM     14  H   UNL     1       7.915  -0.322   0.541  0.00  0.00    +0.000 HD
ENDBRANCH   2  11
ENDBRANCH   1   6
BRANCH   1  15
ATOM     15  C   UNL     1       6.015  -5.738  -4.371  0.00  0.00    +0.000 A 
ATOM     16  C   UNL     1       5.622  -7.068  -4.217  0.00  0.00    +0.000 A 
ATOM     17  C   UNL     1       6.497  -8.064  -4.612  0.00  0.00    +0.000 A 
ATOM     18  N   UNL     1       7.719  -7.829  -5.136  0.00  0.00    +0.000 NA
ATOM     19  C   UNL     1       8.119  -6.539  -5.260  0.00  0.00    +0.000 A 
ATOM     20  C   UNL     1       7.287  -5.479  -4.895  0.00  0.00    +0.000 A 
BRANCH  19  21
ATOM     21  C   UNL     1       9.474  -6.339  -5.809  0.00  0.00    +0.000 A 
ATOM     22  C   UNL     1      10.010  -7.238  -6.750  0.00  0.00    +0.000 A 
ATOM     23  C   UNL     1      11.291  -7.054  -7.268  0.00  0.00    +0.000 A 
ATOM     24  F   UNL     1      11.769  -7.924  -8.166  0.00  0.00    +0.000 F 
ATOM     25  C   UNL     1      12.079  -5.985  -6.872  0.00  0.00    +0.000 A 
ATOM     26  C   UNL     1      11.565  -5.097  -5.942  0.00  0.00    +0.000 A 
ATOM     27  F   UNL     1      12.309  -4.057  -5.541  0.00  0.00    +0.000 F 
ATOM     28  C   UNL     1      10.286  -5.262  -5.412  0.00  0.00    +0.000 A 
ENDBRANCH  19  21
ENDBRANCH   1  15
TORSDOF 4
