REMARK  Name = 
REMARK  7 active torsions:
REMARK  status: ('A' for Active; 'I' for Inactive)
REMARK    1  A    between atoms: C_1  and  C_2
REMARK    2  A    between atoms: C_2  and  N_3
REMARK    3  A    between atoms: N_3  and  C_4
REMARK    4  A    between atoms: C_8  and  C_9
REMARK    5  A    between atoms: C_9  and  C_10
REMARK    6  A    between atoms: C_10  and  N_11
REMARK    7  A    between atoms: C_15  and  C_16
REMARK                            x       y       z     vdW  Elec       q    Type
REMARK                         _______ _______ _______ _____ _____    ______ ____
ROOT
ATOM      1  C   UNL     1       6.085   1.639  -4.770  0.00  0.00    +0.000 C 
ENDROOT
BRANCH   1   6
ATOM      2  C   UNL     1       4.078  -0.161  -2.034  0.00  0.00    +0.000 A 
ATOM      3  C   UNL     1       4.973  -1.167  -1.675  0.00  0.00    +0.000 A 
ATOM      4  C   UNL     1       6.222  -1.264  -2.296  0.00  0.00    +0.000 A 
ATOM      5  C   UNL     1       6.601  -0.343  -3.275  0.00  0.00    +0.000 A 
ATOM      6  C   UNL     1       5.726   0.680  -3.652  0.00  0.00    +0.000 A 
ATOM      7  C   UNL     1       4.476   0.763  -3.017  0.00  0.00    +0.000 A 
BRANCH   2   8
ATOM      8  N   UNL     1       2.843   0.042  -1.390  0.00  0.00    +0.000 N 
ATOM      9  H   UNL     1       2.127   0.373  -2.032  0.00  0.00    +0.000 HD
BRANCH   8  11
ATOM     10  C   UNL     1       1.757  -1.859  -0.262  0.00  0.00    +0.000 C 
ATOM     11  C   UNL     1       2.335  -0.464  -0.134  0.00  0.00    +0.000 C 
ATOM     12  C   UNL     1       3.215  -0.187   1.106  0.00  0.00    +0.000 C 
ATOM     13  O   UNL     1       2.458   1.008   1.434  0.00  0.00    +0.000 OA
ATOM     14  C   UNL     1       1.406   0.595   0.525  0.00  0.00    +0.000 C 
ENDBRANCH   8  11
ENDBRANCH   2   8
ENDBRANCH   1   6
BRANCH   1  15
ATOM     15  C   UNL     1       5.602   1.102  -6.122  0.00  0.00    +0.000 C 
BRANCH  15  16
ATOM     16  N   UNL     1       5.928   2.016  -7.227  0.00  0.00    +0.000 N 
ATOM     17  C   UNL     1       5.490   1.513  -8.471  0.00  0.00    +0.000 A 
ATOM     18  C   UNL     1       5.715   2.257  -9.627  0.00  0.00    +0.000 A 
ATOM     19  C   UNL     1       5.281   1.758 -10.861  0.00  0.00    +0.000 A 
ATOM     20  C   UNL     1       4.634   0.524 -10.923  0.00  0.00    +0.000 A 
ATOM     21  C   UNL     1       4.437  -0.138  -9.721  0.00  0.00    +0.000 A 
ATOM     22  N   UNL     1       4.844   0.332  -8.521  0.00  0.00    +0.000 NA
ATOM     23  H   UNL     1       6.926   2.202  -7.294  0.00  0.00    +0.000 HD
BRANCH  20  24
ATOM     24  C   UNL     1       4.193  -0.022 -12.230  0.00  0.00    +0.000 C 
ATOM     25  N   UNL     1       3.575  -1.241 -12.260  0.00  0.00    +0.000 N 
ATOM     26  O   UNL     1       4.382   0.600 -13.264  0.00  0.00    +0.000 OA
ATOM     27  H   UNL     1       3.378  -1.841 -11.479  0.00  0.00    +0.000 HD
ATOM     28  H   UNL     1       3.302  -1.580 -13.179  0.00  0.00    +0.000 HD
ENDBRANCH  20  24
ENDBRANCH  15  16
ENDBRANCH   1  15
TORSDOF 6
