REMARK  Name = 
REMARK  5 active torsions:
REMARK  status: ('A' for Active; 'I' for Inactive)
REMARK    1  A    between atoms: N_1  and  C_2
REMARK    2  A    between atoms: C_2  and  C_3
REMARK    3  A    between atoms: C_3  and  C_4
REMARK    4  A    between atoms: C_7  and  C_8
REMARK    5  A    between atoms: C_8  and  N_9
REMARK                            x       y       z     vdW  Elec       q    Type
REMARK                         _______ _______ _______ _____ _____    ______ ____
ROOT
ATOM      1  C   UNL     1       4.490   1.435  -0.429  0.00  0.00    +0.000 A 
ATOM      2  C   UNL     1       5.131   1.756   0.763  0.00  0.00    +0.000 A 
ATOM      3  C   UNL     1       6.524   1.752   0.802  0.00  0.00    +0.000 A 
ATOM      4  C   UNL     1       7.251   1.424  -0.344  0.00  0.00    +0.000 A 
ATOM      5  C   UNL     1       6.523   1.118  -1.487  0.00  0.00    +0.000 A 
ATOM      6  N   UNL     1       5.172   1.118  -1.555  0.00  0.00    +0.000 NA
ENDROOT
BRANCH   1   7
ATOM      7  C   UNL     1       2.985   1.381  -0.498  0.00  0.00    +0.000 C 
BRANCH   7   8
ATOM      8  C   UNL     1       2.476  -0.024  -0.168  0.00  0.00    +0.000 C 
BRANCH   8   9
ATOM      9  N   UNL     1       1.013  -0.082  -0.212  0.00  0.00    +0.000 NA
ATOM     10  H   UNL     1       0.716  -1.043  -0.042  0.00  0.00    +0.000 HD
ATOM     11  H   UNL     1       0.697   0.143  -1.155  0.00  0.00    +0.000 HD
ENDBRANCH   8   9
ENDBRANCH   7   8
ENDBRANCH   1   7
BRANCH   4  12
ATOM     12  C   UNL     1       8.751   1.396  -0.354  0.00  0.00    +0.000 C 
BRANCH  12  13
ATOM     13  N   UNL     1       9.290   0.080  -0.023  0.00  0.00    +0.000 N 
ATOM     14  C   UNL     1       9.545  -0.902  -0.949  0.00  0.00    +0.000 A 
ATOM     15  C   UNL     1      10.187  -1.937  -0.311  0.00  0.00    +0.000 A 
ATOM     16  C   UNL     1      10.341  -1.575   1.054  0.00  0.00    +0.000 A 
ATOM     17  C   UNL     1      10.943  -2.204   2.161  0.00  0.00    +0.000 A 
ATOM     18  C   UNL     1      10.935  -1.558   3.399  0.00  0.00    +0.000 A 
ATOM     19 CL   UNL     1      11.700  -2.303   4.750  0.00  0.00    +0.000 Cl
ATOM     20  C   UNL     1      10.330  -0.315   3.555  0.00  0.00    +0.000 A 
ATOM     21  C   UNL     1       9.726   0.327   2.469  0.00  0.00    +0.000 A 
ATOM     22  C   UNL     1       9.752  -0.316   1.220  0.00  0.00    +0.000 A 
ENDBRANCH  12  13
ENDBRANCH   4  12
TORSDOF 5
