REMARK  Name = 
REMARK  3 active torsions:
REMARK  status: ('A' for Active; 'I' for Inactive)
REMARK    1  A    between atoms: C_2  and  C_4
REMARK    2  A    between atoms: N_8  and  C_9
REMARK    3  A    between atoms: C_9  and  C_10
REMARK                            x       y       z     vdW  Elec       q    Type
REMARK                         _______ _______ _______ _____ _____    ______ ____
ROOT
ATOM      1  C   UNL     1       2.971   1.140   1.032  0.00  0.00    +0.000 A 
ATOM      2  C   UNL     1       3.896   1.907   0.341  0.00  0.00    +0.000 A 
ATOM      3  C   UNL     1       4.691   2.817   1.046  0.00  0.00    +0.000 A 
ATOM      4  C   UNL     1       4.553   2.933   2.430  0.00  0.00    +0.000 A 
ATOM      5  N   UNL     1       5.345   3.867   3.114  0.00  0.00    +0.000 N 
ATOM      6  N   UNL     1       3.624   2.211   3.102  0.00  0.00    +0.000 NA
ATOM      7  C   UNL     1       2.859   1.340   2.398  0.00  0.00    +0.000 A 
ATOM      8  H   UNL     1       6.316   3.785   2.837  0.00  0.00    +0.000 HD
ENDROOT
BRANCH   1  10
ATOM      9  N   UNL     1       2.604  -0.451  -0.756  0.00  0.00    +0.000 N 
ATOM     10  C   UNL     1       2.102   0.144   0.367  0.00  0.00    +0.000 C 
ATOM     11  O   UNL     1       1.002  -0.148   0.812  0.00  0.00    +0.000 OA
ATOM     12  H   UNL     1       2.043  -1.188  -1.171  0.00  0.00    +0.000 HD
ATOM     13  H   UNL     1       3.580  -0.407  -1.010  0.00  0.00    +0.000 HD
ENDBRANCH   1  10
BRANCH   5  14
ATOM     14  C   UNL     1       5.142   3.910   4.569  0.00  0.00    +0.000 C 
BRANCH  14  15
ATOM     15  C   UNL     1       6.119   4.895   5.247  0.00  0.00    +0.000 C 
ATOM     16  C   UNL     1       5.847   4.936   6.764  0.00  0.00    +0.000 C 
ATOM     17  C   UNL     1       6.717   5.964   7.485  0.00  0.00    +0.000 C 
ATOM     18  C   UNL     1       6.563   7.351   6.872  0.00  0.00    +0.000 C 
ATOM     19  C   UNL     1       6.859   7.330   5.377  0.00  0.00    +0.000 C 
ATOM     20  C   UNL     1       5.996   6.306   4.645  0.00  0.00    +0.000 C 
ENDBRANCH  14  15
ENDBRANCH   5  14
TORSDOF 3
