REMARK  Name = 
REMARK  5 active torsions:
REMARK  status: ('A' for Active; 'I' for Inactive)
REMARK    1  A    between atoms: C_2  and  C_3
REMARK    2  A    between atoms: C_6  and  N_7
REMARK    3  A    between atoms: N_7  and  C_8
REMARK    4  A    between atoms: C_8  and  C_9
REMARK    5  A    between atoms: C_11  and  C_12
REMARK                            x       y       z     vdW  Elec       q    Type
REMARK                         _______ _______ _______ _____ _____    ______ ____
ROOT
ATOM      1  C   UNL     1       8.740  -1.016  -0.664  0.00  0.00    +0.000 C 
ATOM      2  C   UNL     1       7.800  -1.182   0.531  0.00  0.00    +0.000 C 
ATOM      3  C   UNL     1       7.297  -0.538  -0.718  0.00  0.00    +0.000 C 
ENDROOT
BRANCH   1   4
ATOM      4  C   UNL     1       9.798   0.089  -0.535  0.00  0.00    +0.000 A 
ATOM      5  C   UNL     1       9.988   0.984  -1.589  0.00  0.00    +0.000 A 
ATOM      6  C   UNL     1      10.637   2.215  -1.405  0.00  0.00    +0.000 A 
ATOM      7  C   UNL     1      11.113   2.462  -0.116  0.00  0.00    +0.000 A 
ATOM      8  C   UNL     1      11.026   1.470   0.849  0.00  0.00    +0.000 A 
ATOM      9  N   UNL     1      10.386   0.301   0.667  0.00  0.00    +0.000 NA
BRANCH   6  10
ATOM     10  C   UNL     1      10.748   3.180  -2.538  0.00  0.00    +0.000 A 
ATOM     11  C   UNL     1       9.712   3.219  -3.508  0.00  0.00    +0.000 A 
ATOM     12  C   UNL     1       9.791   3.999  -4.665  0.00  0.00    +0.000 A 
ATOM     13  C   UNL     1      10.892   4.816  -4.870  0.00  0.00    +0.000 A 
ATOM     14  C   UNL     1      11.905   4.848  -3.917  0.00  0.00    +0.000 A 
ATOM     15  C   UNL     1      11.849   4.034  -2.774  0.00  0.00    +0.000 A 
ATOM     16 CL   UNL     1      13.249   4.114  -1.756  0.00  0.00    +0.000 Cl
ENDBRANCH   6  10
ENDBRANCH   1   4
BRANCH   1  17
ATOM     17  N   UNL     1       9.178  -2.271  -1.271  0.00  0.00    +0.000 N 
ATOM     18  H   UNL     1       9.737  -2.912  -0.715  0.00  0.00    +0.000 HD
BRANCH  17  22
ATOM     19  C   UNL     1       9.374  -3.505  -5.183  0.00  0.00    +0.000 A 
ATOM     20  C   UNL     1       9.928  -4.221  -4.136  0.00  0.00    +0.000 A 
ATOM     21  N   UNL     1       9.884  -3.791  -2.851  0.00  0.00    +0.000 NA
ATOM     22  C   UNL     1       9.253  -2.617  -2.611  0.00  0.00    +0.000 A 
ATOM     23  C   UNL     1       8.703  -1.905  -3.676  0.00  0.00    +0.000 A 
ATOM     24  N   UNL     1       8.754  -2.318  -4.975  0.00  0.00    +0.000 NA
BRANCH  19  26
ATOM     25  N   UNL     1       9.470  -4.468  -7.587  0.00  0.00    +0.000 NA
ATOM     26  C   UNL     1       9.416  -4.002  -6.522  0.00  0.00    +0.000 C 
ENDBRANCH  19  26
ENDBRANCH  17  22
ENDBRANCH   1  17
TORSDOF 5
