REMARK  Name = 
REMARK  7 active torsions:
REMARK  status: ('A' for Active; 'I' for Inactive)
REMARK    1  A    between atoms: C_2  and  C_3
REMARK    2  A    between atoms: C_3  and  N_4
REMARK    3  A    between atoms: C_3  and  C_17
REMARK    4  A    between atoms: C_5  and  C_7
REMARK    5  A    between atoms: C_20  and  C_21
REMARK    6  A    between atoms: C_21  and  N_22
REMARK    7  A    between atoms: C_23  and  C_25
REMARK                            x       y       z     vdW  Elec       q    Type
REMARK                         _______ _______ _______ _____ _____    ______ ____
ROOT
ATOM      1  C   UNL     1       3.833  -0.072  -0.020  0.00  0.00    +0.000 C 
ENDROOT
BRANCH   1   2
ATOM      2  C   UNL     1       4.230  -0.254   1.444  0.00  0.00    +0.000 A 
ATOM      3  C   UNL     1       4.520   0.875   2.231  0.00  0.00    +0.000 A 
ATOM      4  C   UNL     1       4.924   0.739   3.564  0.00  0.00    +0.000 A 
ATOM      5  C   UNL     1       5.067  -0.529   4.141  0.00  0.00    +0.000 A 
ATOM      6  C   UNL     1       4.779  -1.656   3.363  0.00  0.00    +0.000 A 
ATOM      7  C   UNL     1       4.383  -1.523   2.028  0.00  0.00    +0.000 A 
BRANCH   5   8
ATOM      8  C   UNL     1       5.507  -0.684   5.574  0.00  0.00    +0.000 C 
BRANCH   8   9
ATOM      9  N   UNL     1       4.386  -0.670   6.481  0.00  0.00    +0.000 N 
ATOM     10  C   UNL     1       4.557  -0.906   7.822  0.00  0.00    +0.000 C 
ATOM     11  O   UNL     1       5.652  -1.172   8.312  0.00  0.00    +0.000 OA
ATOM     12  H   UNL     1       3.489  -0.365   6.132  0.00  0.00    +0.000 HD
BRANCH  10  13
ATOM     13  C   UNL     1       3.363  -0.813   8.622  0.00  0.00    +0.000 A 
ATOM     14  C   UNL     1       2.034  -0.587   8.321  0.00  0.00    +0.000 A 
ATOM     15  C   UNL     1       1.365  -0.614   9.558  0.00  0.00    +0.000 A 
ATOM     16  N   UNL     1       2.193  -0.841  10.577  0.00  0.00    +0.000 NA
ATOM     17  N   UNL     1       3.394  -0.967   9.985  0.00  0.00    +0.000 N 
ATOM     18  H   UNL     1       4.211  -1.155  10.560  0.00  0.00    +0.000 HD
ENDBRANCH  10  13
ENDBRANCH   8   9
ENDBRANCH   5   8
ENDBRANCH   1   2
BRANCH   1  19
ATOM     19  N   UNL     1       5.040  -0.015  -0.825  0.00  0.00    +0.000 N 
ATOM     20  C   UNL     1       5.095   0.710  -1.986  0.00  0.00    +0.000 C 
ATOM     21  O   UNL     1       4.160   1.416  -2.352  0.00  0.00    +0.000 OA
ATOM     22  H   UNL     1       5.722  -0.749  -0.665  0.00  0.00    +0.000 HD
BRANCH  20  23
ATOM     23  C   UNL     1       6.361   0.660  -2.725  0.00  0.00    +0.000 A 
ATOM     24  C   UNL     1       6.716   1.708  -3.563  0.00  0.00    +0.000 A 
ATOM     25  S   UNL     1       8.246   1.511  -4.292  0.00  0.00    +0.000 S 
ATOM     26  C   UNL     1       8.461  -0.010  -3.560  0.00  0.00    +0.000 A 
ATOM     27  N   UNL     1       9.579  -0.748  -3.791  0.00  0.00    +0.000 NA
ATOM     28  C   UNL     1       9.587  -1.902  -3.210  0.00  0.00    +0.000 A 
ATOM     29  N   UNL     1       8.581  -2.380  -2.409  0.00  0.00    +0.000 N 
ATOM     30  C   UNL     1       7.464  -1.643  -2.097  0.00  0.00    +0.000 A 
ATOM     31  O   UNL     1       6.627  -2.050  -1.297  0.00  0.00    +0.000 OA
ATOM     32  C   UNL     1       7.390  -0.352  -2.754  0.00  0.00    +0.000 A 
ATOM     33  H   UNL     1       8.660  -3.285  -1.970  0.00  0.00    +0.000 HD
ENDBRANCH  20  23
ENDBRANCH   1  19
BRANCH   1  35
ATOM     34  N   UNL     1       2.202  -1.966  -0.894  0.00  0.00    +0.000 NA
ATOM     35  C   UNL     1       2.906  -1.121  -0.518  0.00  0.00    +0.000 C 
ENDBRANCH   1  35
TORSDOF 7
