REMARK  Name = 
REMARK  7 active torsions:
REMARK  status: ('A' for Active; 'I' for Inactive)
REMARK    1  A    between atoms: C_1  and  N_2
REMARK    2  A    between atoms: N_2  and  C_3
REMARK    3  A    between atoms: C_3  and  C_4
REMARK    4  A    between atoms: C_7  and  C_8
REMARK    5  A    between atoms: C_8  and  N_9
REMARK    6  A    between atoms: C_10  and  C_12
REMARK    7  A    between atoms: C_24  and  C_26
REMARK                            x       y       z     vdW  Elec       q    Type
REMARK                         _______ _______ _______ _____ _____    ______ ____
ROOT
ATOM      1  C   UNL     1       2.178   2.171   1.118  0.00  0.00    +0.000 A 
ATOM      2  C   UNL     1       1.122   1.814   1.970  0.00  0.00    +0.000 A 
ATOM      3  C   UNL     1       0.270   2.788   2.492  0.00  0.00    +0.000 A 
ATOM      4  C   UNL     1       0.451   4.135   2.161  0.00  0.00    +0.000 A 
ATOM      5  C   UNL     1       1.539   4.498   1.355  0.00  0.00    +0.000 A 
ATOM      6  C   UNL     1       2.390   3.524   0.829  0.00  0.00    +0.000 A 
ENDROOT
BRANCH   1   7
ATOM      7  C   UNL     1       3.063   1.105   0.525  0.00  0.00    +0.000 C 
BRANCH   7   9
ATOM      8  C   UNL     1       1.413   0.862  -1.394  0.00  0.00    +0.000 C 
ATOM      9  N   UNL     1       2.709   0.563  -0.790  0.00  0.00    +0.000 N 
ATOM     10  C   UNL     1       3.502  -0.378  -1.487  0.00  0.00    +0.000 C 
ATOM     11  O   UNL     1       3.112  -0.807  -2.574  0.00  0.00    +0.000 OA
BRANCH  10  12
ATOM     12  C   UNL     1       4.778  -0.818  -0.935  0.00  0.00    +0.000 A 
ATOM     13  C   UNL     1       5.206  -1.106   0.349  0.00  0.00    +0.000 A 
ATOM     14  N   UNL     1       6.522  -1.508   0.487  0.00  0.00    +0.000 NA
ATOM     15  C   UNL     1       7.071  -1.590  -0.704  0.00  0.00    +0.000 A 
ATOM     16  S   UNL     1       6.070  -1.175  -2.026  0.00  0.00    +0.000 S 
ENDBRANCH  10  12
ENDBRANCH   7   9
ENDBRANCH   1   7
BRANCH   4  17
ATOM     17  C   UNL     1      -0.495   5.188   2.673  0.00  0.00    +0.000 C 
BRANCH  17  18
ATOM     18  N   UNL     1      -0.050   5.720   3.932  0.00  0.00    +0.000 N 
ATOM     19  C   UNL     1      -0.808   6.636   4.620  0.00  0.00    +0.000 C 
ATOM     20  O   UNL     1      -1.907   7.002   4.217  0.00  0.00    +0.000 OA
ATOM     21  H   UNL     1       0.936   5.620   4.156  0.00  0.00    +0.000 HD
BRANCH  19  22
ATOM     22  C   UNL     1      -0.256   7.119   5.890  0.00  0.00    +0.000 A 
ATOM     23  C   UNL     1      -1.113   7.624   6.860  0.00  0.00    +0.000 A 
ATOM     24  S   UNL     1      -0.321   8.088   8.296  0.00  0.00    +0.000 S 
ATOM     25  C   UNL     1       1.202   7.678   7.655  0.00  0.00    +0.000 A 
ATOM     26  N   UNL     1       2.337   7.857   8.382  0.00  0.00    +0.000 NA
ATOM     27  C   UNL     1       3.423   7.534   7.762  0.00  0.00    +0.000 A 
ATOM     28  N   UNL     1       3.476   7.045   6.482  0.00  0.00    +0.000 N 
ATOM     29  C   UNL     1       2.354   6.818   5.722  0.00  0.00    +0.000 A 
ATOM     30  O   UNL     1       2.432   6.334   4.599  0.00  0.00    +0.000 OA
ATOM     31  C   UNL     1       1.104   7.179   6.367  0.00  0.00    +0.000 A 
ATOM     32  H   UNL     1       4.359   6.801   6.060  0.00  0.00    +0.000 HD
ENDBRANCH  19  22
ENDBRANCH  17  18
ENDBRANCH   4  17
TORSDOF 6
