REMARK  Name = 
REMARK  5 active torsions:
REMARK  status: ('A' for Active; 'I' for Inactive)
REMARK    1  A    between atoms: C_2  and  C_18
REMARK    2  A    between atoms: N_3  and  C_4
REMARK    3  A    between atoms: C_4  and  C_5
REMARK    4  A    between atoms: C_8  and  C_9
REMARK    5  A    between atoms: C_9  and  C_10
REMARK                            x       y       z     vdW  Elec       q    Type
REMARK                         _______ _______ _______ _____ _____    ______ ____
ROOT
ATOM      1  O   UNL     1       1.067   0.220  -0.048  0.00  0.00    +0.000 OA
ATOM      2  C   UNL     1       2.043  -0.516  -0.098  0.00  0.00    +0.000 C 
ATOM      3  N   UNL     1       2.617  -1.133   0.988  0.00  0.00    +0.000 N 
ATOM      4  H   UNL     1       3.295  -1.860   0.819  0.00  0.00    +0.000 HD
ENDROOT
BRANCH   2   5
ATOM      5  C   UNL     1       2.618  -1.012  -1.342  0.00  0.00    +0.000 A 
ATOM      6  C   UNL     1       1.845  -1.401  -2.421  0.00  0.00    +0.000 A 
ATOM      7  S   UNL     1       2.719  -2.414  -3.496  0.00  0.00    +0.000 S 
ATOM      8  C   UNL     1       4.155  -2.234  -2.593  0.00  0.00    +0.000 A 
ATOM      9  N   UNL     1       5.282  -2.947  -2.859  0.00  0.00    +0.000 NA
ATOM     10  C   UNL     1       6.285  -2.656  -2.095  0.00  0.00    +0.000 A 
ATOM     11  N   UNL     1       6.283  -1.682  -1.126  0.00  0.00    +0.000 N 
ATOM     12  C   UNL     1       5.178  -0.915  -0.842  0.00  0.00    +0.000 A 
ATOM     13  O   UNL     1       5.217   0.011  -0.041  0.00  0.00    +0.000 OA
ATOM     14  C   UNL     1       3.999  -1.308  -1.584  0.00  0.00    +0.000 A 
ATOM     15  H   UNL     1       7.126  -1.451  -0.621  0.00  0.00    +0.000 HD
ENDBRANCH   2   5
BRANCH   3  16
ATOM     16  C   UNL     1       2.017  -1.137   2.291  0.00  0.00    +0.000 C 
BRANCH  16  17
ATOM     17  C   UNL     1       2.961  -1.783   3.273  0.00  0.00    +0.000 A 
ATOM     18  C   UNL     1       3.881  -1.003   3.980  0.00  0.00    +0.000 A 
ATOM     19  C   UNL     1       4.777  -1.598   4.867  0.00  0.00    +0.000 A 
ATOM     20  C   UNL     1       4.757  -2.981   5.092  0.00  0.00    +0.000 A 
ATOM     21  C   UNL     1       3.866  -3.768   4.354  0.00  0.00    +0.000 A 
ATOM     22  C   UNL     1       2.986  -3.178   3.441  0.00  0.00    +0.000 A 
BRANCH  20  23
ATOM     23  C   UNL     1       5.669  -3.605   6.127  0.00  0.00    +0.000 C 
BRANCH  23  24
ATOM     24  C   UNL     1       5.090  -3.689   7.525  0.00  0.00    +0.000 A 
ATOM     25  C   UNL     1       4.690  -2.551   8.206  0.00  0.00    +0.000 A 
ATOM     26  C   UNL     1       4.244  -2.727   9.496  0.00  0.00    +0.000 A 
ATOM     27  N   UNL     1       4.185  -3.924  10.104  0.00  0.00    +0.000 NA
ATOM     28  C   UNL     1       4.591  -4.965   9.364  0.00  0.00    +0.000 A 
ATOM     29  N   UNL     1       5.047  -4.912   8.101  0.00  0.00    +0.000 NA
ENDBRANCH  23  24
ENDBRANCH  20  23
ENDBRANCH  16  17
ENDBRANCH   3  16
TORSDOF 5
