REMARK  Name = 
REMARK  11 active torsions:
REMARK  status: ('A' for Active; 'I' for Inactive)
REMARK    1  A    between atoms: C_1  and  C_2
REMARK    2  A    between atoms: C_2  and  C_3
REMARK    3  A    between atoms: C_3  and  C_4
REMARK    4  A    between atoms: C_4  and  N_5
REMARK    5  A    between atoms: C_4  and  C_21
REMARK    6  A    between atoms: N_5  and  C_6
REMARK    7  A    between atoms: C_6  and  C_7
REMARK    8  A    between atoms: C_10  and  C_11
REMARK    9  A    between atoms: C_11  and  N_12
REMARK   10  A    between atoms: N_12  and  C_13
REMARK   11  A    between atoms: C_13  and  C_14
REMARK                            x       y       z     vdW  Elec       q    Type
REMARK                         _______ _______ _______ _____ _____    ______ ____
ROOT
ATOM      1  N   UNL     1       4.414   4.038 -15.876  0.00  0.00    +0.000 NA
ATOM      2  H   UNL     1       4.655   4.446 -14.975  0.00  0.00    +0.000 HD
ENDROOT
BRANCH   1   3
ATOM      3  C   UNL     1       3.769   5.058 -16.718  0.00  0.00    +0.000 C 
BRANCH   3   4
ATOM      4  C   UNL     1       3.606   4.475 -18.126  0.00  0.00    +0.000 A 
ATOM      5  C   UNL     1       2.442   3.864 -18.578  0.00  0.00    +0.000 A 
ATOM      6  S   UNL     1       2.577   3.179 -20.129  0.00  0.00    +0.000 S 
ATOM      7  C   UNL     1       4.186   3.707 -20.277  0.00  0.00    +0.000 A 
ATOM      8  N   UNL     1       4.899   3.430 -21.401  0.00  0.00    +0.000 NA
ATOM      9  C   UNL     1       6.109   3.877 -21.377  0.00  0.00    +0.000 A 
ATOM     10  N   UNL     1       6.663   4.582 -20.338  0.00  0.00    +0.000 N 
ATOM     11  C   UNL     1       5.965   4.922 -19.194  0.00  0.00    +0.000 A 
ATOM     12  O   UNL     1       6.473   5.638 -18.334  0.00  0.00    +0.000 OA
ATOM     13  C   UNL     1       4.614   4.405 -19.159  0.00  0.00    +0.000 A 
ATOM     14  H   UNL     1       7.607   4.933 -20.403  0.00  0.00    +0.000 HD
ENDBRANCH   3   4
BRANCH   3  15
ATOM     15  C   UNL     1       2.431   5.605 -16.152  0.00  0.00    +0.000 C 
BRANCH  15  17
ATOM     16  C   UNL     1       3.298   7.523 -14.702  0.00  0.00    +0.000 C 
ATOM     17  C   UNL     1       2.452   6.266 -14.772  0.00  0.00    +0.000 C 
ENDBRANCH  15  17
ENDBRANCH   3  15
ENDBRANCH   1   3
BRANCH   1  18
ATOM     18  C   UNL     1       3.623   2.828 -15.659  0.00  0.00    +0.000 C 
BRANCH  18  19
ATOM     19  C   UNL     1       4.392   1.775 -14.902  0.00  0.00    +0.000 A 
ATOM     20  C   UNL     1       4.694   1.939 -13.546  0.00  0.00    +0.000 A 
ATOM     21  C   UNL     1       5.399   0.950 -12.861  0.00  0.00    +0.000 A 
ATOM     22  C   UNL     1       5.803  -0.224 -13.514  0.00  0.00    +0.000 A 
ATOM     23  C   UNL     1       5.486  -0.394 -14.866  0.00  0.00    +0.000 A 
ATOM     24  C   UNL     1       4.791   0.599 -15.554  0.00  0.00    +0.000 A 
BRANCH  22  25
ATOM     25  C   UNL     1       6.596  -1.274 -12.779  0.00  0.00    +0.000 C 
BRANCH  25  26
ATOM     26  N   UNL     1       5.868  -1.759 -11.608  0.00  0.00    +0.000 NA
ATOM     27  H   UNL     1       4.958  -2.109 -11.910  0.00  0.00    +0.000 HD
BRANCH  26  28
ATOM     28  C   UNL     1       6.613  -2.836 -10.948  0.00  0.00    +0.000 C 
BRANCH  28  29
ATOM     29  C   UNL     1       5.825  -3.382  -9.730  0.00  0.00    +0.000 C 
ATOM     30  C   UNL     1       6.607  -4.430  -8.959  0.00  0.00    +0.000 C 
ATOM     31  C   UNL     1       7.491  -3.605  -8.045  0.00  0.00    +0.000 C 
ATOM     32  C   UNL     1       6.692  -2.334  -7.788  0.00  0.00    +0.000 C 
ATOM     33  N   UNL     1       5.560  -2.344  -8.719  0.00  0.00    +0.000 NA
ATOM     34  H   UNL     1       5.482  -1.443  -9.200  0.00  0.00    +0.000 HD
ENDBRANCH  28  29
ENDBRANCH  26  28
ENDBRANCH  25  26
ENDBRANCH  22  25
ENDBRANCH  18  19
ENDBRANCH   1  18
TORSDOF 10
