REMARK  Name = 
REMARK  9 active torsions:
REMARK  status: ('A' for Active; 'I' for Inactive)
REMARK    1  A    between atoms: C_1  and  C_2
REMARK    2  A    between atoms: C_2  and  N_3
REMARK    3  A    between atoms: C_2  and  C_26
REMARK    4  A    between atoms: N_3  and  C_4
REMARK    5  A    between atoms: C_4  and  C_5
REMARK    6  A    between atoms: C_8  and  C_9
REMARK    7  A    between atoms: C_9  and  N_10
REMARK    8  A    between atoms: C_11  and  C_13
REMARK    9  A    between atoms: N_19  and  C_20
REMARK                            x       y       z     vdW  Elec       q    Type
REMARK                         _______ _______ _______ _____ _____    ______ ____
ROOT
ATOM      1  C   UNL     1      -0.898  -0.817  -1.153  0.00  0.00    +0.000 A 
ATOM      2  C   UNL     1      -1.518  -1.798  -1.927  0.00  0.00    +0.000 A 
ATOM      3  C   UNL     1      -2.903  -1.910  -1.917  0.00  0.00    +0.000 A 
ATOM      4  C   UNL     1      -3.643  -1.026  -1.139  0.00  0.00    +0.000 A 
ATOM      5  N   UNL     1      -3.067  -0.069  -0.367  0.00  0.00    +0.000 NA
ATOM      6  C   UNL     1      -1.716   0.014  -0.394  0.00  0.00    +0.000 A 
ENDROOT
BRANCH   1   7
ATOM      7  C   UNL     1       0.589  -0.617  -1.206  0.00  0.00    +0.000 C 
BRANCH   7   8
ATOM      8  N   UNL     1       1.222  -0.755   0.103  0.00  0.00    +0.000 NA
ATOM      9  H   UNL     1       1.003  -1.679   0.480  0.00  0.00    +0.000 HD
BRANCH   8  11
ATOM     10  C   UNL     1       3.130   0.739  -0.504  0.00  0.00    +0.000 C 
ATOM     11  C   UNL     1       2.690  -0.629   0.036  0.00  0.00    +0.000 C 
BRANCH  11  12
ATOM     12  C   UNL     1       3.295  -0.890   1.411  0.00  0.00    +0.000 A 
ATOM     13  C   UNL     1       4.202  -1.946   1.599  0.00  0.00    +0.000 A 
ATOM     14  C   UNL     1       4.726  -2.221   2.865  0.00  0.00    +0.000 A 
ATOM     15  C   UNL     1       4.357  -1.442   3.959  0.00  0.00    +0.000 A 
ATOM     16  C   UNL     1       3.473  -0.380   3.787  0.00  0.00    +0.000 A 
ATOM     17  C   UNL     1       2.946  -0.105   2.522  0.00  0.00    +0.000 A 
ENDBRANCH  11  12
ENDBRANCH   8  11
ENDBRANCH   7   8
ENDBRANCH   1   7
BRANCH   4  18
ATOM     18  C   UNL     1      -5.144  -1.155  -1.092  0.00  0.00    +0.000 C 
BRANCH  18  19
ATOM     19  N   UNL     1      -5.562  -2.024  -0.023  0.00  0.00    +0.000 N 
ATOM     20  C   UNL     1      -5.867  -3.342  -0.192  0.00  0.00    +0.000 C 
ATOM     21  O   UNL     1      -5.667  -3.949  -1.243  0.00  0.00    +0.000 OA
ATOM     22  H   UNL     1      -5.706  -1.578   0.871  0.00  0.00    +0.000 HD
BRANCH  20  23
ATOM     23  C   UNL     1      -6.403  -4.007   0.998  0.00  0.00    +0.000 A 
ATOM     24  C   UNL     1      -6.166  -5.350   1.239  0.00  0.00    +0.000 A 
ATOM     25  S   UNL     1      -6.826  -5.893   2.719  0.00  0.00    +0.000 S 
ATOM     26  C   UNL     1      -7.490  -4.361   3.055  0.00  0.00    +0.000 A 
ATOM     27  N   UNL     1      -8.190  -4.130   4.195  0.00  0.00    +0.000 NA
ATOM     28  C   UNL     1      -8.652  -2.925   4.305  0.00  0.00    +0.000 A 
ATOM     29  N   UNL     1      -8.498  -1.919   3.375  0.00  0.00    +0.000 N 
ATOM     30  C   UNL     1      -9.065  -0.607   3.595  0.00  0.00    +0.000 C 
ATOM     31  C   UNL     1      -7.802  -2.127   2.188  0.00  0.00    +0.000 A 
ATOM     32  O   UNL     1      -7.675  -1.251   1.337  0.00  0.00    +0.000 OA
ATOM     33  C   UNL     1      -7.227  -3.453   2.047  0.00  0.00    +0.000 A 
ENDBRANCH  20  23
ENDBRANCH  18  19
ENDBRANCH   4  18
TORSDOF 7
