REMARK  Name = 
REMARK  7 active torsions:
REMARK  status: ('A' for Active; 'I' for Inactive)
REMARK    1  A    between atoms: C_2  and  C_19
REMARK    2  A    between atoms: N_3  and  C_4
REMARK    3  A    between atoms: C_4  and  C_5
REMARK    4  A    between atoms: C_8  and  C_9
REMARK    5  A    between atoms: C_9  and  N_10
REMARK    6  A    between atoms: N_10  and  C_11
REMARK    7  A    between atoms: C_11  and  C_12
REMARK                            x       y       z     vdW  Elec       q    Type
REMARK                         _______ _______ _______ _____ _____    ______ ____
ROOT
ATOM      1  C   UNL     1       2.115  -1.939   1.852  0.00  0.00    +0.000 C 
ENDROOT
BRANCH   1   2
ATOM      2  C   UNL     1       3.066  -2.957   2.448  0.00  0.00    +0.000 A 
ATOM      3  N   UNL     1       4.178  -2.502   3.052  0.00  0.00    +0.000 NA
ATOM      4  C   UNL     1       4.994  -3.430   3.590  0.00  0.00    +0.000 A 
ATOM      5  C   UNL     1       4.754  -4.788   3.549  0.00  0.00    +0.000 A 
ATOM      6  C   UNL     1       3.625  -5.150   2.845  0.00  0.00    +0.000 A 
ATOM      7  N   UNL     1       2.778  -4.267   2.274  0.00  0.00    +0.000 NA
BRANCH   5   8
ATOM      8  C   UNL     1       5.639  -5.778   4.246  0.00  0.00    +0.000 C 
BRANCH   8   9
ATOM      9  N   UNL     1       5.743  -5.455   5.661  0.00  0.00    +0.000 NA
ATOM     10  H   UNL     1       4.812  -5.447   6.090  0.00  0.00    +0.000 HD
BRANCH   9  11
ATOM     11  C   UNL     1       6.561  -6.418   6.407  0.00  0.00    +0.000 C 
BRANCH  11  12
ATOM     12  C   UNL     1       6.518  -6.071   7.905  0.00  0.00    +0.000 C 
ATOM     13  C   UNL     1       7.378  -6.989   8.760  0.00  0.00    +0.000 C 
ATOM     14  C   UNL     1       6.649  -6.963  10.080  0.00  0.00    +0.000 C 
ATOM     15  C   UNL     1       5.203  -6.927   9.639  0.00  0.00    +0.000 C 
ATOM     16  O   UNL     1       5.165  -6.210   8.398  0.00  0.00    +0.000 OA
ENDBRANCH  11  12
ENDBRANCH   9  11
ENDBRANCH   8   9
ENDBRANCH   5   8
ENDBRANCH   1   2
BRANCH   1  19
ATOM     17  O   UNL     1       0.946   0.033   0.167  0.00  0.00    +0.000 OA
ATOM     18  C   UNL     1       1.695  -0.813  -0.302  0.00  0.00    +0.000 C 
ATOM     19  N   UNL     1       2.361  -1.754   0.441  0.00  0.00    +0.000 N 
ATOM     20  H   UNL     1       2.774  -2.540  -0.032  0.00  0.00    +0.000 HD
BRANCH  18  21
ATOM     21  C   UNL     1       1.822  -1.069  -1.730  0.00  0.00    +0.000 A 
ATOM     22  C   UNL     1       0.741  -1.043  -2.593  0.00  0.00    +0.000 A 
ATOM     23  S   UNL     1       1.087  -1.850  -4.067  0.00  0.00    +0.000 S 
ATOM     24  C   UNL     1       2.705  -2.127  -3.605  0.00  0.00    +0.000 A 
ATOM     25  N   UNL     1       3.555  -2.892  -4.341  0.00  0.00    +0.000 NA
ATOM     26  C   UNL     1       4.754  -2.963  -3.859  0.00  0.00    +0.000 A 
ATOM     27  N   UNL     1       5.195  -2.303  -2.739  0.00  0.00    +0.000 N 
ATOM     28  C   UNL     1       4.385  -1.486  -1.987  0.00  0.00    +0.000 A 
ATOM     29  O   UNL     1       4.818  -0.813  -1.060  0.00  0.00    +0.000 OA
ATOM     30  C   UNL     1       3.001  -1.497  -2.417  0.00  0.00    +0.000 A 
ATOM     31  H   UNL     1       6.166  -2.328  -2.467  0.00  0.00    +0.000 HD
ENDBRANCH  18  21
ENDBRANCH   1  19
TORSDOF 7
