REMARK  Name = 
REMARK  6 active torsions:
REMARK  status: ('A' for Active; 'I' for Inactive)
REMARK    1  A    between atoms: N_1  and  C_2
REMARK    2  A    between atoms: C_2  and  C_3
REMARK    3  A    between atoms: C_6  and  C_7
REMARK    4  A    between atoms: C_7  and  O_8
REMARK    5  A    between atoms: O_8  and  C_9
REMARK    6  A    between atoms: C_12  and  C_13
REMARK                            x       y       z     vdW  Elec       q    Type
REMARK                         _______ _______ _______ _____ _____    ______ ____
ROOT
ATOM      1  O   UNL     1       4.532   1.032   5.989  0.00  0.00    +0.000 OA
ENDROOT
BRANCH   1   2
ATOM      2  C   UNL     1       4.879   1.004   7.321  0.00  0.00    +0.000 A 
ATOM      3  C   UNL     1       5.224   2.197   7.951  0.00  0.00    +0.000 A 
ATOM      4  N   UNL     1       5.549   2.274   9.273  0.00  0.00    +0.000 NA
ATOM      5  C   UNL     1       5.503   1.082   9.934  0.00  0.00    +0.000 A 
ATOM      6  C   UNL     1       5.162  -0.108   9.303  0.00  0.00    +0.000 A 
ATOM      7  N   UNL     1       4.850  -0.173   7.987  0.00  0.00    +0.000 NA
BRANCH   5   8
ATOM      8  C   UNL     1       5.813   1.063  11.389  0.00  0.00    +0.000 C 
ATOM      9  N   UNL     1       6.134   2.255  11.978  0.00  0.00    +0.000 N 
ATOM     10  O   UNL     1       5.775   0.024  12.044  0.00  0.00    +0.000 OA
ATOM     11  H   UNL     1       6.158   3.116  11.443  0.00  0.00    +0.000 HD
ATOM     12  H   UNL     1       6.330   2.269  12.970  0.00  0.00    +0.000 HD
ENDBRANCH   5   8
ENDBRANCH   1   2
BRANCH   1  13
ATOM     13  C   UNL     1       4.225  -0.276   5.482  0.00  0.00    +0.000 C 
BRANCH  13  17
ATOM     14  C   UNL     1       2.915  -0.149   1.350  0.00  0.00    +0.000 A 
ATOM     15  C   UNL     1       3.808   0.812   1.842  0.00  0.00    +0.000 A 
ATOM     16  C   UNL     1       4.231   0.780   3.172  0.00  0.00    +0.000 A 
ATOM     17  C   UNL     1       3.756  -0.203   4.046  0.00  0.00    +0.000 A 
ATOM     18  C   UNL     1       2.873  -1.176   3.550  0.00  0.00    +0.000 A 
ATOM     19  C   UNL     1       2.452  -1.146   2.218  0.00  0.00    +0.000 A 
BRANCH  14  20
ATOM     20  C   UNL     1       2.451  -0.095  -0.082  0.00  0.00    +0.000 C 
BRANCH  20  21
ATOM     21  N   UNL     1       3.571  -0.173  -1.012  0.00  0.00    +0.000 NA
ATOM     22  H   UNL     1       3.213  -0.278  -1.959  0.00  0.00    +0.000 HD
ATOM     23  H   UNL     1       4.106  -1.016  -0.808  0.00  0.00    +0.000 HD
ENDBRANCH  20  21
ENDBRANCH  14  20
ENDBRANCH  13  17
ENDBRANCH   1  13
TORSDOF 6
