REMARK  Name = 
REMARK  8 active torsions:
REMARK  status: ('A' for Active; 'I' for Inactive)
REMARK    1  A    between atoms: C_1  and  C_2
REMARK    2  A    between atoms: C_2  and  C_3
REMARK    3  A    between atoms: C_2  and  C_4
REMARK    4  A    between atoms: C_2  and  C_5
REMARK    5  A    between atoms: N_7  and  C_8
REMARK    6  A    between atoms: C_8  and  C_9
REMARK    7  A    between atoms: C_13  and  C_14
REMARK    8  A    between atoms: C_14  and  N_15
REMARK                            x       y       z     vdW  Elec       q    Type
REMARK                         _______ _______ _______ _____ _____    ______ ____
ROOT
ATOM      1  C   UNL     1       3.055   1.344   0.395  0.00  0.00    +0.000 A 
ATOM      2  C   UNL     1       2.428   2.516   0.002  0.00  0.00    +0.000 A 
ATOM      3  N   UNL     1       3.127   3.595   0.486  0.00  0.00    +0.000 N 
ATOM      4  C   UNL     1       4.212   3.160   1.210  0.00  0.00    +0.000 A 
ATOM      5  C   UNL     1       5.197   3.887   1.902  0.00  0.00    +0.000 A 
ATOM      6  C   UNL     1       6.199   3.181   2.569  0.00  0.00    +0.000 A 
ATOM      7  C   UNL     1       6.218   1.791   2.547  0.00  0.00    +0.000 A 
ATOM      8  C   UNL     1       5.230   1.075   1.860  0.00  0.00    +0.000 A 
ATOM      9  C   UNL     1       4.201   1.758   1.171  0.00  0.00    +0.000 A 
ENDROOT
BRANCH   1  11
ATOM     10  C   UNL     1       1.326  -0.040  -0.858  0.00  0.00    +0.000 C 
ATOM     11  C   UNL     1       2.576  -0.072   0.059  0.00  0.00    +0.000 C 
ATOM     12  C   UNL     1       2.180  -0.841   1.335  0.00  0.00    +0.000 C 
ATOM     13  C   UNL     1       3.669  -0.856  -0.693  0.00  0.00    +0.000 C 
ENDBRANCH   1  11
BRANCH   3  14
ATOM     14  C   UNL     1       2.682   4.976   0.341  0.00  0.00    +0.000 C 
BRANCH  14  15
ATOM     15  C   UNL     1       3.259   5.669  -0.868  0.00  0.00    +0.000 A 
ATOM     16  C   UNL     1       3.058   5.182  -2.148  0.00  0.00    +0.000 A 
ATOM     17  C   UNL     1       3.516   5.965  -3.184  0.00  0.00    +0.000 A 
ATOM     18  N   UNL     1       4.131   7.146  -3.009  0.00  0.00    +0.000 NA
ATOM     19  C   UNL     1       4.293   7.548  -1.731  0.00  0.00    +0.000 A 
ATOM     20  N   UNL     1       3.880   6.852  -0.650  0.00  0.00    +0.000 NA
BRANCH  19  21
ATOM     21  C   UNL     1       4.968   8.892  -1.505  0.00  0.00    +0.000 C 
BRANCH  21  22
ATOM     22  N   UNL     1       4.207  10.034  -2.042  0.00  0.00    +0.000 NA
ATOM     23  H   UNL     1       3.990   9.819  -3.017  0.00  0.00    +0.000 HD
ATOM     24  H   UNL     1       4.812  10.852  -2.054  0.00  0.00    +0.000 HD
ENDBRANCH  21  22
ENDBRANCH  19  21
ENDBRANCH  14  15
ENDBRANCH   3  14
TORSDOF 5
