REMARK  Name = 
REMARK  7 active torsions:
REMARK  status: ('A' for Active; 'I' for Inactive)
REMARK    1  A    between atoms: C_1  and  C_2
REMARK    2  A    between atoms: N_7  and  C_8
REMARK    3  A    between atoms: C_12  and  C_13
REMARK    4  A    between atoms: C_13  and  C_14
REMARK    5  A    between atoms: C_14  and  N_15
REMARK    6  A    between atoms: N_15  and  C_16
REMARK    7  A    between atoms: C_19  and  C_20
REMARK                            x       y       z     vdW  Elec       q    Type
REMARK                         _______ _______ _______ _____ _____    ______ ____
ROOT
ATOM      1  C   UNL     1       6.255  -5.894  -0.957  0.00  0.00    +0.000 C 
ENDROOT
BRANCH   1   2
ATOM      2  N   UNL     1       7.383  -6.621  -1.537  0.00  0.00    +0.000 N 
ATOM      3  H   UNL     1       8.194  -6.051  -1.764  0.00  0.00    +0.000 HD
BRANCH   2   4
ATOM      4  C   UNL     1       7.191  -7.687  -2.413  0.00  0.00    +0.000 A 
ATOM      5  C   UNL     1       5.942  -8.244  -2.712  0.00  0.00    +0.000 A 
ATOM      6  C   UNL     1       5.825  -9.380  -3.528  0.00  0.00    +0.000 A 
ATOM      7  C   UNL     1       6.963 -10.010  -4.040  0.00  0.00    +0.000 A 
ATOM      8  C   UNL     1       8.209  -9.475  -3.725  0.00  0.00    +0.000 A 
ATOM      9  F   UNL     1       9.342 -10.045  -4.167  0.00  0.00    +0.000 F 
ATOM     10  C   UNL     1       8.323  -8.338  -2.923  0.00  0.00    +0.000 A 
BRANCH   7  11
ATOM     11  C   UNL     1       6.794 -11.223  -4.881  0.00  0.00    +0.000 C 
ATOM     12  N   UNL     1       7.913 -11.836  -5.371  0.00  0.00    +0.000 N 
ATOM     13  O   UNL     1       5.679 -11.672  -5.137  0.00  0.00    +0.000 OA
ATOM     14  H   UNL     1       8.856 -11.512  -5.178  0.00  0.00    +0.000 HD
ATOM     15  H   UNL     1       7.793 -12.666  -5.935  0.00  0.00    +0.000 HD
ENDBRANCH   7  11
ENDBRANCH   2   4
ENDBRANCH   1   2
BRANCH   1  16
ATOM     16  C   UNL     1       6.749  -4.709  -0.110  0.00  0.00    +0.000 C 
BRANCH  16  21
ATOM     17  C   UNL     1       3.758  -2.346   0.303  0.00  0.00    +0.000 A 
ATOM     18  C   UNL     1       3.351  -2.694   1.596  0.00  0.00    +0.000 A 
ATOM     19  C   UNL     1       4.030  -3.666   2.343  0.00  0.00    +0.000 A 
ATOM     20  C   UNL     1       5.139  -4.319   1.809  0.00  0.00    +0.000 A 
ATOM     21  C   UNL     1       5.598  -3.976   0.539  0.00  0.00    +0.000 A 
ATOM     22  C   UNL     1       4.919  -2.976  -0.177  0.00  0.00    +0.000 A 
BRANCH  17  29
ATOM     23  C   UNL     1       0.760  -0.564  -0.156  0.00  0.00    +0.000 C 
ATOM     24  C   UNL     1       2.259  -0.333   0.058  0.00  0.00    +0.000 C 
ATOM     25  C   UNL     1       2.723   0.966  -0.649  0.00  0.00    +0.000 C 
ATOM     26  O   UNL     1       2.656   0.866  -2.083  0.00  0.00    +0.000 OA
ATOM     27  C   UNL     1       3.485  -0.212  -2.550  0.00  0.00    +0.000 C 
ATOM     28  C   UNL     1       3.052  -1.555  -1.954  0.00  0.00    +0.000 C 
ATOM     29  N   UNL     1       3.040  -1.466  -0.484  0.00  0.00    +0.000 N 
ENDBRANCH  17  29
ENDBRANCH  16  21
ENDBRANCH   1  16
TORSDOF 6
