REMARK  Name = 
REMARK  5 active torsions:
REMARK  status: ('A' for Active; 'I' for Inactive)
REMARK    1  A    between atoms: N_1  and  C_2
REMARK    2  A    between atoms: C_2  and  C_3
REMARK    3  A    between atoms: C_8  and  C_9
REMARK    4  A    between atoms: C_9  and  C_10
REMARK    5  A    between atoms: C_10  and  C_11
REMARK                            x       y       z     vdW  Elec       q    Type
REMARK                         _______ _______ _______ _____ _____    ______ ____
ROOT
ATOM      1  C   UNL     1       1.903  -2.762   0.654  0.00  0.00    +0.000 C 
ENDROOT
BRANCH   1   7
ATOM      2  C   UNL     1       3.958  -2.468  -0.865  0.00  0.00    +0.000 A 
ATOM      3  C   UNL     1       4.441  -2.058  -2.121  0.00  0.00    +0.000 A 
ATOM      4  C   UNL     1       3.596  -1.461  -3.045  0.00  0.00    +0.000 A 
ATOM      5  C   UNL     1       2.275  -1.289  -2.686  0.00  0.00    +0.000 A 
ATOM      6  N   UNL     1       1.757  -1.695  -1.507  0.00  0.00    +0.000 NA
ATOM      7  C   UNL     1       2.586  -2.299  -0.612  0.00  0.00    +0.000 A 
BRANCH   2   8
ATOM      8  C   UNL     1       4.937  -3.044   0.124  0.00  0.00    +0.000 C 
BRANCH   8   9
ATOM      9  N   UNL     1       6.007  -2.091   0.418  0.00  0.00    +0.000 NA
ATOM     10  H   UNL     1       6.461  -2.359   1.290  0.00  0.00    +0.000 HD
ATOM     11  H   UNL     1       5.597  -1.173   0.587  0.00  0.00    +0.000 HD
ENDBRANCH   8   9
ENDBRANCH   2   8
ENDBRANCH   1   7
BRANCH   1  12
ATOM     12  C   UNL     1       1.847  -1.663   1.714  0.00  0.00    +0.000 C 
BRANCH  12  13
ATOM     13  C   UNL     1       1.141  -2.118   2.969  0.00  0.00    +0.000 A 
ATOM     14  C   UNL     1      -0.205  -1.865   3.157  0.00  0.00    +0.000 A 
ATOM     15  C   UNL     1      -0.737  -2.291   4.351  0.00  0.00    +0.000 A 
ATOM     16  N   UNL     1      -0.022  -2.920   5.300  0.00  0.00    +0.000 NA
ATOM     17  C   UNL     1       1.274  -3.112   5.036  0.00  0.00    +0.000 A 
ATOM     18  N   UNL     1       2.025  -3.757   5.996  0.00  0.00    +0.000 N 
ATOM     19  N   UNL     1       1.883  -2.761   3.897  0.00  0.00    +0.000 NA
ATOM     20  H   UNL     1       1.418  -4.308   6.585  0.00  0.00    +0.000 HD
ATOM     21  H   UNL     1       2.806  -4.224   5.562  0.00  0.00    +0.000 HD
ENDBRANCH  12  13
ENDBRANCH   1  12
TORSDOF 5
