REMARK  Name = 
REMARK  6 active torsions:
REMARK  status: ('A' for Active; 'I' for Inactive)
REMARK    1  A    between atoms: C_2  and  C_25
REMARK    2  A    between atoms: N_3  and  C_4
REMARK    3  A    between atoms: C_4  and  C_5
REMARK    4  A    between atoms: C_8  and  C_9
REMARK    5  A    between atoms: C_9  and  N_10
REMARK    6  A    between atoms: C_11  and  C_13
REMARK                            x       y       z     vdW  Elec       q    Type
REMARK                         _______ _______ _______ _____ _____    ______ ____
ROOT
ATOM      1  C   UNL     1       3.360  -3.460  -0.997  0.00  0.00    +0.000 A 
ATOM      2  C   UNL     1       4.637  -3.167  -1.473  0.00  0.00    +0.000 A 
ATOM      3  C   UNL     1       5.509  -4.215  -1.766  0.00  0.00    +0.000 A 
ATOM      4  C   UNL     1       5.086  -5.536  -1.603  0.00  0.00    +0.000 A 
ATOM      5  C   UNL     1       3.797  -5.732  -1.119  0.00  0.00    +0.000 A 
ATOM      6  N   UNL     1       2.930  -4.736  -0.820  0.00  0.00    +0.000 NA
ENDROOT
BRANCH   1   7
ATOM      7  C   UNL     1       2.394  -2.347  -0.659  0.00  0.00    +0.000 C 
BRANCH   7  10
ATOM      8  O   UNL     1       2.988  -0.319  -2.553  0.00  0.00    +0.000 OA
ATOM      9  C   UNL     1       1.948  -0.961  -2.659  0.00  0.00    +0.000 C 
ATOM     10  N   UNL     1       1.573  -1.952  -1.781  0.00  0.00    +0.000 N 
ATOM     11  H   UNL     1       0.746  -2.494  -2.013  0.00  0.00    +0.000 HD
BRANCH   9  12
ATOM     12  C   UNL     1       0.981  -0.702  -3.776  0.00  0.00    +0.000 A 
ATOM     13  C   UNL     1       1.296   0.244  -4.746  0.00  0.00    +0.000 A 
ATOM     14  C   UNL     1       0.375   0.484  -5.758  0.00  0.00    +0.000 A 
ATOM     15  C   UNL     1      -0.825  -0.222  -5.767  0.00  0.00    +0.000 A 
ATOM     16  C   UNL     1      -1.056  -1.147  -4.759  0.00  0.00    +0.000 A 
ATOM     17  N   UNL     1      -0.183  -1.412  -3.762  0.00  0.00    +0.000 NA
ENDBRANCH   9  12
ENDBRANCH   7  10
ENDBRANCH   1   7
BRANCH   4  18
ATOM     18  C   UNL     1       5.987  -6.700  -1.891  0.00  0.00    +0.000 C 
BRANCH  18  19
ATOM     19  N   UNL     1       6.744  -7.078  -0.724  0.00  0.00    +0.000 N 
ATOM     20  C   UNL     1       7.700  -8.060  -0.775  0.00  0.00    +0.000 C 
ATOM     21  O   UNL     1       7.996  -8.624  -1.825  0.00  0.00    +0.000 OA
ATOM     22  H   UNL     1       6.373  -6.796   0.178  0.00  0.00    +0.000 HD
BRANCH  20  23
ATOM     23  C   UNL     1       8.394  -8.363   0.484  0.00  0.00    +0.000 A 
ATOM     24  C   UNL     1       9.650  -8.954   0.453  0.00  0.00    +0.000 A 
ATOM     25  S   UNL     1      10.337  -9.184   1.997  0.00  0.00    +0.000 S 
ATOM     26  C   UNL     1       8.959  -8.548   2.766  0.00  0.00    +0.000 A 
ATOM     27  N   UNL     1       8.885  -8.475   4.122  0.00  0.00    +0.000 NA
ATOM     28  C   UNL     1       7.770  -8.002   4.571  0.00  0.00    +0.000 A 
ATOM     29  N   UNL     1       6.724  -7.592   3.786  0.00  0.00    +0.000 N 
ATOM     30  C   UNL     1       6.765  -7.621   2.413  0.00  0.00    +0.000 A 
ATOM     31  O   UNL     1       5.828  -7.208   1.737  0.00  0.00    +0.000 OA
ATOM     32  C   UNL     1       7.994  -8.153   1.856  0.00  0.00    +0.000 A 
ATOM     33  H   UNL     1       5.879  -7.224   4.200  0.00  0.00    +0.000 HD
ENDBRANCH  20  23
ENDBRANCH  18  19
ENDBRANCH   4  18
TORSDOF 6
