REMARK  Name = 
REMARK  6 active torsions:
REMARK  status: ('A' for Active; 'I' for Inactive)
REMARK    1  A    between atoms: C_2  and  C_19
REMARK    2  A    between atoms: N_3  and  C_4
REMARK    3  A    between atoms: C_4  and  C_5
REMARK    4  A    between atoms: C_8  and  C_9
REMARK    5  A    between atoms: C_9  and  O_10
REMARK    6  A    between atoms: O_10  and  C_11
REMARK                            x       y       z     vdW  Elec       q    Type
REMARK                         _______ _______ _______ _____ _____    ______ ____
ROOT
ATOM      1  O   UNL     1       1.644   1.584  -3.173  0.00  0.00    +0.000 OA
ATOM      2  C   UNL     1       0.825   0.679  -3.303  0.00  0.00    +0.000 C 
ATOM      3  N   UNL     1       1.025  -0.586  -2.811  0.00  0.00    +0.000 N 
ATOM      4  H   UNL     1       0.417  -1.336  -3.118  0.00  0.00    +0.000 HD
ENDROOT
BRANCH   2   5
ATOM      5  C   UNL     1      -0.465   0.907  -3.957  0.00  0.00    +0.000 A 
ATOM      6  C   UNL     1      -1.056   2.165  -3.956  0.00  0.00    +0.000 A 
ATOM      7  S   UNL     1      -2.569   2.199  -4.749  0.00  0.00    +0.000 S 
ATOM      8  C   UNL     1      -2.459   0.549  -5.154  0.00  0.00    +0.000 A 
ATOM      9  N   UNL     1      -3.438  -0.074  -5.860  0.00  0.00    +0.000 NA
ATOM     10  C   UNL     1      -3.188  -1.310  -6.141  0.00  0.00    +0.000 A 
ATOM     11  N   UNL     1      -2.049  -1.983  -5.774  0.00  0.00    +0.000 N 
ATOM     12  C   UNL     1      -1.074  -1.416  -5.004  0.00  0.00    +0.000 A 
ATOM     13  O   UNL     1      -0.128  -2.086  -4.596  0.00  0.00    +0.000 OA
ATOM     14  C   UNL     1      -1.292  -0.021  -4.683  0.00  0.00    +0.000 A 
ATOM     15  H   UNL     1      -1.921  -2.957  -5.998  0.00  0.00    +0.000 HD
ENDBRANCH   2   5
BRANCH   3  16
ATOM     16  C   UNL     1       2.272  -0.994  -2.220  0.00  0.00    +0.000 C 
BRANCH  16  17
ATOM     17  C   UNL     1       3.242  -1.533  -3.242  0.00  0.00    +0.000 A 
ATOM     18  C   UNL     1       4.117  -0.660  -3.901  0.00  0.00    +0.000 A 
ATOM     19  C   UNL     1       5.042  -1.142  -4.831  0.00  0.00    +0.000 A 
ATOM     20  C   UNL     1       5.101  -2.508  -5.133  0.00  0.00    +0.000 A 
ATOM     21  C   UNL     1       4.230  -3.384  -4.471  0.00  0.00    +0.000 A 
ATOM     22  C   UNL     1       3.294  -2.898  -3.551  0.00  0.00    +0.000 A 
BRANCH  20  23
ATOM     23  C   UNL     1       6.060  -3.023  -6.180  0.00  0.00    +0.000 C 
BRANCH  23  24
ATOM     24  O   UNL     1       7.319  -3.348  -5.591  0.00  0.00    +0.000 OA
BRANCH  24  25
ATOM     25  C   UNL     1       8.287  -3.803  -6.450  0.00  0.00    +0.000 A 
ATOM     26  C   UNL     1       8.128  -4.024  -7.816  0.00  0.00    +0.000 A 
ATOM     27  C   UNL     1       9.219  -4.478  -8.541  0.00  0.00    +0.000 A 
ATOM     28  N   UNL     1      10.431  -4.726  -8.004  0.00  0.00    +0.000 NA
ATOM     29  C   UNL     1      10.558  -4.507  -6.679  0.00  0.00    +0.000 A 
ATOM     30  C   UNL     1       9.528  -4.052  -5.871  0.00  0.00    +0.000 A 
ENDBRANCH  24  25
ENDBRANCH  23  24
ENDBRANCH  20  23
ENDBRANCH  16  17
ENDBRANCH   3  16
TORSDOF 6
