REMARK  Name = 
REMARK  5 active torsions:
REMARK  status: ('A' for Active; 'I' for Inactive)
REMARK    1  A    between atoms: C_2  and  C_17
REMARK    2  A    between atoms: N_3  and  C_4
REMARK    3  A    between atoms: C_4  and  C_5
REMARK    4  A    between atoms: C_8  and  C_9
REMARK    5  A    between atoms: C_9  and  N_10
REMARK                            x       y       z     vdW  Elec       q    Type
REMARK                         _______ _______ _______ _____ _____    ______ ____
ROOT
ATOM      1  O   UNL     1      -0.078   1.620  -3.031  0.00  0.00    +0.000 OA
ATOM      2  C   UNL     1      -0.119   0.393  -3.002  0.00  0.00    +0.000 C 
ATOM      3  N   UNL     1       0.954  -0.396  -2.685  0.00  0.00    +0.000 N 
ATOM      4  H   UNL     1       0.840  -1.398  -2.626  0.00  0.00    +0.000 HD
ENDROOT
BRANCH   2   5
ATOM      5  C   UNL     1      -1.332  -0.346  -3.359  0.00  0.00    +0.000 A 
ATOM      6  C   UNL     1      -2.233   0.169  -4.277  0.00  0.00    +0.000 A 
ATOM      7  S   UNL     1      -3.544  -0.879  -4.590  0.00  0.00    +0.000 S 
ATOM      8  C   UNL     1      -2.968  -2.030  -3.474  0.00  0.00    +0.000 A 
ATOM      9  N   UNL     1      -3.634  -3.195  -3.252  0.00  0.00    +0.000 NA
ATOM     10  C   UNL     1      -3.094  -3.955  -2.357  0.00  0.00    +0.000 A 
ATOM     11  N   UNL     1      -1.952  -3.657  -1.659  0.00  0.00    +0.000 N 
ATOM     12  C   UNL     1      -1.228  -2.509  -1.870  0.00  0.00    +0.000 A 
ATOM     13  O   UNL     1      -0.177  -2.309  -1.273  0.00  0.00    +0.000 OA
ATOM     14  C   UNL     1      -1.792  -1.620  -2.871  0.00  0.00    +0.000 A 
ATOM     15  H   UNL     1      -1.577  -4.299  -0.977  0.00  0.00    +0.000 HD
ENDBRANCH   2   5
BRANCH   3  16
ATOM     16  C   UNL     1       2.223   0.125  -2.262  0.00  0.00    +0.000 C 
BRANCH  16  17
ATOM     17  C   UNL     1       3.135   0.344  -3.436  0.00  0.00    +0.000 A 
ATOM     18  C   UNL     1       3.055   1.544  -4.150  0.00  0.00    +0.000 A 
ATOM     19  C   UNL     1       3.919   1.796  -5.211  0.00  0.00    +0.000 A 
ATOM     20  C   UNL     1       4.897   0.862  -5.571  0.00  0.00    +0.000 A 
ATOM     21  C   UNL     1       4.925  -0.374  -4.907  0.00  0.00    +0.000 A 
ATOM     22  C   UNL     1       4.046  -0.634  -3.850  0.00  0.00    +0.000 A 
BRANCH  20  23
ATOM     23  C   UNL     1       5.912   1.196  -6.644  0.00  0.00    +0.000 C 
BRANCH  23  24
ATOM     24  N   UNL     1       7.121   1.924  -6.232  0.00  0.00    +0.000 NA
ATOM     25  C   UNL     1       7.965   1.238  -5.254  0.00  0.00    +0.000 C 
ATOM     26  C   UNL     1       7.616   1.847  -3.910  0.00  0.00    +0.000 C 
ATOM     27  C   UNL     1       7.259   3.283  -4.244  0.00  0.00    +0.000 C 
ATOM     28  C   UNL     1       6.901   3.281  -5.727  0.00  0.00    +0.000 C 
ENDBRANCH  23  24
ENDBRANCH  20  23
ENDBRANCH  16  17
ENDBRANCH   3  16
TORSDOF 5
