REMARK  Name = 
REMARK  7 active torsions:
REMARK  status: ('A' for Active; 'I' for Inactive)
REMARK    1  A    between atoms: C_2  and  C_19
REMARK    2  A    between atoms: N_3  and  C_4
REMARK    3  A    between atoms: C_4  and  C_5
REMARK    4  A    between atoms: N_8  and  C_9
REMARK    5  A    between atoms: C_9  and  C_10
REMARK    6  A    between atoms: C_10  and  C_11
REMARK    7  A    between atoms: C_11  and  C_12
REMARK                            x       y       z     vdW  Elec       q    Type
REMARK                         _______ _______ _______ _____ _____    ______ ____
ROOT
ATOM      1  C   UNL     1       2.212  -0.168   2.548  0.00  0.00    +0.000 C 
ENDROOT
BRANCH   1   2
ATOM      2  C   UNL     1       3.201  -0.203   3.723  0.00  0.00    +0.000 C 
ATOM      3  C   UNL     1       4.163   0.992   3.743  0.00  0.00    +0.000 C 
ATOM      4  C   UNL     1       5.173   0.954   2.596  0.00  0.00    +0.000 C 
ATOM      5  N   UNL     1       5.920  -0.311   2.540  0.00  0.00    +0.000 NA
ATOM      6  C   UNL     1       5.042  -1.492   2.530  0.00  0.00    +0.000 C 
ATOM      7  C   UNL     1       4.036  -1.487   3.685  0.00  0.00    +0.000 C 
BRANCH   5   8
ATOM      8  C   UNL     1       6.822  -0.351   1.371  0.00  0.00    +0.000 C 
BRANCH   8   9
ATOM      9  C   UNL     1       7.959   0.674   1.437  0.00  0.00    +0.000 C 
BRANCH   9  10
ATOM     10  C   UNL     1       8.819   0.492   2.688  0.00  0.00    +0.000 C 
BRANCH  10  11
ATOM     11  C   UNL     1       9.884   1.529   2.763  0.00  0.00    +0.000 A 
ATOM     12  N   UNL     1      10.823   1.765   1.870  0.00  0.00    +0.000 NA
ATOM     13  C   UNL     1      11.555   2.809   2.369  0.00  0.00    +0.000 A 
ATOM     14  C   UNL     1      11.061   3.213   3.585  0.00  0.00    +0.000 A 
ATOM     15  N   UNL     1       9.999   2.389   3.827  0.00  0.00    +0.000 N 
ATOM     16  H   UNL     1       9.396   2.405   4.639  0.00  0.00    +0.000 HD
ENDBRANCH  10  11
ENDBRANCH   9  10
ENDBRANCH   8   9
ENDBRANCH   5   8
ENDBRANCH   1   2
BRANCH   1  19
ATOM     17  O   UNL     1      -0.280   0.253   3.875  0.00  0.00    +0.000 OA
ATOM     18  C   UNL     1       0.181   1.128   3.150  0.00  0.00    +0.000 C 
ATOM     19  N   UNL     1       1.405   1.027   2.541  0.00  0.00    +0.000 N 
ATOM     20  H   UNL     1       1.679   1.739   1.876  0.00  0.00    +0.000 HD
BRANCH  18  21
ATOM     21  C   UNL     1      -0.517   2.398   2.919  0.00  0.00    +0.000 A 
ATOM     22  C   UNL     1      -1.419   2.889   3.851  0.00  0.00    +0.000 A 
ATOM     23  S   UNL     1      -2.058   4.417   3.434  0.00  0.00    +0.000 S 
ATOM     24  C   UNL     1      -1.189   4.447   1.969  0.00  0.00    +0.000 A 
ATOM     25  N   UNL     1      -1.275   5.506   1.119  0.00  0.00    +0.000 NA
ATOM     26  C   UNL     1      -0.587   5.378   0.032  0.00  0.00    +0.000 A 
ATOM     27  N   UNL     1       0.172   4.284  -0.285  0.00  0.00    +0.000 N 
ATOM     28  C   UNL     1       0.314   3.205   0.554  0.00  0.00    +0.000 A 
ATOM     29  O   UNL     1       1.055   2.272   0.262  0.00  0.00    +0.000 OA
ATOM     30  C   UNL     1      -0.432   3.304   1.796  0.00  0.00    +0.000 A 
ATOM     31  H   UNL     1       0.695   4.245  -1.149  0.00  0.00    +0.000 HD
ENDBRANCH  18  21
ENDBRANCH   1  19
TORSDOF 7
