REMARK  Name = 
REMARK  8 active torsions:
REMARK  status: ('A' for Active; 'I' for Inactive)
REMARK    1  A    between atoms: C_1  and  C_2
REMARK    2  A    between atoms: C_2  and  C_3
REMARK    3  A    between atoms: C_2  and  N_24
REMARK    4  A    between atoms: C_3  and  C_4
REMARK    5  A    between atoms: C_7  and  C_8
REMARK    6  A    between atoms: C_8  and  N_9
REMARK    7  A    between atoms: C_10  and  C_12
REMARK    8  A    between atoms: N_24  and  C_25
REMARK                            x       y       z     vdW  Elec       q    Type
REMARK                         _______ _______ _______ _____ _____    ______ ____
ROOT
ATOM      1  C   UNL     1       2.635  -2.549  -0.126  0.00  0.00    +0.000 A 
ATOM      2  C   UNL     1       2.868  -3.726  -0.851  0.00  0.00    +0.000 A 
ATOM      3  C   UNL     1       2.593  -4.979  -0.287  0.00  0.00    +0.000 A 
ATOM      4  C   UNL     1       2.062  -5.080   1.007  0.00  0.00    +0.000 A 
ATOM      5  C   UNL     1       1.833  -3.903   1.730  0.00  0.00    +0.000 A 
ATOM      6  C   UNL     1       2.106  -2.654   1.167  0.00  0.00    +0.000 A 
ENDROOT
BRANCH   1   7
ATOM      7  C   UNL     1       3.013  -1.193  -0.682  0.00  0.00    +0.000 C 
BRANCH   7   9
ATOM      8  C   UNL     1       2.715   0.798  -2.163  0.00  0.00    +0.000 C 
ATOM      9  C   UNL     1       2.036  -0.485  -1.652  0.00  0.00    +0.000 C 
BRANCH   9  10
ATOM     10  N   UNL     1       0.785  -0.100  -0.981  0.00  0.00    +0.000 N 
ATOM     11  H   UNL     1       0.520   0.874  -1.108  0.00  0.00    +0.000 HD
BRANCH  10  12
ATOM     12  C   UNL     1      -0.335  -0.928  -0.956  0.00  0.00    +0.000 A 
ATOM     13  C   UNL     1      -0.394  -2.188  -1.558  0.00  0.00    +0.000 A 
ATOM     14  C   UNL     1      -1.524  -3.003  -1.448  0.00  0.00    +0.000 A 
ATOM     15  C   UNL     1      -2.610  -2.575  -0.697  0.00  0.00    +0.000 A 
ATOM     16 CL   UNL     1      -3.993  -3.584  -0.544  0.00  0.00    +0.000 Cl
ATOM     17  C   UNL     1      -2.573  -1.338  -0.062  0.00  0.00    +0.000 A 
ATOM     18  C   UNL     1      -1.442  -0.523  -0.194  0.00  0.00    +0.000 A 
ENDBRANCH  10  12
ENDBRANCH   9  10
ENDBRANCH   7   9
ENDBRANCH   1   7
BRANCH   4  19
ATOM     19  C   UNL     1       1.784  -6.420   1.638  0.00  0.00    +0.000 C 
BRANCH  19  20
ATOM     20  N   UNL     1       2.938  -6.910   2.347  0.00  0.00    +0.000 N 
ATOM     21  C   UNL     1       2.929  -8.125   2.981  0.00  0.00    +0.000 C 
ATOM     22  O   UNL     1       1.955  -8.874   2.952  0.00  0.00    +0.000 OA
ATOM     23  H   UNL     1       3.644  -6.225   2.598  0.00  0.00    +0.000 HD
BRANCH  21  24
ATOM     24  C   UNL     1       4.183  -8.521   3.635  0.00  0.00    +0.000 A 
ATOM     25  C   UNL     1       4.466  -9.867   3.828  0.00  0.00    +0.000 A 
ATOM     26  S   UNL     1       6.001 -10.146   4.520  0.00  0.00    +0.000 S 
ATOM     27  C   UNL     1       6.309  -8.477   4.648  0.00  0.00    +0.000 A 
ATOM     28  N   UNL     1       7.468  -8.018   5.193  0.00  0.00    +0.000 NA
ATOM     29  C   UNL     1       7.555  -6.731   5.255  0.00  0.00    +0.000 A 
ATOM     30  N   UNL     1       6.589  -5.859   4.817  0.00  0.00    +0.000 N 
ATOM     31  C   UNL     1       5.418  -6.278   4.234  0.00  0.00    +0.000 A 
ATOM     32  O   UNL     1       4.595  -5.478   3.810  0.00  0.00    +0.000 OA
ATOM     33  C   UNL     1       5.265  -7.718   4.151  0.00  0.00    +0.000 A 
ATOM     34  H   UNL     1       6.722  -4.863   4.888  0.00  0.00    +0.000 HD
ENDBRANCH  21  24
ENDBRANCH  19  20
ENDBRANCH   4  19
TORSDOF 7
