REMARK  Name = 
REMARK  5 active torsions:
REMARK  status: ('A' for Active; 'I' for Inactive)
REMARK    1  A    between atoms: N_1  and  C_2
REMARK    2  A    between atoms: C_2  and  C_3
REMARK    3  A    between atoms: C_6  and  O_7
REMARK    4  A    between atoms: O_7  and  C_8
REMARK    5  A    between atoms: C_8  and  C_9
REMARK                            x       y       z     vdW  Elec       q    Type
REMARK                         _______ _______ _______ _____ _____    ______ ____
ROOT
ATOM      1  C   UNL     1       2.999   0.408  -1.268  0.00  0.00    +0.000 A 
ATOM      2  C   UNL     1       2.913   1.742  -1.691  0.00  0.00    +0.000 A 
ATOM      3  C   UNL     1       3.433   2.129  -2.929  0.00  0.00    +0.000 A 
ATOM      4  C   UNL     1       4.058   1.192  -3.752  0.00  0.00    +0.000 A 
ATOM      5  C   UNL     1       4.104  -0.145  -3.357  0.00  0.00    +0.000 A 
ATOM      6  C   UNL     1       3.587  -0.534  -2.119  0.00  0.00    +0.000 A 
ENDROOT
BRANCH   1   7
ATOM      7  C   UNL     1       2.481  -0.009   0.085  0.00  0.00    +0.000 C 
BRANCH   7   8
ATOM      8  N   UNL     1       1.044   0.203   0.195  0.00  0.00    +0.000 NA
ATOM      9  H   UNL     1       0.717  -0.196   1.073  0.00  0.00    +0.000 HD
ATOM     10  H   UNL     1       0.579  -0.315  -0.549  0.00  0.00    +0.000 HD
ENDBRANCH   7   8
ENDBRANCH   1   7
BRANCH   4  11
ATOM     11  O   UNL     1       4.591   1.683  -4.914  0.00  0.00    +0.000 OA
BRANCH  11  12
ATOM     12  C   UNL     1       5.635   0.885  -5.478  0.00  0.00    +0.000 C 
BRANCH  12  13
ATOM     13  C   UNL     1       6.484   1.687  -6.427  0.00  0.00    +0.000 A 
ATOM     14  C   UNL     1       6.649   3.071  -6.314  0.00  0.00    +0.000 A 
ATOM     15  C   UNL     1       7.512   3.734  -7.182  0.00  0.00    +0.000 A 
ATOM     16  C   UNL     1       8.189   2.981  -8.124  0.00  0.00    +0.000 A 
ATOM     17 CL   UNL     1       9.281   3.719  -9.221  0.00  0.00    +0.000 Cl
ATOM     18  N   UNL     1       8.073   1.645  -8.260  0.00  0.00    +0.000 NA
ATOM     19  C   UNL     1       7.227   1.031  -7.406  0.00  0.00    +0.000 A 
ENDBRANCH  12  13
ENDBRANCH  11  12
ENDBRANCH   4  11
TORSDOF 5
