REMARK  Name = 
REMARK  5 active torsions:
REMARK  status: ('A' for Active; 'I' for Inactive)
REMARK    1  A    between atoms: C_1  and  C_2
REMARK    2  A    between atoms: C_4  and  C_5
REMARK    3  A    between atoms: N_10  and  C_11
REMARK    4  A    between atoms: C_11  and  C_12
REMARK    5  A    between atoms: C_16  and  C_17
REMARK                            x       y       z     vdW  Elec       q    Type
REMARK                         _______ _______ _______ _____ _____    ______ ____
ROOT
ATOM      1  C   UNL     1       3.015   2.526  -0.099  0.00  0.00    +0.000 C 
ENDROOT
BRANCH   1   8
ATOM      2  C   UNL     1      -2.239  -0.246  -0.577  0.00  0.00    +0.000 C 
ATOM      3  C   UNL     1      -0.810  -0.170  -0.130  0.00  0.00    +0.000 A 
ATOM      4  C   UNL     1      -0.166  -1.274   0.367  0.00  0.00    +0.000 A 
ATOM      5  C   UNL     1       1.140  -1.069   0.746  0.00  0.00    +0.000 A 
ATOM      6  N   UNL     1       1.791   0.119   0.665  0.00  0.00    +0.000 NA
ATOM      7  C   UNL     1       1.071   1.141   0.193  0.00  0.00    +0.000 A 
ATOM      8  N   UNL     1       1.597   2.422   0.146  0.00  0.00    +0.000 N 
ATOM      9  N   UNL     1      -0.199   1.032  -0.225  0.00  0.00    +0.000 NA
ATOM     10  H   UNL     1       0.998   2.968  -0.462  0.00  0.00    +0.000 HD
BRANCH   5  11
ATOM     11  C   UNL     1       1.910  -2.225   1.305  0.00  0.00    +0.000 C 
ATOM     12  N   UNL     1       3.202  -1.960   1.669  0.00  0.00    +0.000 N 
ATOM     13  O   UNL     1       1.423  -3.340   1.434  0.00  0.00    +0.000 OA
ATOM     14  H   UNL     1       3.570  -1.021   1.587  0.00  0.00    +0.000 HD
ATOM     15  H   UNL     1       3.758  -2.695   2.083  0.00  0.00    +0.000 HD
ENDBRANCH   5  11
ENDBRANCH   1   8
BRANCH   1  16
ATOM     16  C   UNL     1       3.404   3.984  -0.206  0.00  0.00    +0.000 A 
ATOM     17  C   UNL     1       3.421   4.647  -1.434  0.00  0.00    +0.000 A 
ATOM     18  C   UNL     1       3.787   5.983  -1.455  0.00  0.00    +0.000 A 
ATOM     19  N   UNL     1       4.135   6.691  -0.358  0.00  0.00    +0.000 NA
ATOM     20  C   UNL     1       4.123   6.052   0.837  0.00  0.00    +0.000 A 
ATOM     21  C   UNL     1       3.743   4.712   0.942  0.00  0.00    +0.000 A 
BRANCH  20  22
ATOM     22  C   UNL     1       4.563   6.849   2.002  0.00  0.00    +0.000 A 
ATOM     23  C   UNL     1       4.335   8.240   2.067  0.00  0.00    +0.000 A 
ATOM     24  C   UNL     1       4.754   9.000   3.166  0.00  0.00    +0.000 A 
ATOM     25  C   UNL     1       5.415   8.377   4.216  0.00  0.00    +0.000 A 
ATOM     26  F   UNL     1       5.817   9.102   5.269  0.00  0.00    +0.000 F 
ATOM     27  C   UNL     1       5.661   7.014   4.171  0.00  0.00    +0.000 A 
ATOM     28  F   UNL     1       6.305   6.408   5.179  0.00  0.00    +0.000 F 
ATOM     29  C   UNL     1       5.245   6.254   3.081  0.00  0.00    +0.000 A 
ENDBRANCH  20  22
ENDBRANCH   1  16
TORSDOF 4
