REMARK  Name = 
REMARK  9 active torsions:
REMARK  status: ('A' for Active; 'I' for Inactive)
REMARK    1  A    between atoms: C_1  and  C_2
REMARK    2  A    between atoms: C_2  and  C_3
REMARK    3  A    between atoms: C_5  and  O_6
REMARK    4  A    between atoms: O_6  and  C_7
REMARK    5  A    between atoms: C_11  and  C_12
REMARK    6  A    between atoms: C_12  and  C_13
REMARK    7  A    between atoms: C_13  and  N_14
REMARK    8  A    between atoms: N_14  and  C_15
REMARK    9  A    between atoms: C_18  and  C_19
REMARK                            x       y       z     vdW  Elec       q    Type
REMARK                         _______ _______ _______ _____ _____    ______ ____
ROOT
ATOM      1  C   UNL     1      -3.493  -3.059  -6.638  0.00  0.00    +0.000 C 
ENDROOT
BRANCH   1   2
ATOM      2  N   UNL     1      -4.639  -3.547  -7.415  0.00  0.00    +0.000 N 
ATOM      3  H   UNL     1      -5.101  -2.806  -7.939  0.00  0.00    +0.000 HD
BRANCH   2   4
ATOM      4  C   UNL     1      -4.415  -4.684  -8.217  0.00  0.00    +0.000 A 
ATOM      5  C   UNL     1      -3.504  -5.689  -7.877  0.00  0.00    +0.000 A 
ATOM      6  C   UNL     1      -3.361  -6.827  -8.671  0.00  0.00    +0.000 A 
ATOM      7  C   UNL     1      -4.168  -6.954  -9.792  0.00  0.00    +0.000 A 
ATOM      8  N   UNL     1      -5.102  -6.034 -10.153  0.00  0.00    +0.000 NA
ATOM      9  C   UNL     1      -5.206  -4.943  -9.345  0.00  0.00    +0.000 A 
BRANCH   7  10
ATOM     10  C   UNL     1      -4.030  -8.170 -10.652  0.00  0.00    +0.000 C 
ATOM     11  N   UNL     1      -4.858  -8.227 -11.736  0.00  0.00    +0.000 N 
ATOM     12  O   UNL     1      -3.222  -9.060 -10.414  0.00  0.00    +0.000 OA
ATOM     13  H   UNL     1      -5.527  -7.481 -11.892  0.00  0.00    +0.000 HD
ATOM     14  H   UNL     1      -4.834  -9.029 -12.348  0.00  0.00    +0.000 HD
ENDBRANCH   7  10
ENDBRANCH   2   4
ENDBRANCH   1   2
BRANCH   1  15
ATOM     15  C   UNL     1      -3.841  -1.809  -5.814  0.00  0.00    +0.000 C 
BRANCH  15  20
ATOM     16  C   UNL     1      -1.499  -1.013  -2.886  0.00  0.00    +0.000 A 
ATOM     17  C   UNL     1      -0.346  -0.617  -3.565  0.00  0.00    +0.000 A 
ATOM     18  C   UNL     1      -0.346  -0.542  -4.957  0.00  0.00    +0.000 A 
ATOM     19  C   UNL     1      -1.488  -0.889  -5.677  0.00  0.00    +0.000 A 
ATOM     20  C   UNL     1      -2.641  -1.338  -5.016  0.00  0.00    +0.000 A 
ATOM     21  C   UNL     1      -2.638  -1.384  -3.611  0.00  0.00    +0.000 A 
BRANCH  16  22
ATOM     22  O   UNL     1      -1.582  -1.107  -1.515  0.00  0.00    +0.000 OA
BRANCH  22  27
ATOM     23  C   UNL     1       0.701  -2.368  -0.174  0.00  0.00    +0.000 C 
ATOM     24  C   UNL     1       0.495  -0.876  -0.077  0.00  0.00    +0.000 C 
ATOM     25  C   UNL     1       1.769  -0.071  -0.050  0.00  0.00    +0.000 C 
ATOM     26  C   UNL     1      -0.700  -0.389   0.711  0.00  0.00    +0.000 C 
ATOM     27  C   UNL     1      -0.690  -0.234  -0.786  0.00  0.00    +0.000 C 
ENDBRANCH  22  27
ENDBRANCH  16  22
ENDBRANCH  15  20
ENDBRANCH   1  15
TORSDOF 7
