REMARK  Name = 
REMARK  4 active torsions:
REMARK  status: ('A' for Active; 'I' for Inactive)
REMARK    1  A    between atoms: C_1  and  O_2
REMARK    2  A    between atoms: O_2  and  C_3
REMARK    3  A    between atoms: N_9  and  C_10
REMARK    4  A    between atoms: C_10  and  C_11
REMARK                            x       y       z     vdW  Elec       q    Type
REMARK                         _______ _______ _______ _____ _____    ______ ____
ROOT
ATOM      1  C   UNL     1       3.168   0.168  -1.258  0.00  0.00    +0.000 A 
ATOM      2  C   UNL     1       2.754   1.017  -2.282  0.00  0.00    +0.000 A 
ATOM      3  C   UNL     1       3.439   1.049  -3.503  0.00  0.00    +0.000 A 
ATOM      4  C   UNL     1       4.548   0.207  -3.707  0.00  0.00    +0.000 A 
ATOM      5  C   UNL     1       5.432   0.007  -4.797  0.00  0.00    +0.000 A 
ATOM      6  C   UNL     1       6.324  -0.975  -4.437  0.00  0.00    +0.000 A 
ATOM      7  N   UNL     1       6.019  -1.382  -3.159  0.00  0.00    +0.000 N 
ATOM      8  C   UNL     1       4.945  -0.656  -2.681  0.00  0.00    +0.000 A 
ATOM      9  C   UNL     1       4.275  -0.673  -1.442  0.00  0.00    +0.000 A 
ENDROOT
BRANCH   1  11
ATOM     10  C   UNL     1       1.389   0.821   0.180  0.00  0.00    +0.000 C 
ATOM     11  O   UNL     1       2.574   0.061  -0.026  0.00  0.00    +0.000 OA
ENDBRANCH   1  11
BRANCH   7  12
ATOM     12  C   UNL     1       6.685  -2.492  -2.481  0.00  0.00    +0.000 C 
BRANCH  12  13
ATOM     13  C   UNL     1       7.924  -2.038  -1.752  0.00  0.00    +0.000 A 
ATOM     14  C   UNL     1       7.868  -1.711  -0.391  0.00  0.00    +0.000 A 
ATOM     15  C   UNL     1       8.998  -1.226   0.269  0.00  0.00    +0.000 A 
ATOM     16  C   UNL     1      10.196  -1.065  -0.423  0.00  0.00    +0.000 A 
ATOM     17  C   UNL     1      10.272  -1.408  -1.771  0.00  0.00    +0.000 A 
ATOM     18  C   UNL     1       9.144  -1.895  -2.433  0.00  0.00    +0.000 A 
ENDBRANCH  12  13
ENDBRANCH   7  12
TORSDOF 3
