REMARK  Name = 
REMARK  7 active torsions:
REMARK  status: ('A' for Active; 'I' for Inactive)
REMARK    1  A    between atoms: C_1  and  C_2
REMARK    2  A    between atoms: C_2  and  C_3
REMARK    3  A    between atoms: C_7  and  C_8
REMARK    4  A    between atoms: C_8  and  C_9
REMARK    5  A    between atoms: C_9  and  N_10
REMARK    6  A    between atoms: N_10  and  C_11
REMARK    7  A    between atoms: C_14  and  C_15
REMARK                            x       y       z     vdW  Elec       q    Type
REMARK                         _______ _______ _______ _____ _____    ______ ____
ROOT
ATOM      1  C   UNL     1       3.299   3.553  -4.154  0.00  0.00    +0.000 C 
ENDROOT
BRANCH   1   2
ATOM      2  N   UNL     1       3.791   4.835  -4.676  0.00  0.00    +0.000 N 
ATOM      3  H   UNL     1       4.441   4.715  -5.450  0.00  0.00    +0.000 HD
BRANCH   2   4
ATOM      4  C   UNL     1       2.820   5.811  -4.976  0.00  0.00    +0.000 A 
ATOM      5  C   UNL     1       1.611   5.920  -4.277  0.00  0.00    +0.000 A 
ATOM      6  C   UNL     1       0.687   6.927  -4.569  0.00  0.00    +0.000 A 
ATOM      7  C   UNL     1       0.972   7.886  -5.540  0.00  0.00    +0.000 A 
ATOM      8  C   UNL     1       2.193   7.825  -6.220  0.00  0.00    +0.000 A 
ATOM      9  C   UNL     1       3.113   6.805  -5.922  0.00  0.00    +0.000 A 
BRANCH   7  10
ATOM     10  C   UNL     1      -0.057   8.922  -5.811  0.00  0.00    +0.000 C 
ATOM     11  N   UNL     1       0.367  10.117  -6.321  0.00  0.00    +0.000 N 
ATOM     12  O   UNL     1      -1.240   8.739  -5.551  0.00  0.00    +0.000 OA
ATOM     13  H   UNL     1       1.335  10.398  -6.315  0.00  0.00    +0.000 HD
ATOM     14  H   UNL     1      -0.335  10.846  -6.370  0.00  0.00    +0.000 HD
ENDBRANCH   7  10
ENDBRANCH   2   4
ENDBRANCH   1   2
BRANCH   1  15
ATOM     15  C   UNL     1       4.447   2.574  -3.874  0.00  0.00    +0.000 C 
BRANCH  15  20
ATOM     16  C   UNL     1       2.996   0.017  -1.410  0.00  0.00    +0.000 A 
ATOM     17  C   UNL     1       2.697  -1.030  -2.303  0.00  0.00    +0.000 A 
ATOM     18  C   UNL     1       2.984  -0.933  -3.666  0.00  0.00    +0.000 A 
ATOM     19  C   UNL     1       3.574   0.220  -4.176  0.00  0.00    +0.000 A 
ATOM     20  C   UNL     1       3.902   1.274  -3.319  0.00  0.00    +0.000 A 
ATOM     21  C   UNL     1       3.626   1.155  -1.942  0.00  0.00    +0.000 A 
BRANCH  16  23
ATOM     22  C   UNL     1       1.014  -0.168   0.100  0.00  0.00    +0.000 C 
ATOM     23  C   UNL     1       2.551  -0.088   0.060  0.00  0.00    +0.000 C 
ATOM     24  C   UNL     1       3.208  -1.285   0.758  0.00  0.00    +0.000 C 
ATOM     25  C   UNL     1       4.445  -0.709   1.433  0.00  0.00    +0.000 C 
ATOM     26  O   UNL     1       4.346   0.719   1.396  0.00  0.00    +0.000 OA
ATOM     27  C   UNL     1       3.010   1.041   0.997  0.00  0.00    +0.000 C 
ENDBRANCH  16  23
ENDBRANCH  15  20
ENDBRANCH   1  15
TORSDOF 6
