REMARK  Name = 
REMARK  4 active torsions:
REMARK  status: ('A' for Active; 'I' for Inactive)
REMARK    1  A    between atoms: C_2  and  C_4
REMARK    2  A    between atoms: N_8  and  C_9
REMARK    3  A    between atoms: C_9  and  C_10
REMARK    4  A    between atoms: C_14  and  C_15
REMARK                            x       y       z     vdW  Elec       q    Type
REMARK                         _______ _______ _______ _____ _____    ______ ____
ROOT
ATOM      1  C   UNL     1       5.164  -0.909   5.916  0.00  0.00    +0.000 C 
ATOM      2  C   UNL     1       5.140  -2.422   6.099  0.00  0.00    +0.000 C 
ATOM      3  C   UNL     1       3.908  -1.624   6.371  0.00  0.00    +0.000 C 
ENDROOT
BRANCH   1   8
ATOM      4  C   UNL     1       3.480   2.680   2.541  0.00  0.00    +0.000 A 
ATOM      5  C   UNL     1       2.731   1.916   3.434  0.00  0.00    +0.000 A 
ATOM      6  C   UNL     1       3.349   0.881   4.137  0.00  0.00    +0.000 A 
ATOM      7  C   UNL     1       4.699   0.627   3.942  0.00  0.00    +0.000 A 
ATOM      8  N   UNL     1       5.368  -0.459   4.523  0.00  0.00    +0.000 N 
ATOM      9  N   UNL     1       5.438   1.368   3.087  0.00  0.00    +0.000 NA
ATOM     10  C   UNL     1       4.820   2.374   2.403  0.00  0.00    +0.000 A 
ATOM     11  H   UNL     1       6.344  -0.334   4.255  0.00  0.00    +0.000 HD
BRANCH   4  13
ATOM     12  N   UNL     1       1.763   4.356   2.165  0.00  0.00    +0.000 N 
ATOM     13  C   UNL     1       2.903   3.755   1.712  0.00  0.00    +0.000 C 
ATOM     14  O   UNL     1       3.432   4.109   0.667  0.00  0.00    +0.000 OA
ATOM     15  H   UNL     1       1.420   5.140   1.623  0.00  0.00    +0.000 HD
ATOM     16  H   UNL     1       1.430   4.262   3.114  0.00  0.00    +0.000 HD
ENDBRANCH   4  13
ENDBRANCH   1   8
BRANCH   1  17
ATOM     17  C   UNL     1       5.930  -0.058   6.924  0.00  0.00    +0.000 A 
ATOM     18  C   UNL     1       7.216  -0.399   7.367  0.00  0.00    +0.000 A 
ATOM     19  C   UNL     1       7.965   0.475   8.155  0.00  0.00    +0.000 A 
ATOM     20  C   UNL     1       7.450   1.728   8.491  0.00  0.00    +0.000 A 
ATOM     21  C   UNL     1       6.173   2.123   8.065  0.00  0.00    +0.000 A 
ATOM     22  C   UNL     1       5.420   1.190   7.327  0.00  0.00    +0.000 A 
BRANCH  21  23
ATOM     23  C   UNL     1       5.675   3.505   8.244  0.00  0.00    +0.000 A 
ATOM     24  C   UNL     1       6.541   4.604   8.097  0.00  0.00    +0.000 A 
ATOM     25  C   UNL     1       6.057   5.910   8.128  0.00  0.00    +0.000 A 
ATOM     26  F   UNL     1       6.909   6.929   7.957  0.00  0.00    +0.000 F 
ATOM     27  C   UNL     1       4.708   6.171   8.300  0.00  0.00    +0.000 A 
ATOM     28  C   UNL     1       3.847   5.099   8.467  0.00  0.00    +0.000 A 
ATOM     29  F   UNL     1       2.535   5.327   8.616  0.00  0.00    +0.000 F 
ATOM     30  C   UNL     1       4.313   3.784   8.454  0.00  0.00    +0.000 A 
ENDBRANCH  21  23
ENDBRANCH   1  17
TORSDOF 4
