REMARK  Name = 
REMARK  8 active torsions:
REMARK  status: ('A' for Active; 'I' for Inactive)
REMARK    1  A    between atoms: N_1  and  C_2
REMARK    2  A    between atoms: C_2  and  C_3
REMARK    3  A    between atoms: C_3  and  N_4
REMARK    4  A    between atoms: C_3  and  C_17
REMARK    5  A    between atoms: C_5  and  C_7
REMARK    6  A    between atoms: C_20  and  C_21
REMARK    7  A    between atoms: C_21  and  N_22
REMARK    8  A    between atoms: C_23  and  C_25
REMARK                            x       y       z     vdW  Elec       q    Type
REMARK                         _______ _______ _______ _____ _____    ______ ____
ROOT
ATOM      1  C   UNL     1       2.967  -1.038   0.996  0.00  0.00    +0.000 C 
ENDROOT
BRANCH   1   2
ATOM      2  C   UNL     1       4.499  -1.121   0.997  0.00  0.00    +0.000 A 
ATOM      3  C   UNL     1       5.155  -2.135   1.707  0.00  0.00    +0.000 A 
ATOM      4  C   UNL     1       6.554  -2.227   1.703  0.00  0.00    +0.000 A 
ATOM      5  C   UNL     1       7.336  -1.309   0.988  0.00  0.00    +0.000 A 
ATOM      6  C   UNL     1       6.684  -0.313   0.253  0.00  0.00    +0.000 A 
ATOM      7  C   UNL     1       5.288  -0.215   0.266  0.00  0.00    +0.000 A 
BRANCH   5   8
ATOM      8  C   UNL     1       8.842  -1.379   1.020  0.00  0.00    +0.000 C 
BRANCH   8   9
ATOM      9  N   UNL     1       9.385  -2.219  -0.021  0.00  0.00    +0.000 N 
ATOM     10  C   UNL     1      10.747  -2.319  -0.193  0.00  0.00    +0.000 C 
ATOM     11  O   UNL     1      11.545  -1.694   0.501  0.00  0.00    +0.000 OA
ATOM     12  H   UNL     1       8.766  -2.818  -0.542  0.00  0.00    +0.000 HD
BRANCH  10  13
ATOM     13  C   UNL     1      11.187  -3.209  -1.250  0.00  0.00    +0.000 A 
ATOM     14  C   UNL     1      10.497  -3.984  -2.171  0.00  0.00    +0.000 A 
ATOM     15  C   UNL     1      11.443  -4.643  -2.995  0.00  0.00    +0.000 A 
ATOM     16  C   UNL     1      12.693  -4.265  -2.564  0.00  0.00    +0.000 A 
ATOM     17  N   UNL     1      12.530  -3.407  -1.510  0.00  0.00    +0.000 N 
ATOM     18  H   UNL     1      13.274  -2.962  -0.985  0.00  0.00    +0.000 HD
ENDBRANCH  10  13
ENDBRANCH   8   9
ENDBRANCH   5   8
ENDBRANCH   1   2
BRANCH   1  19
ATOM     19  N   UNL     1       2.496  -1.370  -0.342  0.00  0.00    +0.000 N 
ATOM     20  C   UNL     1       1.181  -1.508  -0.698  0.00  0.00    +0.000 C 
ATOM     21  O   UNL     1       0.261  -1.478   0.112  0.00  0.00    +0.000 OA
ATOM     22  H   UNL     1       3.194  -1.319  -1.070  0.00  0.00    +0.000 HD
BRANCH  20  23
ATOM     23  C   UNL     1       0.944  -1.742  -2.131  0.00  0.00    +0.000 A 
ATOM     24  C   UNL     1      -0.211  -2.380  -2.559  0.00  0.00    +0.000 A 
ATOM     25  S   UNL     1      -0.260  -2.638  -4.247  0.00  0.00    +0.000 S 
ATOM     26  C   UNL     1       1.241  -1.866  -4.467  0.00  0.00    +0.000 A 
ATOM     27  N   UNL     1       1.804  -1.756  -5.701  0.00  0.00    +0.000 NA
ATOM     28  C   UNL     1       2.933  -1.129  -5.720  0.00  0.00    +0.000 A 
ATOM     29  N   UNL     1       3.543  -0.587  -4.621  0.00  0.00    +0.000 N 
ATOM     30  C   UNL     1       3.004  -0.659  -3.362  0.00  0.00    +0.000 A 
ATOM     31  O   UNL     1       3.568  -0.141  -2.405  0.00  0.00    +0.000 OA
ATOM     32  C   UNL     1       1.759  -1.397  -3.275  0.00  0.00    +0.000 A 
ATOM     33  H   UNL     1       4.421  -0.094  -4.701  0.00  0.00    +0.000 HD
ENDBRANCH  20  23
ENDBRANCH   1  19
BRANCH   1  34
ATOM     34  C   UNL     1       2.445   0.353   1.472  0.00  0.00    +0.000 C 
BRANCH  34  35
ATOM     35  N   UNL     1       2.873   0.726   2.827  0.00  0.00    +0.000 NA
ATOM     36  H   UNL     1       2.652   1.708   2.984  0.00  0.00    +0.000 HD
ATOM     37  H   UNL     1       3.888   0.643   2.897  0.00  0.00    +0.000 HD
ENDBRANCH  34  35
ENDBRANCH   1  34
TORSDOF 8
