REMARK  Name = 
REMARK  7 active torsions:
REMARK  status: ('A' for Active; 'I' for Inactive)
REMARK    1  A    between atoms: C_1  and  C_2
REMARK    2  A    between atoms: C_2  and  N_3
REMARK    3  A    between atoms: C_2  and  C_16
REMARK    4  A    between atoms: C_4  and  C_6
REMARK    5  A    between atoms: C_19  and  C_20
REMARK    6  A    between atoms: C_20  and  N_21
REMARK    7  A    between atoms: C_22  and  C_24
REMARK                            x       y       z     vdW  Elec       q    Type
REMARK                         _______ _______ _______ _____ _____    ______ ____
ROOT
ATOM      1  C   UNL     1       1.007  -0.552  -0.428  0.00  0.00    +0.000 C 
ATOM      2  C   UNL     1       2.371  -0.008   0.019  0.00  0.00    +0.000 C 
ENDROOT
BRANCH   2   3
ATOM      3  C   UNL     1       2.946   0.860  -1.099  0.00  0.00    +0.000 A 
ATOM      4  C   UNL     1       2.627   2.228  -1.135  0.00  0.00    +0.000 A 
ATOM      5  C   UNL     1       3.020   3.037  -2.209  0.00  0.00    +0.000 A 
ATOM      6  C   UNL     1       3.740   2.500  -3.283  0.00  0.00    +0.000 A 
ATOM      7  C   UNL     1       4.106   1.149  -3.230  0.00  0.00    +0.000 A 
ATOM      8  C   UNL     1       3.702   0.335  -2.160  0.00  0.00    +0.000 A 
BRANCH   6   9
ATOM      9  C   UNL     1       4.075   3.344  -4.488  0.00  0.00    +0.000 C 
BRANCH   9  10
ATOM     10  N   UNL     1       5.313   4.067  -4.340  0.00  0.00    +0.000 N 
ATOM     11  C   UNL     1       5.764   4.888  -5.359  0.00  0.00    +0.000 C 
ATOM     12  O   UNL     1       5.120   5.098  -6.383  0.00  0.00    +0.000 OA
ATOM     13  H   UNL     1       6.043   3.676  -3.755  0.00  0.00    +0.000 HD
BRANCH  11  14
ATOM     14  C   UNL     1       7.070   5.629  -5.034  0.00  0.00    +0.000 C 
ATOM     15  C   UNL     1       7.950   5.890  -6.242  0.00  0.00    +0.000 C 
ATOM     16  C   UNL     1       9.286   6.214  -5.602  0.00  0.00    +0.000 C 
ATOM     17  C   UNL     1       9.307   5.390  -4.321  0.00  0.00    +0.000 C 
ATOM     18  N   UNL     1       7.952   4.854  -4.126  0.00  0.00    +0.000 NA
ATOM     19  H   UNL     1       7.661   5.015  -3.162  0.00  0.00    +0.000 HD
ENDBRANCH  11  14
ENDBRANCH   9  10
ENDBRANCH   6   9
ENDBRANCH   2   3
BRANCH   2  20
ATOM     20  N   UNL     1       3.276  -1.075   0.420  0.00  0.00    +0.000 N 
ATOM     21  C   UNL     1       2.999  -1.907   1.484  0.00  0.00    +0.000 C 
ATOM     22  O   UNL     1       1.961  -1.831   2.132  0.00  0.00    +0.000 OA
ATOM     23  H   UNL     1       4.251  -0.959   0.160  0.00  0.00    +0.000 HD
BRANCH  21  24
ATOM     24  C   UNL     1       3.993  -2.947   1.776  0.00  0.00    +0.000 A 
ATOM     25  C   UNL     1       3.590  -4.130   2.381  0.00  0.00    +0.000 A 
ATOM     26  S   UNL     1       4.865  -5.230   2.645  0.00  0.00    +0.000 S 
ATOM     27  C   UNL     1       6.005  -4.147   1.995  0.00  0.00    +0.000 A 
ATOM     28  N   UNL     1       7.328  -4.459   1.959  0.00  0.00    +0.000 NA
ATOM     29  C   UNL     1       8.082  -3.531   1.469  0.00  0.00    +0.000 A 
ATOM     30  N   UNL     1       7.631  -2.321   1.008  0.00  0.00    +0.000 N 
ATOM     31  C   UNL     1       6.302  -1.979   0.988  0.00  0.00    +0.000 A 
ATOM     32  O   UNL     1       5.922  -0.918   0.504  0.00  0.00    +0.000 OA
ATOM     33  C   UNL     1       5.416  -2.977   1.554  0.00  0.00    +0.000 A 
ATOM     34  H   UNL     1       8.272  -1.644   0.621  0.00  0.00    +0.000 HD
ENDBRANCH  21  24
ENDBRANCH   2  20
TORSDOF 6
