REMARK  Name = 
REMARK  5 active torsions:
REMARK  status: ('A' for Active; 'I' for Inactive)
REMARK    1  A    between atoms: C_2  and  C_18
REMARK    2  A    between atoms: N_3  and  C_4
REMARK    3  A    between atoms: C_4  and  C_5
REMARK    4  A    between atoms: C_8  and  C_9
REMARK    5  A    between atoms: C_9  and  C_10
REMARK                            x       y       z     vdW  Elec       q    Type
REMARK                         _______ _______ _______ _____ _____    ______ ____
ROOT
ATOM      1  O   UNL     1       3.924  -0.323  -0.682  0.00  0.00    +0.000 OA
ATOM      2  C   UNL     1       3.548   0.591   0.047  0.00  0.00    +0.000 C 
ATOM      3  N   UNL     1       2.750   1.608  -0.410  0.00  0.00    +0.000 N 
ATOM      4  H   UNL     1       2.613   2.429   0.170  0.00  0.00    +0.000 HD
ENDROOT
BRANCH   2   5
ATOM      5  C   UNL     1       3.884   0.624   1.476  0.00  0.00    +0.000 A 
ATOM      6  C   UNL     1       4.239  -0.549   2.127  0.00  0.00    +0.000 A 
ATOM      7  S   UNL     1       4.559  -0.337   3.789  0.00  0.00    +0.000 S 
ATOM      8  C   UNL     1       4.285   1.339   3.685  0.00  0.00    +0.000 A 
ATOM      9  N   UNL     1       4.425   2.140   4.776  0.00  0.00    +0.000 NA
ATOM     10  C   UNL     1       4.236   3.397   4.544  0.00  0.00    +0.000 A 
ATOM     11  N   UNL     1       3.912   3.924   3.321  0.00  0.00    +0.000 N 
ATOM     12  C   UNL     1       3.682   3.146   2.212  0.00  0.00    +0.000 A 
ATOM     13  O   UNL     1       3.258   3.636   1.169  0.00  0.00    +0.000 OA
ATOM     14  C   UNL     1       3.929   1.729   2.406  0.00  0.00    +0.000 A 
ATOM     15  H   UNL     1       3.752   4.914   3.213  0.00  0.00    +0.000 HD
ENDBRANCH   2   5
BRANCH   3  16
ATOM     16  C   UNL     1       2.352   1.727  -1.790  0.00  0.00    +0.000 C 
BRANCH  16  17
ATOM     17  C   UNL     1       3.245   2.664  -2.546  0.00  0.00    +0.000 A 
ATOM     18  C   UNL     1       3.017   4.042  -2.572  0.00  0.00    +0.000 A 
ATOM     19  C   UNL     1       3.877   4.873  -3.291  0.00  0.00    +0.000 A 
ATOM     20  C   UNL     1       4.951   4.302  -3.970  0.00  0.00    +0.000 A 
ATOM     21  N   UNL     1       5.202   2.969  -3.943  0.00  0.00    +0.000 NA
ATOM     22  C   UNL     1       4.357   2.188  -3.230  0.00  0.00    +0.000 A 
BRANCH  20  23
ATOM     23  C   UNL     1       5.933   5.172  -4.724  0.00  0.00    +0.000 C 
BRANCH  23  24
ATOM     24  C   UNL     1       7.043   5.710  -3.853  0.00  0.00    +0.000 A 
ATOM     25  C   UNL     1       7.937   4.836  -3.225  0.00  0.00    +0.000 A 
ATOM     26  C   UNL     1       8.922   5.362  -2.405  0.00  0.00    +0.000 A 
ATOM     27  N   UNL     1       9.084   6.684  -2.181  0.00  0.00    +0.000 NA
ATOM     28  C   UNL     1       8.225   7.512  -2.812  0.00  0.00    +0.000 A 
ATOM     29  C   UNL     1       7.204   7.082  -3.647  0.00  0.00    +0.000 A 
ENDBRANCH  23  24
ENDBRANCH  20  23
ENDBRANCH  16  17
ENDBRANCH   3  16
TORSDOF 5
