REMARK  Name = 
REMARK  9 active torsions:
REMARK  status: ('A' for Active; 'I' for Inactive)
REMARK    1  A    between atoms: C_1  and  O_2
REMARK    2  A    between atoms: O_2  and  C_3
REMARK    3  A    between atoms: C_10  and  C_11
REMARK    4  A    between atoms: N_13  and  C_14
REMARK    5  A    between atoms: C_14  and  C_15
REMARK    6  A    between atoms: C_18  and  C_19
REMARK    7  A    between atoms: C_19  and  O_20
REMARK    8  A    between atoms: O_20  and  C_21
REMARK    9  A    between atoms: C_21  and  C_22
REMARK                            x       y       z     vdW  Elec       q    Type
REMARK                         _______ _______ _______ _____ _____    ______ ____
ROOT
ATOM      1  C   UNL     1       2.949  -2.493  -2.232  0.00  0.00    +0.000 C 
ENDROOT
BRANCH   1   2
ATOM      2  C   UNL     1       1.819  -3.047  -1.400  0.00  0.00    +0.000 A 
ATOM      3  C   UNL     1       1.753  -4.408  -1.069  0.00  0.00    +0.000 A 
ATOM      4  C   UNL     1       0.759  -4.887  -0.203  0.00  0.00    +0.000 A 
ATOM      5  C   UNL     1      -0.187  -4.013   0.354  0.00  0.00    +0.000 A 
ATOM      6  C   UNL     1      -0.151  -2.666  -0.024  0.00  0.00    +0.000 A 
ATOM      7  C   UNL     1       0.826  -2.192  -0.905  0.00  0.00    +0.000 A 
BRANCH   5   8
ATOM      8  C   UNL     1      -1.237  -4.504   1.322  0.00  0.00    +0.000 C 
BRANCH   8   9
ATOM      9  O   UNL     1      -0.617  -5.093   2.464  0.00  0.00    +0.000 OA
BRANCH   9  10
ATOM     10  C   UNL     1      -1.584  -5.514   3.425  0.00  0.00    +0.000 C 
BRANCH  10  11
ATOM     11  C   UNL     1      -0.870  -6.124   4.600  0.00  0.00    +0.000 A 
ATOM     12  C   UNL     1       0.044  -5.370   5.344  0.00  0.00    +0.000 A 
ATOM     13  C   UNL     1       0.684  -5.967   6.418  0.00  0.00    +0.000 A 
ATOM     14  N   UNL     1       0.475  -7.244   6.802  0.00  0.00    +0.000 NA
ATOM     15  C   UNL     1      -0.409  -7.956   6.072  0.00  0.00    +0.000 A 
ATOM     16  C   UNL     1      -1.100  -7.448   4.981  0.00  0.00    +0.000 A 
ENDBRANCH  10  11
ENDBRANCH   9  10
ENDBRANCH   8   9
ENDBRANCH   5   8
ENDBRANCH   1   2
BRANCH   1  19
ATOM     17  C   UNL     1       3.574  -2.060  -4.566  0.00  0.00    +0.000 C 
ATOM     18  O   UNL     1       4.669  -1.624  -4.213  0.00  0.00    +0.000 OA
ATOM     19  N   UNL     1       2.663  -2.501  -3.644  0.00  0.00    +0.000 N 
ATOM     20  H   UNL     1       1.747  -2.823  -3.940  0.00  0.00    +0.000 HD
BRANCH  17  28
ATOM     21  C   UNL     1       0.783  -3.179  -6.244  0.00  0.00    +0.000 A 
ATOM     22  N   UNL     1      -0.141  -3.591  -7.135  0.00  0.00    +0.000 NA
ATOM     23  C   UNL     1       0.117  -3.417  -8.434  0.00  0.00    +0.000 A 
ATOM     24  N   UNL     1       1.207  -2.871  -8.963  0.00  0.00    +0.000 NA
ATOM     25  C   UNL     1       2.111  -2.499  -8.042  0.00  0.00    +0.000 A 
ATOM     26  S   UNL     1       3.565  -1.779  -8.541  0.00  0.00    +0.000 S 
ATOM     27  C   UNL     1       4.100  -1.633  -6.933  0.00  0.00    +0.000 A 
ATOM     28  C   UNL     1       3.201  -2.119  -5.992  0.00  0.00    +0.000 A 
ATOM     29  C   UNL     1       2.003  -2.623  -6.659  0.00  0.00    +0.000 A 
BRANCH  21  31
ATOM     30  C   UNL     1      -0.911  -3.279  -4.654  0.00  0.00    +0.000 C 
ATOM     31  O   UNL     1       0.493  -3.335  -4.904  0.00  0.00    +0.000 OA
ENDBRANCH  21  31
ENDBRANCH  17  28
ENDBRANCH   1  19
TORSDOF 8
