REMARK  Name = 
REMARK  4 active torsions:
REMARK  status: ('A' for Active; 'I' for Inactive)
REMARK    1  A    between atoms: N_1  and  C_2
REMARK    2  A    between atoms: C_2  and  C_3
REMARK    3  A    between atoms: C_7  and  C_8
REMARK    4  A    between atoms: C_9  and  C_10
REMARK                            x       y       z     vdW  Elec       q    Type
REMARK                         _______ _______ _______ _____ _____    ______ ____
ROOT
ATOM      1  C   UNL     1       2.806  -0.697   1.215  0.00  0.00    +0.000 A 
ATOM      2  C   UNL     1       2.606  -2.069   1.325  0.00  0.00    +0.000 A 
ATOM      3  N   UNL     1       2.909  -2.768   2.443  0.00  0.00    +0.000 NA
ATOM      4  C   UNL     1       3.409  -2.025   3.461  0.00  0.00    +0.000 A 
ATOM      5  C   UNL     1       3.607  -0.649   3.380  0.00  0.00    +0.000 A 
ATOM      6  N   UNL     1       3.304   0.036   2.250  0.00  0.00    +0.000 NA
ENDROOT
BRANCH   5   7
ATOM      7  C   UNL     1       4.196   0.091   4.504  0.00  0.00    +0.000 C 
ATOM      8  C   UNL     1       4.459   1.408   4.489  0.00  0.00    +0.000 C 
BRANCH   8   9
ATOM      9  C   UNL     1       5.136   2.131   5.577  0.00  0.00    +0.000 A 
ATOM     10  C   UNL     1       6.101   1.523   6.393  0.00  0.00    +0.000 A 
ATOM     11  C   UNL     1       6.786   2.258   7.364  0.00  0.00    +0.000 A 
ATOM     12  C   UNL     1       6.522   3.614   7.525  0.00  0.00    +0.000 A 
ATOM     13  C   UNL     1       5.569   4.235   6.719  0.00  0.00    +0.000 A 
ATOM     14  C   UNL     1       4.883   3.500   5.750  0.00  0.00    +0.000 A 
ENDBRANCH   8   9
ENDBRANCH   5   7
BRANCH   1  15
ATOM     15  C   UNL     1       2.421   0.036  -0.045  0.00  0.00    +0.000 C 
BRANCH  15  16
ATOM     16  N   UNL     1       1.044   0.528   0.010  0.00  0.00    +0.000 NA
ATOM     17  H   UNL     1       0.880   1.140  -0.786  0.00  0.00    +0.000 HD
ATOM     18  H   UNL     1       0.965   1.122   0.839  0.00  0.00    +0.000 HD
ENDBRANCH  15  16
ENDBRANCH   1  15
TORSDOF 4
