REMARK  Name = 
REMARK  7 active torsions:
REMARK  status: ('A' for Active; 'I' for Inactive)
REMARK    1  A    between atoms: C_2  and  C_3
REMARK    2  A    between atoms: C_6  and  O_7
REMARK    3  A    between atoms: O_7  and  C_8
REMARK    4  A    between atoms: C_8  and  C_9
REMARK    5  A    between atoms: C_9  and  C_12
REMARK    6  A    between atoms: C_16  and  C_17
REMARK    7  A    between atoms: C_17  and  C_18
REMARK                            x       y       z     vdW  Elec       q    Type
REMARK                         _______ _______ _______ _____ _____    ______ ____
ROOT
ATOM      1  C   UNL     1       5.876  -0.922   0.298  0.00  0.00    +0.000 C 
ATOM      2  F   UNL     1       6.257  -0.156  -0.771  0.00  0.00    +0.000 F 
ATOM      3  F   UNL     1       6.103  -0.140   1.400  0.00  0.00    +0.000 F 
ENDROOT
BRANCH   1   4
ATOM      4  C   UNL     1       6.681  -2.216   0.369  0.00  0.00    +0.000 A 
ATOM      5  C   UNL     1       8.063  -2.127   0.507  0.00  0.00    +0.000 A 
ATOM      6  C   UNL     1       8.799  -3.297   0.640  0.00  0.00    +0.000 A 
ATOM      7  C   UNL     1       8.144  -4.527   0.628  0.00  0.00    +0.000 A 
ATOM      8  C   UNL     1       6.762  -4.554   0.467  0.00  0.00    +0.000 A 
ATOM      9  N   UNL     1       6.034  -3.418   0.332  0.00  0.00    +0.000 NA
BRANCH   8  10
ATOM     10  C   UNL     1       5.990  -5.853   0.484  0.00  0.00    +0.000 C 
BRANCH  10  11
ATOM     11  C   UNL     1       5.897  -6.472  -0.905  0.00  0.00    +0.000 C 
ATOM     12  C   UNL     1       5.094  -5.743  -2.002  0.00  0.00    +0.000 C 
ATOM     13  N   UNL     1       4.371  -6.989  -2.300  0.00  0.00    +0.000 NA
ATOM     14  C   UNL     1       4.842  -7.592  -1.046  0.00  0.00    +0.000 C 
ATOM     15  H   UNL     1       4.700  -7.468  -3.139  0.00  0.00    +0.000 HD
ENDBRANCH  10  11
ENDBRANCH   8  10
ENDBRANCH   1   4
BRANCH   1  16
ATOM     16  C   UNL     1       4.371  -1.196   0.196  0.00  0.00    +0.000 C 
BRANCH  16  17
ATOM     17  O   UNL     1       3.639   0.040   0.180  0.00  0.00    +0.000 OA
BRANCH  17  21
ATOM     18  C   UNL     1      -0.517   0.038  -0.050  0.00  0.00    +0.000 A 
ATOM     19  C   UNL     1       0.147  -1.191  -0.058  0.00  0.00    +0.000 A 
ATOM     20  C   UNL     1       1.544  -1.238   0.019  0.00  0.00    +0.000 A 
ATOM     21  C   UNL     1       2.279  -0.056   0.104  0.00  0.00    +0.000 A 
ATOM     22  C   UNL     1       1.611   1.173   0.115  0.00  0.00    +0.000 A 
ATOM     23  C   UNL     1       0.217   1.224   0.039  0.00  0.00    +0.000 A 
BRANCH  18  25
ATOM     24  N   UNL     1      -3.103   0.107  -0.192  0.00  0.00    +0.000 NA
ATOM     25  C   UNL     1      -1.946   0.079  -0.130  0.00  0.00    +0.000 C 
ENDBRANCH  18  25
ENDBRANCH  17  21
ENDBRANCH  16  17
ENDBRANCH   1  16
TORSDOF 7
