REMARK  Name = 
REMARK  9 active torsions:
REMARK  status: ('A' for Active; 'I' for Inactive)
REMARK    1  A    between atoms: C_1  and  C_2
REMARK    2  A    between atoms: N_4  and  C_5
REMARK    3  A    between atoms: C_9  and  C_10
REMARK    4  A    between atoms: C_10  and  C_11
REMARK    5  A    between atoms: C_10  and  C_12
REMARK    6  A    between atoms: C_10  and  C_13
REMARK    7  A    between atoms: C_13  and  N_14
REMARK    8  A    between atoms: C_18  and  C_19
REMARK    9  A    between atoms: C_26  and  C_27
REMARK                            x       y       z     vdW  Elec       q    Type
REMARK                         _______ _______ _______ _____ _____    ______ ____
ROOT
ATOM      1  C   UNL     1      -1.304   1.025  -5.253  0.00  0.00    +0.000 C 
ATOM      2  C   UNL     1      -0.837  -0.261  -5.983  0.00  0.00    +0.000 C 
ATOM      3  C   UNL     1      -2.323   0.649  -4.156  0.00  0.00    +0.000 C 
ENDROOT
BRANCH   1   8
ATOM      4  C   UNL     1       1.948   1.431  -3.176  0.00  0.00    +0.000 A 
ATOM      5  C   UNL     1       2.335   2.722  -3.549  0.00  0.00    +0.000 A 
ATOM      6  C   UNL     1       1.554   3.499  -4.400  0.00  0.00    +0.000 A 
ATOM      7  C   UNL     1       0.370   2.988  -4.929  0.00  0.00    +0.000 A 
ATOM      8  C   UNL     1      -0.062   1.693  -4.607  0.00  0.00    +0.000 A 
ATOM      9  C   UNL     1       0.729   0.963  -3.692  0.00  0.00    +0.000 A 
BRANCH   4  13
ATOM     10  C   UNL     1       1.992  -2.319  -3.105  0.00  0.00    +0.000 C 
ATOM     11  C   UNL     1       2.694  -1.771  -1.864  0.00  0.00    +0.000 C 
ATOM     12  C   UNL     1       2.205  -0.367  -1.453  0.00  0.00    +0.000 C 
ATOM     13  N   UNL     1       2.741   0.672  -2.340  0.00  0.00    +0.000 N 
ATOM     14  C   UNL     1       4.197   0.602  -2.550  0.00  0.00    +0.000 C 
ATOM     15  C   UNL     1       4.621  -0.832  -2.941  0.00  0.00    +0.000 C 
ATOM     16  C   UNL     1       6.140  -0.952  -2.966  0.00  0.00    +0.000 C 
ATOM     17  O   UNL     1       4.126  -1.813  -2.011  0.00  0.00    +0.000 OA
ENDBRANCH   4  13
ENDBRANCH   1   8
BRANCH   1  18
ATOM     18  C   UNL     1      -1.983   1.967  -6.296  0.00  0.00    +0.000 C 
BRANCH  18  19
ATOM     19  N   UNL     1      -3.136   1.388  -6.972  0.00  0.00    +0.000 N 
ATOM     20  C   UNL     1      -3.793   2.141  -7.934  0.00  0.00    +0.000 A 
ATOM     21  C   UNL     1      -3.170   3.075  -8.772  0.00  0.00    +0.000 A 
ATOM     22  N   UNL     1      -3.798   3.773  -9.753  0.00  0.00    +0.000 NA
ATOM     23  C   UNL     1      -5.113   3.477  -9.891  0.00  0.00    +0.000 A 
ATOM     24  C   UNL     1      -5.753   2.547  -9.078  0.00  0.00    +0.000 A 
ATOM     25  N   UNL     1      -5.107   1.877  -8.084  0.00  0.00    +0.000 NA
ATOM     26  H   UNL     1      -3.854   0.958  -6.389  0.00  0.00    +0.000 HD
BRANCH  23  27
ATOM     27  C   UNL     1      -5.869   4.161 -10.974  0.00  0.00    +0.000 C 
ATOM     28  N   UNL     1      -5.164   5.046 -11.744  0.00  0.00    +0.000 N 
ATOM     29  O   UNL     1      -7.058   3.949 -11.170  0.00  0.00    +0.000 OA
ATOM     30  H   UNL     1      -4.173   5.204 -11.580  0.00  0.00    +0.000 HD
ATOM     31  H   UNL     1      -5.633   5.517 -12.503  0.00  0.00    +0.000 HD
ENDBRANCH  23  27
ENDBRANCH  18  19
ENDBRANCH   1  18
TORSDOF 5
