REMARK  Name = 
REMARK  5 active torsions:
REMARK  status: ('A' for Active; 'I' for Inactive)
REMARK    1  A    between atoms: C_2  and  C_4
REMARK    2  A    between atoms: N_8  and  CA_9
REMARK    3  A    between atoms: CA_9  and  C_10
REMARK    4  A    between atoms: CA_9  and  C_12
REMARK    5  A    between atoms: C_10  and  O_11
REMARK                            x       y       z     vdW  Elec       q    Type
REMARK                         _______ _______ _______ _____ _____    ______ ____
ROOT
ATOM      1  C   UNL     1       4.457   1.738   0.502  0.00  0.00    +0.000 A 
ATOM      2  C   UNL     1       5.746   1.656   0.042  0.00  0.00    +0.000 A 
ATOM      3  N   UNL     1       6.149   2.109  -1.166  0.00  0.00    +0.000 NA
ATOM      4  C   UNL     1       5.206   2.656  -1.950  0.00  0.00    +0.000 A 
ATOM      5  N   UNL     1       5.529   3.227  -3.164  0.00  0.00    +0.000 N 
ATOM      6  N   UNL     1       3.913   2.735  -1.610  0.00  0.00    +0.000 NA
ATOM      7  C   UNL     1       3.560   2.273  -0.390  0.00  0.00    +0.000 A 
ATOM      8  H   UNL     1       4.668   3.235  -3.704  0.00  0.00    +0.000 HD
ENDROOT
BRANCH   1  10
ATOM      9  N   UNL     1       4.932   1.254   2.835  0.00  0.00    +0.000 N 
ATOM     10  C   UNL     1       4.013   1.277   1.823  0.00  0.00    +0.000 C 
ATOM     11  O   UNL     1       2.850   0.960   2.020  0.00  0.00    +0.000 OA
ATOM     12  H   UNL     1       4.571   1.030   3.755  0.00  0.00    +0.000 HD
ATOM     13  H   UNL     1       5.814   1.746   2.798  0.00  0.00    +0.000 HD
ENDBRANCH   1  10
BRANCH   5  14
ATOM     14  CA  UNL     1       6.691   2.711  -3.874  0.00  0.00    +0.000 C 
BRANCH  14  15
ATOM     15  C   UNL     1       7.353   3.832  -4.683  0.00  0.00    +0.000 A 
ATOM     16  C   UNL     1       8.729   3.756  -4.965  0.00  0.00    +0.000 A 
ATOM     17  C   UNL     1       9.359   4.736  -5.738  0.00  0.00    +0.000 A 
ATOM     18  C   UNL     1       8.620   5.802  -6.242  0.00  0.00    +0.000 A 
ATOM     19 CL   UNL     1       9.389   6.995  -7.214  0.00  0.00    +0.000 Cl
ATOM     20  C   UNL     1       7.260   5.906  -5.967  0.00  0.00    +0.000 A 
ATOM     21  C   UNL     1       6.631   4.930  -5.188  0.00  0.00    +0.000 A 
ENDBRANCH  14  15
BRANCH  14  22
ATOM     22  C   UNL     1       6.280   1.536  -4.800  0.00  0.00    +0.000 C 
BRANCH  22  23
ATOM     23  O   UNL     1       5.197   1.873  -5.677  0.00  0.00    +0.000 OA
ATOM     24  H   UNL     1       5.334   2.785  -5.987  0.00  0.00    +0.000 HD
ENDBRANCH  22  23
ENDBRANCH  14  22
ENDBRANCH   5  14
TORSDOF 5
