REMARK  Name = 
REMARK  4 active torsions:
REMARK  status: ('A' for Active; 'I' for Inactive)
REMARK    1  A    between atoms: C_2  and  C_4
REMARK    2  A    between atoms: N_8  and  C_9
REMARK    3  A    between atoms: C_9  and  C_10
REMARK    4  A    between atoms: C_14  and  C_15
REMARK                            x       y       z     vdW  Elec       q    Type
REMARK                         _______ _______ _______ _____ _____    ______ ____
ROOT
ATOM      1  C   UNL     1       5.163  -5.965  -0.751  0.00  0.00    +0.000 C 
ENDROOT
BRANCH   1   6
ATOM      2  C   UNL     1       4.599  -5.567  -5.855  0.00  0.00    +0.000 A 
ATOM      3  C   UNL     1       4.119  -6.517  -4.962  0.00  0.00    +0.000 A 
ATOM      4  C   UNL     1       4.445  -6.403  -3.612  0.00  0.00    +0.000 A 
ATOM      5  C   UNL     1       5.247  -5.353  -3.175  0.00  0.00    +0.000 A 
ATOM      6  N   UNL     1       5.562  -5.143  -1.864  0.00  0.00    +0.000 N 
ATOM      7  N   UNL     1       5.737  -4.441  -4.039  0.00  0.00    +0.000 NA
ATOM      8  C   UNL     1       5.415  -4.567  -5.354  0.00  0.00    +0.000 A 
ATOM      9  H   UNL     1       6.231  -4.398  -1.724  0.00  0.00    +0.000 HD
BRANCH   2  11
ATOM     10  N   UNL     1       3.094  -6.181  -7.649  0.00  0.00    +0.000 N 
ATOM     11  C   UNL     1       4.282  -5.603  -7.294  0.00  0.00    +0.000 C 
ATOM     12  O   UNL     1       5.027  -5.111  -8.130  0.00  0.00    +0.000 OA
ATOM     13  H   UNL     1       2.836  -6.126  -8.625  0.00  0.00    +0.000 HD
ATOM     14  H   UNL     1       2.361  -6.379  -6.982  0.00  0.00    +0.000 HD
ENDBRANCH   2  11
ENDBRANCH   1   6
BRANCH   1  15
ATOM     15  C   UNL     1       6.129  -7.099  -0.512  0.00  0.00    +0.000 A 
ATOM     16  C   UNL     1       7.457  -6.836  -0.145  0.00  0.00    +0.000 A 
ATOM     17  C   UNL     1       8.329  -7.882   0.135  0.00  0.00    +0.000 A 
ATOM     18  C   UNL     1       7.877  -9.199   0.075  0.00  0.00    +0.000 A 
ATOM     19  C   UNL     1       6.542  -9.505  -0.253  0.00  0.00    +0.000 A 
ATOM     20  C   UNL     1       5.693  -8.435  -0.586  0.00  0.00    +0.000 A 
BRANCH  19  21
ATOM     21  C   UNL     1       6.034 -10.887  -0.174  0.00  0.00    +0.000 A 
ATOM     22  C   UNL     1       6.500 -11.773   0.807  0.00  0.00    +0.000 A 
ATOM     23  C   UNL     1       5.984 -13.060   0.879  0.00  0.00    +0.000 A 
ATOM     24  C   UNL     1       5.003 -13.438  -0.023  0.00  0.00    +0.000 A 
ATOM     25  C   UNL     1       4.581 -12.505  -0.955  0.00  0.00    +0.000 A 
ATOM     26  F   UNL     1       3.622 -12.868  -1.819  0.00  0.00    +0.000 F 
ATOM     27  N   UNL     1       5.060 -11.245  -1.048  0.00  0.00    +0.000 NA
ENDBRANCH  19  21
ENDBRANCH   1  15
TORSDOF 4
