REMARK  Name = 
REMARK  6 active torsions:
REMARK  status: ('A' for Active; 'I' for Inactive)
REMARK    1  A    between atoms: N_1  and  C_2
REMARK    2  A    between atoms: C_2  and  C_3
REMARK    3  A    between atoms: C_3  and  C_4
REMARK    4  A    between atoms: C_7  and  C_8
REMARK    5  A    between atoms: C_8  and  N_9
REMARK    6  A    between atoms: C_16  and  C_17
REMARK                            x       y       z     vdW  Elec       q    Type
REMARK                         _______ _______ _______ _____ _____    ______ ____
ROOT
ATOM      1  N   UNL     1       9.282   1.208  -1.488  0.00  0.00    +0.000 N 
ATOM      2  C   UNL     1       9.652   1.781  -0.300  0.00  0.00    +0.000 A 
ATOM      3  N   UNL     1      10.375   2.862  -0.487  0.00  0.00    +0.000 NA
ATOM      4  C   UNL     1      10.502   2.984  -1.847  0.00  0.00    +0.000 A 
ATOM      5  C   UNL     1      11.227   3.916  -2.597  0.00  0.00    +0.000 A 
ATOM      6  C   UNL     1      11.239   3.788  -3.986  0.00  0.00    +0.000 A 
ATOM      7  F   UNL     1      11.990   4.660  -4.676  0.00  0.00    +0.000 F 
ATOM      8  C   UNL     1      10.528   2.780  -4.645  0.00  0.00    +0.000 A 
ATOM      9  C   UNL     1       9.772   1.858  -3.904  0.00  0.00    +0.000 A 
ATOM     10  C   UNL     1       9.803   1.974  -2.505  0.00  0.00    +0.000 A 
ENDROOT
BRANCH   8  11
ATOM     11  C   UNL     1      10.589   2.632  -6.130  0.00  0.00    +0.000 C 
ATOM     12  N   UNL     1      11.366   3.509  -6.835  0.00  0.00    +0.000 N 
ATOM     13  O   UNL     1       9.978   1.747  -6.707  0.00  0.00    +0.000 OA
ATOM     14  H   UNL     1      11.869   4.287  -6.423  0.00  0.00    +0.000 HD
ATOM     15  H   UNL     1      11.404   3.403  -7.840  0.00  0.00    +0.000 HD
ENDBRANCH   8  11
BRANCH   1  16
ATOM     16  C   UNL     1       8.649  -0.097  -1.637  0.00  0.00    +0.000 C 
BRANCH  16  20
ATOM     17  C   UNL     1       4.395   0.163  -1.461  0.00  0.00    +0.000 A 
ATOM     18  C   UNL     1       5.003   0.267  -2.706  0.00  0.00    +0.000 A 
ATOM     19  C   UNL     1       6.390   0.158  -2.794  0.00  0.00    +0.000 A 
ATOM     20  C   UNL     1       7.150  -0.015  -1.633  0.00  0.00    +0.000 A 
ATOM     21  C   UNL     1       6.451  -0.105  -0.435  0.00  0.00    +0.000 A 
ATOM     22  N   UNL     1       5.106  -0.023  -0.323  0.00  0.00    +0.000 NA
BRANCH  17  23
ATOM     23  C   UNL     1       2.896   0.266  -1.343  0.00  0.00    +0.000 C 
BRANCH  23  24
ATOM     24  C   UNL     1       2.450   1.713  -1.132  0.00  0.00    +0.000 C 
BRANCH  24  25
ATOM     25  N   UNL     1       0.992   1.801  -1.030  0.00  0.00    +0.000 NA
ATOM     26  H   UNL     1       0.729   2.767  -0.833  0.00  0.00    +0.000 HD
ATOM     27  H   UNL     1       0.678   1.256  -0.226  0.00  0.00    +0.000 HD
ENDBRANCH  24  25
ENDBRANCH  23  24
ENDBRANCH  17  23
ENDBRANCH  16  20
ENDBRANCH   1  16
TORSDOF 6
