REMARK  Name = 
REMARK  5 active torsions:
REMARK  status: ('A' for Active; 'I' for Inactive)
REMARK    1  A    between atoms: C_2  and  C_4
REMARK    2  A    between atoms: C_7  and  N_8
REMARK    3  A    between atoms: N_8  and  C_9
REMARK    4  A    between atoms: C_9  and  C_10
REMARK    5  A    between atoms: C_13  and  C_14
REMARK                            x       y       z     vdW  Elec       q    Type
REMARK                         _______ _______ _______ _____ _____    ______ ____
ROOT
ATOM      1  N   UNL     1       5.325  -0.992  -4.654  0.00  0.00    +0.000 N 
ATOM      2  H   UNL     1       6.326  -1.016  -4.475  0.00  0.00    +0.000 HD
ENDROOT
BRANCH   1   6
ATOM      3  C   UNL     1       3.243  -2.934  -1.606  0.00  0.00    +0.000 A 
ATOM      4  C   UNL     1       2.654  -2.900  -2.861  0.00  0.00    +0.000 A 
ATOM      5  C   UNL     1       3.330  -2.255  -3.899  0.00  0.00    +0.000 A 
ATOM      6  C   UNL     1       4.593  -1.704  -3.686  0.00  0.00    +0.000 A 
ATOM      7  C   UNL     1       5.072  -1.769  -2.369  0.00  0.00    +0.000 A 
ATOM      8  N   UNL     1       4.447  -2.367  -1.324  0.00  0.00    +0.000 NA
BRANCH   3  10
ATOM      9  N   UNL     1       3.149  -3.499   0.752  0.00  0.00    +0.000 N 
ATOM     10  C   UNL     1       2.535  -3.606  -0.467  0.00  0.00    +0.000 C 
ATOM     11  O   UNL     1       1.476  -4.204  -0.609  0.00  0.00    +0.000 OA
ATOM     12  H   UNL     1       2.717  -3.915   1.564  0.00  0.00    +0.000 HD
ATOM     13  H   UNL     1       4.012  -2.977   0.833  0.00  0.00    +0.000 HD
ENDBRANCH   3  10
ENDBRANCH   1   6
BRANCH   1  14
ATOM     14  C   UNL     1       4.954  -0.843  -6.074  0.00  0.00    +0.000 C 
ATOM     15  C   UNL     1       5.030   0.591  -6.591  0.00  0.00    +0.000 C 
ATOM     16  C   UNL     1       3.708  -0.096  -6.514  0.00  0.00    +0.000 C 
BRANCH  14  17
ATOM     17  C   UNL     1       5.456  -1.960  -6.989  0.00  0.00    +0.000 A 
ATOM     18  C   UNL     1       4.677  -3.103  -7.239  0.00  0.00    +0.000 A 
ATOM     19  C   UNL     1       5.094  -4.103  -8.123  0.00  0.00    +0.000 A 
ATOM     20  C   UNL     1       6.314  -3.991  -8.795  0.00  0.00    +0.000 A 
ATOM     21  C   UNL     1       7.118  -2.871  -8.542  0.00  0.00    +0.000 A 
ATOM     22  C   UNL     1       6.696  -1.880  -7.647  0.00  0.00    +0.000 A 
BRANCH  20  23
ATOM     23  C   UNL     1       6.758  -5.037  -9.788  0.00  0.00    +0.000 C 
ATOM     24  F   UNL     1       5.882  -6.071  -9.920  0.00  0.00    +0.000 F 
ATOM     25  F   UNL     1       6.922  -4.526 -11.040  0.00  0.00    +0.000 F 
ATOM     26  F   UNL     1       7.952  -5.599  -9.455  0.00  0.00    +0.000 F 
ENDBRANCH  20  23
ENDBRANCH  14  17
ENDBRANCH   1  14
TORSDOF 5
