REMARK  Name = 
REMARK  6 active torsions:
REMARK  status: ('A' for Active; 'I' for Inactive)
REMARK    1  A    between atoms: C_1  and  C_2
REMARK    2  A    between atoms: N_9  and  C_10
REMARK    3  A    between atoms: C_10  and  C_11
REMARK    4  A    between atoms: C_14  and  C_15
REMARK    5  A    between atoms: C_15  and  N_16
REMARK    6  A    between atoms: C_17  and  C_19
REMARK                            x       y       z     vdW  Elec       q    Type
REMARK                         _______ _______ _______ _____ _____    ______ ____
ROOT
ATOM      1  C   UNL     1      -0.634  -4.284  -0.048  0.00  0.00    +0.000 A 
ATOM      2  C   UNL     1      -1.274  -5.528   0.008  0.00  0.00    +0.000 A 
ATOM      3  C   UNL     1      -2.671  -5.614   0.064  0.00  0.00    +0.000 A 
ATOM      4  C   UNL     1      -3.463  -4.457   0.046  0.00  0.00    +0.000 A 
ATOM      5  C   UNL     1      -2.822  -3.211   0.026  0.00  0.00    +0.000 A 
ATOM      6  C   UNL     1      -1.425  -3.125  -0.029  0.00  0.00    +0.000 A 
ENDROOT
BRANCH   1   7
ATOM      7  C   UNL     1       0.870  -4.194  -0.106  0.00  0.00    +0.000 C 
BRANCH   7  16
ATOM      8  C   UNL     1       2.203  -6.303  -3.839  0.00  0.00    +0.000 C 
ATOM      9  C   UNL     1       2.905  -5.002  -4.008  0.00  0.00    +0.000 A 
ATOM     10  C   UNL     1       3.552  -4.535  -5.142  0.00  0.00    +0.000 A 
ATOM     11  C   UNL     1       4.194  -3.325  -4.814  0.00  0.00    +0.000 A 
ATOM     12  C   UNL     1       3.960  -3.098  -3.480  0.00  0.00    +0.000 A 
ATOM     13  N   UNL     1       3.146  -4.100  -2.973  0.00  0.00    +0.000 N 
ATOM     14  C   UNL     1       2.760  -4.165  -1.615  0.00  0.00    +0.000 C 
ATOM     15  O   UNL     1       3.582  -3.934  -0.740  0.00  0.00    +0.000 OA
ATOM     16  N   UNL     1       1.402  -4.345  -1.447  0.00  0.00    +0.000 N 
ATOM     17  H   UNL     1       0.797  -4.122  -2.229  0.00  0.00    +0.000 HD
ENDBRANCH   7  16
ENDBRANCH   1   7
BRANCH   4  18
ATOM     18  C   UNL     1      -4.969  -4.544   0.065  0.00  0.00    +0.000 C 
BRANCH  18  19
ATOM     19  N   UNL     1      -5.497  -4.442   1.403  0.00  0.00    +0.000 N 
ATOM     20  C   UNL     1      -6.847  -4.456   1.635  0.00  0.00    +0.000 C 
ATOM     21  O   UNL     1      -7.672  -4.409   0.726  0.00  0.00    +0.000 OA
ATOM     22  H   UNL     1      -4.858  -4.658   2.161  0.00  0.00    +0.000 HD
BRANCH  20  23
ATOM     23  C   UNL     1      -7.270  -4.518   3.039  0.00  0.00    +0.000 A 
ATOM     24  C   UNL     1      -8.498  -3.998   3.429  0.00  0.00    +0.000 A 
ATOM     25  S   UNL     1      -8.842  -4.227   5.085  0.00  0.00    +0.000 S 
ATOM     26  C   UNL     1      -7.397  -5.097   5.319  0.00  0.00    +0.000 A 
ATOM     27  N   UNL     1      -7.117  -5.688   6.511  0.00  0.00    +0.000 NA
ATOM     28  C   UNL     1      -6.004  -6.339   6.536  0.00  0.00    +0.000 A 
ATOM     29  N   UNL     1      -5.119  -6.415   5.487  0.00  0.00    +0.000 N 
ATOM     30  C   UNL     1      -5.327  -5.786   4.284  0.00  0.00    +0.000 A 
ATOM     31  O   UNL     1      -4.475  -5.779   3.409  0.00  0.00    +0.000 OA
ATOM     32  C   UNL     1      -6.614  -5.117   4.177  0.00  0.00    +0.000 A 
ATOM     33  H   UNL     1      -4.237  -6.888   5.594  0.00  0.00    +0.000 HD
ENDBRANCH  20  23
ENDBRANCH  18  19
ENDBRANCH   4  18
TORSDOF 5
