REMARK  Name = 
REMARK  10 active torsions:
REMARK  status: ('A' for Active; 'I' for Inactive)
REMARK    1  A    between atoms: C_1  and  C_2
REMARK    2  A    between atoms: C_2  and  O_3
REMARK    3  A    between atoms: O_3  and  C_4
REMARK    4  A    between atoms: C_4  and  C_5
REMARK    5  A    between atoms: C_5  and  N_6
REMARK    6  A    between atoms: C_5  and  C_19
REMARK    7  A    between atoms: C_7  and  C_9
REMARK    8  A    between atoms: C_22  and  O_23
REMARK    9  A    between atoms: O_23  and  C_24
REMARK   10  A    between atoms: C_24  and  C_25
REMARK                            x       y       z     vdW  Elec       q    Type
REMARK                         _______ _______ _______ _____ _____    ______ ____
ROOT
ATOM      1  C   UNL     1       4.848  -0.028  -2.697  0.00  0.00    +0.000 C 
ENDROOT
BRANCH   1   2
ATOM      2  C   UNL     1       6.363   0.052  -2.762  0.00  0.00    +0.000 A 
ATOM      3  C   UNL     1       7.123  -0.939  -3.395  0.00  0.00    +0.000 A 
ATOM      4  C   UNL     1       8.516  -0.820  -3.470  0.00  0.00    +0.000 A 
ATOM      5  C   UNL     1       9.154   0.300  -2.936  0.00  0.00    +0.000 A 
ATOM      6  C   UNL     1       8.408   1.264  -2.261  0.00  0.00    +0.000 A 
ATOM      7  C   UNL     1       7.029   1.141  -2.183  0.00  0.00    +0.000 A 
BRANCH   5   8
ATOM      8  O   UNL     1      10.508   0.399  -3.113  0.00  0.00    +0.000 OA
BRANCH   8   9
ATOM      9  C   UNL     1      10.999   1.752  -3.096  0.00  0.00    +0.000 C 
BRANCH   9  10
ATOM     10  C   UNL     1      12.306   1.877  -3.835  0.00  0.00    +0.000 A 
ATOM     11  C   UNL     1      12.589   1.039  -4.908  0.00  0.00    +0.000 A 
ATOM     12  C   UNL     1      13.782   1.210  -5.597  0.00  0.00    +0.000 A 
ATOM     13  C   UNL     1      14.649   2.223  -5.215  0.00  0.00    +0.000 A 
ATOM     14  C   UNL     1      14.282   3.036  -4.155  0.00  0.00    +0.000 A 
ATOM     15  N   UNL     1      13.132   2.892  -3.462  0.00  0.00    +0.000 NA
ENDBRANCH   9  10
ENDBRANCH   8   9
ENDBRANCH   5   8
ENDBRANCH   1   2
BRANCH   1  16
ATOM     16  N   UNL     1       4.272   1.132  -3.365  0.00  0.00    +0.000 N 
ATOM     17  C   UNL     1       3.940   1.163  -4.693  0.00  0.00    +0.000 C 
ATOM     18  O   UNL     1       4.029   0.189  -5.431  0.00  0.00    +0.000 OA
ATOM     19  H   UNL     1       4.368   2.008  -2.872  0.00  0.00    +0.000 HD
BRANCH  17  20
ATOM     20  C   UNL     1       3.409   2.448  -5.172  0.00  0.00    +0.000 A 
ATOM     21  C   UNL     1       2.530   2.490  -6.246  0.00  0.00    +0.000 A 
ATOM     22  S   UNL     1       2.020   4.068  -6.648  0.00  0.00    +0.000 S 
ATOM     23  C   UNL     1       2.995   4.756  -5.433  0.00  0.00    +0.000 A 
ATOM     24  N   UNL     1       3.063   6.104  -5.263  0.00  0.00    +0.000 NA
ATOM     25  C   UNL     1       3.877   6.484  -4.332  0.00  0.00    +0.000 A 
ATOM     26  N   UNL     1       4.614   5.642  -3.547  0.00  0.00    +0.000 N 
ATOM     27  C   UNL     1       4.509   4.274  -3.628  0.00  0.00    +0.000 A 
ATOM     28  O   UNL     1       5.064   3.558  -2.803  0.00  0.00    +0.000 OA
ATOM     29  C   UNL     1       3.663   3.793  -4.702  0.00  0.00    +0.000 A 
ATOM     30  H   UNL     1       5.196   5.998  -2.803  0.00  0.00    +0.000 HD
ENDBRANCH  17  20
ENDBRANCH   1  16
BRANCH   1  31
ATOM     31  C   UNL     1       4.395  -0.092  -1.218  0.00  0.00    +0.000 C 
BRANCH  31  32
ATOM     32  O   UNL     1       2.970  -0.178  -1.136  0.00  0.00    +0.000 OA
BRANCH  32  34
ATOM     33  C   UNL     1       1.008  -0.331   0.190  0.00  0.00    +0.000 C 
ATOM     34  C   UNL     1       2.520  -0.248   0.214  0.00  0.00    +0.000 C 
ENDBRANCH  32  34
ENDBRANCH  31  32
ENDBRANCH   1  31
TORSDOF 9
