REMARK  Name = 
REMARK  10 active torsions:
REMARK  status: ('A' for Active; 'I' for Inactive)
REMARK    1  A    between atoms: C_1  and  C_2
REMARK    2  A    between atoms: C_2  and  N_3
REMARK    3  A    between atoms: C_2  and  C_20
REMARK    4  A    between atoms: N_3  and  C_4
REMARK    5  A    between atoms: C_4  and  C_5
REMARK    6  A    between atoms: C_8  and  C_9
REMARK    7  A    between atoms: C_9  and  N_10
REMARK    8  A    between atoms: N_10  and  C_11
REMARK    9  A    between atoms: C_11  and  C_12
REMARK   10  A    between atoms: N_15  and  C_16
REMARK                            x       y       z     vdW  Elec       q    Type
REMARK                         _______ _______ _______ _____ _____    ______ ____
ROOT
ATOM      1  C   UNL     1       2.507  -0.239  -2.387  0.00  0.00    +0.000 C 
ENDROOT
BRANCH   1   2
ATOM      2  C   UNL     1       2.928   0.395  -3.705  0.00  0.00    +0.000 A 
ATOM      3  C   UNL     1       2.732   1.758  -3.909  0.00  0.00    +0.000 A 
ATOM      4  C   UNL     1       3.069   2.312  -5.140  0.00  0.00    +0.000 A 
ATOM      5  C   UNL     1       3.631   1.516  -6.143  0.00  0.00    +0.000 A 
ATOM      6  C   UNL     1       3.789   0.165  -5.849  0.00  0.00    +0.000 A 
ATOM      7  N   UNL     1       3.454  -0.412  -4.665  0.00  0.00    +0.000 NA
BRANCH   5   8
ATOM      8  C   UNL     1       4.001   2.079  -7.498  0.00  0.00    +0.000 C 
BRANCH   8   9
ATOM      9  N   UNL     1       4.439   3.468  -7.376  0.00  0.00    +0.000 NA
ATOM     10  H   UNL     1       5.247   3.503  -6.755  0.00  0.00    +0.000 HD
BRANCH   9  11
ATOM     11  C   UNL     1       4.764   4.115  -8.646  0.00  0.00    +0.000 C 
BRANCH  11  12
ATOM     12  C   UNL     1       5.184   5.560  -8.350  0.00  0.00    +0.000 C 
ATOM     13  C   UNL     1       4.070   6.408  -7.730  0.00  0.00    +0.000 C 
ATOM     14  C   UNL     1       4.410   7.809  -8.195  0.00  0.00    +0.000 C 
ATOM     15  N   UNL     1       4.792   7.565  -9.585  0.00  0.00    +0.000 NA
ATOM     16  C   UNL     1       5.450   8.712 -10.192  0.00  0.00    +0.000 C 
ATOM     17  C   UNL     1       5.627   6.358  -9.584  0.00  0.00    +0.000 C 
ENDBRANCH  11  12
ENDBRANCH   9  11
ENDBRANCH   8   9
ENDBRANCH   5   8
ENDBRANCH   1   2
BRANCH   1  18
ATOM     18  N   UNL     1       3.652  -0.763  -1.635  0.00  0.00    +0.000 NA
ATOM     19  H   UNL     1       4.127  -1.418  -2.262  0.00  0.00    +0.000 HD
BRANCH  18  21
ATOM     20  C   UNL     1       2.609  -0.561   0.629  0.00  0.00    +0.000 C 
ATOM     21  C   UNL     1       3.268  -1.479  -0.407  0.00  0.00    +0.000 C 
BRANCH  21  22
ATOM     22  C   UNL     1       4.534  -2.093   0.174  0.00  0.00    +0.000 A 
ATOM     23  C   UNL     1       5.786  -1.495   0.149  0.00  0.00    +0.000 A 
ATOM     24  S   UNL     1       7.009  -2.446   0.864  0.00  0.00    +0.000 S 
ATOM     25  C   UNL     1       5.900  -3.671   1.270  0.00  0.00    +0.000 A 
ATOM     26  N   UNL     1       6.302  -4.793   1.925  0.00  0.00    +0.000 NA
ATOM     27  C   UNL     1       5.347  -5.624   2.186  0.00  0.00    +0.000 A 
ATOM     28  N   UNL     1       4.030  -5.435   1.855  0.00  0.00    +0.000 N 
ATOM     29  C   UNL     1       3.572  -4.311   1.198  0.00  0.00    +0.000 A 
ATOM     30  O   UNL     1       2.383  -4.156   0.946  0.00  0.00    +0.000 OA
ATOM     31  C   UNL     1       4.615  -3.357   0.868  0.00  0.00    +0.000 A 
ATOM     32  H   UNL     1       3.332  -6.118   2.107  0.00  0.00    +0.000 HD
ENDBRANCH  21  22
ENDBRANCH  18  21
ENDBRANCH   1  18
TORSDOF 8
