REMARK  Name = 
REMARK  8 active torsions:
REMARK  status: ('A' for Active; 'I' for Inactive)
REMARK    1  A    between atoms: C_1  and  O_2
REMARK    2  A    between atoms: O_2  and  C_3
REMARK    3  A    between atoms: C_10  and  C_11
REMARK    4  A    between atoms: N_13  and  C_14
REMARK    5  A    between atoms: C_14  and  C_15
REMARK    6  A    between atoms: C_18  and  N_19
REMARK    7  A    between atoms: N_19  and  C_20
REMARK    8  A    between atoms: C_20  and  C_21
REMARK                            x       y       z     vdW  Elec       q    Type
REMARK                         _______ _______ _______ _____ _____    ______ ____
ROOT
ATOM      1  C   UNL     1       2.786   0.953  -3.323  0.00  0.00    +0.000 C 
ENDROOT
BRANCH   1   2
ATOM      2  C   UNL     1       1.614   0.005  -3.299  0.00  0.00    +0.000 A 
ATOM      3  C   UNL     1       1.809  -1.382  -3.335  0.00  0.00    +0.000 A 
ATOM      4  C   UNL     1       0.721  -2.260  -3.239  0.00  0.00    +0.000 A 
ATOM      5  C   UNL     1      -0.581  -1.775  -3.088  0.00  0.00    +0.000 A 
ATOM      6  C   UNL     1      -0.779  -0.393  -3.172  0.00  0.00    +0.000 A 
ATOM      7  C   UNL     1       0.302   0.491  -3.260  0.00  0.00    +0.000 A 
BRANCH   5   8
ATOM      8  N   UNL     1      -1.704  -2.586  -2.913  0.00  0.00    +0.000 N 
ATOM      9  H   UNL     1      -2.211  -2.723  -3.786  0.00  0.00    +0.000 HD
BRANCH   8  10
ATOM     10  C   UNL     1      -1.534  -3.853  -2.193  0.00  0.00    +0.000 C 
BRANCH  10  11
ATOM     11  C   UNL     1      -2.809  -4.226  -1.457  0.00  0.00    +0.000 A 
ATOM     12  C   UNL     1      -3.352  -3.341  -0.523  0.00  0.00    +0.000 A 
ATOM     13  C   UNL     1      -4.494  -3.713   0.179  0.00  0.00    +0.000 A 
ATOM     14  C   UNL     1      -5.062  -4.957  -0.062  0.00  0.00    +0.000 A 
ATOM     15  C   UNL     1      -4.462  -5.779  -1.002  0.00  0.00    +0.000 A 
ATOM     16  N   UNL     1      -3.354  -5.446  -1.702  0.00  0.00    +0.000 NA
ENDBRANCH  10  11
ENDBRANCH   8  10
ENDBRANCH   5   8
ENDBRANCH   1   2
BRANCH   1  19
ATOM     17  C   UNL     1       4.266   2.050  -4.957  0.00  0.00    +0.000 C 
ATOM     18  O   UNL     1       4.953   2.538  -4.064  0.00  0.00    +0.000 OA
ATOM     19  N   UNL     1       3.186   1.261  -4.673  0.00  0.00    +0.000 N 
ATOM     20  H   UNL     1       2.579   0.947  -5.416  0.00  0.00    +0.000 HD
BRANCH  17  28
ATOM     21  C   UNL     1       2.874   0.917  -7.893  0.00  0.00    +0.000 A 
ATOM     22  N   UNL     1       2.563   0.594  -9.162  0.00  0.00    +0.000 NA
ATOM     23  C   UNL     1       3.316   1.101 -10.142  0.00  0.00    +0.000 A 
ATOM     24  N   UNL     1       4.360   1.914 -10.010  0.00  0.00    +0.000 NA
ATOM     25  C   UNL     1       4.637   2.210  -8.729  0.00  0.00    +0.000 A 
ATOM     26  S   UNL     1       5.937   3.241  -8.370  0.00  0.00    +0.000 S 
ATOM     27  C   UNL     1       5.650   3.105  -6.701  0.00  0.00    +0.000 A 
ATOM     28  C   UNL     1       4.577   2.280  -6.380  0.00  0.00    +0.000 A 
ATOM     29  C   UNL     1       3.960   1.761  -7.600  0.00  0.00    +0.000 A 
BRANCH  21  31
ATOM     30  C   UNL     1       1.368  -0.751  -7.236  0.00  0.00    +0.000 C 
ATOM     31  O   UNL     1       2.053   0.450  -6.888  0.00  0.00    +0.000 OA
ENDBRANCH  21  31
ENDBRANCH  17  28
ENDBRANCH   1  19
TORSDOF 7
