REMARK  Name = 
REMARK  8 active torsions:
REMARK  status: ('A' for Active; 'I' for Inactive)
REMARK    1  A    between atoms: C_2  and  C_21
REMARK    2  A    between atoms: N_3  and  C_4
REMARK    3  A    between atoms: C_4  and  C_5
REMARK    4  A    between atoms: C_8  and  C_9
REMARK    5  A    between atoms: C_9  and  C_10
REMARK    6  A    between atoms: C_10  and  O_11
REMARK    7  A    between atoms: C_10  and  C_12
REMARK    8  A    between atoms: C_12  and  C_13
REMARK                            x       y       z     vdW  Elec       q    Type
REMARK                         _______ _______ _______ _____ _____    ______ ____
ROOT
ATOM      1  C   UNL     1       3.277   2.896  -2.116  0.00  0.00    +0.000 A 
ATOM      2  C   UNL     1       2.974   4.260  -2.175  0.00  0.00    +0.000 A 
ATOM      3  C   UNL     1       3.831   5.149  -2.823  0.00  0.00    +0.000 A 
ATOM      4  C   UNL     1       5.009   4.692  -3.431  0.00  0.00    +0.000 A 
ATOM      5  C   UNL     1       5.286   3.320  -3.415  0.00  0.00    +0.000 A 
ATOM      6  C   UNL     1       4.428   2.430  -2.765  0.00  0.00    +0.000 A 
ENDROOT
BRANCH   1   7
ATOM      7  C   UNL     1       2.349   1.948  -1.402  0.00  0.00    +0.000 C 
BRANCH   7  10
ATOM      8  O   UNL     1      -0.254   2.951  -1.813  0.00  0.00    +0.000 OA
ATOM      9  C   UNL     1       0.135   2.000  -2.486  0.00  0.00    +0.000 C 
ATOM     10  N   UNL     1       1.359   1.414  -2.300  0.00  0.00    +0.000 N 
ATOM     11  H   UNL     1       1.707   0.772  -3.004  0.00  0.00    +0.000 HD
BRANCH   9  12
ATOM     12  C   UNL     1      -0.725   1.378  -3.503  0.00  0.00    +0.000 A 
ATOM     13  C   UNL     1      -2.102   1.533  -3.433  0.00  0.00    +0.000 A 
ATOM     14  S   UNL     1      -2.944   0.699  -4.660  0.00  0.00    +0.000 S 
ATOM     15  C   UNL     1      -1.494   0.148  -5.359  0.00  0.00    +0.000 A 
ATOM     16  N   UNL     1      -1.506  -0.624  -6.480  0.00  0.00    +0.000 NA
ATOM     17  C   UNL     1      -0.334  -0.931  -6.929  0.00  0.00    +0.000 A 
ATOM     18  N   UNL     1       0.848  -0.541  -6.356  0.00  0.00    +0.000 N 
ATOM     19  C   UNL     1       0.907   0.176  -5.186  0.00  0.00    +0.000 A 
ATOM     20  O   UNL     1       1.981   0.399  -4.635  0.00  0.00    +0.000 OA
ATOM     21  C   UNL     1      -0.383   0.580  -4.658  0.00  0.00    +0.000 A 
ATOM     22  H   UNL     1       1.733  -0.834  -6.744  0.00  0.00    +0.000 HD
ENDBRANCH   9  12
ENDBRANCH   7  10
ENDBRANCH   1   7
BRANCH   4  23
ATOM     23  C   UNL     1       5.972   5.678  -4.060  0.00  0.00    +0.000 C 
BRANCH  23  24
ATOM     24  C   UNL     1       7.000   6.283  -3.076  0.00  0.00    +0.000 C 
BRANCH  24  25
ATOM     25  O   UNL     1       6.309   6.997  -2.042  0.00  0.00    +0.000 OA
ATOM     26  H   UNL     1       5.798   6.348  -1.528  0.00  0.00    +0.000 HD
ENDBRANCH  24  25
BRANCH  24  27
ATOM     27  C   UNL     1       7.956   5.232  -2.491  0.00  0.00    +0.000 C 
BRANCH  27  28
ATOM     28  C   UNL     1       9.019   5.832  -1.604  0.00  0.00    +0.000 A 
ATOM     29  C   UNL     1       8.789   5.968  -0.236  0.00  0.00    +0.000 A 
ATOM     30  C   UNL     1       9.787   6.509   0.568  0.00  0.00    +0.000 A 
ATOM     31  C   UNL     1      10.983   6.907  -0.012  0.00  0.00    +0.000 A 
ATOM     32  C   UNL     1      11.130   6.743  -1.381  0.00  0.00    +0.000 A 
ATOM     33  N   UNL     1      10.183   6.212  -2.187  0.00  0.00    +0.000 NA
ENDBRANCH  27  28
ENDBRANCH  24  27
ENDBRANCH  23  24
ENDBRANCH   4  23
TORSDOF 8
