REMARK  Name = 
REMARK  7 active torsions:
REMARK  status: ('A' for Active; 'I' for Inactive)
REMARK    1  A    between atoms: N_1  and  C_2
REMARK    2  A    between atoms: C_2  and  C_3
REMARK    3  A    between atoms: C_6  and  O_7
REMARK    4  A    between atoms: O_7  and  C_8
REMARK    5  A    between atoms: C_8  and  C_9
REMARK    6  A    between atoms: C_12  and  O_13
REMARK    7  A    between atoms: O_13  and  C_14
REMARK                            x       y       z     vdW  Elec       q    Type
REMARK                         _______ _______ _______ _____ _____    ______ ____
ROOT
ATOM      1  C   UNL     1       3.886   3.509  -5.295  0.00  0.00    +0.000 C 
ENDROOT
BRANCH   1   2
ATOM      2  C   UNL     1       4.373   3.807  -6.692  0.00  0.00    +0.000 A 
ATOM      3  C   UNL     1       3.973   3.007  -7.772  0.00  0.00    +0.000 A 
ATOM      4  C   UNL     1       4.382   3.307  -9.077  0.00  0.00    +0.000 A 
ATOM      5  C   UNL     1       5.166   4.432  -9.321  0.00  0.00    +0.000 A 
ATOM      6  C   UNL     1       5.603   5.205  -8.242  0.00  0.00    +0.000 A 
ATOM      7  C   UNL     1       5.207   4.902  -6.938  0.00  0.00    +0.000 A 
BRANCH   5   8
ATOM      8  O   UNL     1       5.607   4.864 -10.534  0.00  0.00    +0.000 OA
BRANCH   8   9
ATOM      9  C   UNL     1       4.852   4.574 -11.701  0.00  0.00    +0.000 C 
ATOM     10  F   UNL     1       3.593   4.152 -11.458  0.00  0.00    +0.000 F 
ATOM     11  F   UNL     1       4.768   5.703 -12.442  0.00  0.00    +0.000 F 
ATOM     12  F   UNL     1       5.495   3.639 -12.433  0.00  0.00    +0.000 F 
ENDBRANCH   8   9
ENDBRANCH   5   8
ENDBRANCH   1   2
BRANCH   1  13
ATOM     13  O   UNL     1       4.298   2.196  -4.922  0.00  0.00    +0.000 OA
BRANCH  13  17
ATOM     14  C   UNL     1       3.199   0.619  -1.208  0.00  0.00    +0.000 A 
ATOM     15  C   UNL     1       2.799   1.921  -1.537  0.00  0.00    +0.000 A 
ATOM     16  C   UNL     1       3.143   2.488  -2.768  0.00  0.00    +0.000 A 
ATOM     17  C   UNL     1       3.899   1.761  -3.688  0.00  0.00    +0.000 A 
ATOM     18  C   UNL     1       4.304   0.466  -3.361  0.00  0.00    +0.000 A 
ATOM     19  C   UNL     1       3.960  -0.102  -2.131  0.00  0.00    +0.000 A 
BRANCH  14  20
ATOM     20  C   UNL     1       2.820   0.026   0.126  0.00  0.00    +0.000 C 
BRANCH  20  21
ATOM     21  N   UNL     1       1.372  -0.040   0.288  0.00  0.00    +0.000 NA
ATOM     22  H   UNL     1       1.153  -0.529   1.153  0.00  0.00    +0.000 HD
ATOM     23  H   UNL     1       0.984  -0.603  -0.469  0.00  0.00    +0.000 HD
ENDBRANCH  20  21
ENDBRANCH  14  20
ENDBRANCH  13  17
ENDBRANCH   1  13
TORSDOF 7
