REMARK  Name = 
REMARK  4 active torsions:
REMARK  status: ('A' for Active; 'I' for Inactive)
REMARK    1  A    between atoms: C_2  and  C_4
REMARK    2  A    between atoms: N_8  and  C_9
REMARK    3  A    between atoms: C_9  and  C_10
REMARK    4  A    between atoms: C_10  and  C_11
REMARK                            x       y       z     vdW  Elec       q    Type
REMARK                         _______ _______ _______ _____ _____    ______ ____
ROOT
ATOM      1  C   UNL     1       3.237  -0.515  -1.198  0.00  0.00    +0.000 A 
ATOM      2  C   UNL     1       4.412  -1.065  -0.697  0.00  0.00    +0.000 A 
ATOM      3  C   UNL     1       5.059  -2.063  -1.433  0.00  0.00    +0.000 A 
ATOM      4  C   UNL     1       4.548  -2.452  -2.672  0.00  0.00    +0.000 A 
ATOM      5  N   UNL     1       5.203  -3.471  -3.379  0.00  0.00    +0.000 N 
ATOM      6  N   UNL     1       3.399  -1.932  -3.152  0.00  0.00    +0.000 NA
ATOM      7  C   UNL     1       2.754  -1.004  -2.400  0.00  0.00    +0.000 A 
ATOM      8  H   UNL     1       6.178  -3.537  -3.120  0.00  0.00    +0.000 HD
ENDROOT
BRANCH   1  10
ATOM      9  N   UNL     1       3.217   1.417   0.268  0.00  0.00    +0.000 N 
ATOM     10  C   UNL     1       2.489   0.555  -0.505  0.00  0.00    +0.000 C 
ATOM     11  O   UNL     1       1.285   0.697  -0.657  0.00  0.00    +0.000 OA
ATOM     12  H   UNL     1       2.717   2.218   0.631  0.00  0.00    +0.000 HD
ATOM     13  H   UNL     1       4.221   1.486   0.203  0.00  0.00    +0.000 HD
ENDBRANCH   1  10
BRANCH   5  14
ATOM     14  C   UNL     1       4.998  -3.402  -4.829  0.00  0.00    +0.000 C 
BRANCH  14  15
ATOM     15  C   UNL     1       5.807  -4.502  -5.535  0.00  0.00    +0.000 C 
BRANCH  15  16
ATOM     16  C   UNL     1       5.430  -5.885  -5.095  0.00  0.00    +0.000 A 
ATOM     17  C   UNL     1       4.148  -6.386  -5.225  0.00  0.00    +0.000 A 
ATOM     18  N   UNL     1       3.777  -7.608  -4.805  0.00  0.00    +0.000 NA
ATOM     19  C   UNL     1       4.738  -8.338  -4.223  0.00  0.00    +0.000 A 
ATOM     20  N   UNL     1       6.017  -7.974  -4.052  0.00  0.00    +0.000 NA
ATOM     21  C   UNL     1       6.333  -6.743  -4.501  0.00  0.00    +0.000 A 
ENDBRANCH  15  16
ENDBRANCH  14  15
ENDBRANCH   5  14
TORSDOF 4
