REMARK  Name = 
REMARK  9 active torsions:
REMARK  status: ('A' for Active; 'I' for Inactive)
REMARK    1  A    between atoms: C_1  and  N_2
REMARK    2  A    between atoms: C_4  and  O_5
REMARK    3  A    between atoms: O_5  and  C_6
REMARK    4  A    between atoms: C_8  and  C_9
REMARK    5  A    between atoms: C_9  and  C_10
REMARK    6  A    between atoms: C_10  and  N_11
REMARK    7  A    between atoms: N_11  and  C_12
REMARK    8  A    between atoms: C_15  and  C_16
REMARK    9  A    between atoms: C_22  and  C_23
REMARK                            x       y       z     vdW  Elec       q    Type
REMARK                         _______ _______ _______ _____ _____    ______ ____
ROOT
ATOM      1  C   UNL     1       6.429  -0.938   0.673  0.00  0.00    +0.000 A 
ATOM      2  C   UNL     1       6.157  -2.305   0.617  0.00  0.00    +0.000 A 
ATOM      3  C   UNL     1       7.195  -3.249   0.670  0.00  0.00    +0.000 A 
ATOM      4  C   UNL     1       8.512  -2.780   0.802  0.00  0.00    +0.000 A 
ATOM      5  C   UNL     1       8.808  -1.410   0.839  0.00  0.00    +0.000 A 
ATOM      6  C   UNL     1       7.751  -0.493   0.787  0.00  0.00    +0.000 A 
ENDROOT
BRANCH   5   7
ATOM      7  C   UNL     1      10.243  -0.942   0.869  0.00  0.00    +0.000 C 
ATOM      8  F   UNL     1      11.142  -1.969   0.829  0.00  0.00    +0.000 F 
ATOM      9  F   UNL     1      10.553  -0.146  -0.191  0.00  0.00    +0.000 F 
ATOM     10  F   UNL     1      10.548  -0.228   1.985  0.00  0.00    +0.000 F 
ENDBRANCH   5   7
BRANCH   1  11
ATOM     11  O   UNL     1       5.480   0.047   0.554  0.00  0.00    +0.000 OA
BRANCH  11  15
ATOM     12  C   UNL     1       1.324   0.512  -0.804  0.00  0.00    +0.000 C 
ATOM     13  N   UNL     1       2.761   0.455  -0.575  0.00  0.00    +0.000 NA
ATOM     14  C   UNL     1       3.182  -0.905  -0.171  0.00  0.00    +0.000 C 
ATOM     15  C   UNL     1       4.103  -0.257   0.900  0.00  0.00    +0.000 C 
ATOM     16  C   UNL     1       3.115   0.938   0.781  0.00  0.00    +0.000 C 
ENDBRANCH  11  15
ENDBRANCH   1  11
BRANCH   3  17
ATOM     17  C   UNL     1       6.854  -4.724   0.524  0.00  0.00    +0.000 C 
BRANCH  17  18
ATOM     18  C   UNL     1       8.068  -5.652   0.608  0.00  0.00    +0.000 C 
BRANCH  18  19
ATOM     19  N   UNL     1       7.732  -7.066   0.433  0.00  0.00    +0.000 N 
ATOM     20  H   UNL     1       7.169  -7.231  -0.401  0.00  0.00    +0.000 HD
BRANCH  19  21
ATOM     21  C   UNL     1       8.833  -7.949   0.490  0.00  0.00    +0.000 A 
ATOM     22  C   UNL     1       9.959  -7.717   1.291  0.00  0.00    +0.000 A 
ATOM     23  C   UNL     1      10.991  -8.648   1.369  0.00  0.00    +0.000 A 
ATOM     24  C   UNL     1      10.862  -9.829   0.664  0.00  0.00    +0.000 A 
ATOM     25  N   UNL     1       9.774 -10.135  -0.106  0.00  0.00    +0.000 NA
ATOM     26  C   UNL     1       8.795  -9.193  -0.151  0.00  0.00    +0.000 A 
BRANCH  24  27
ATOM     27  C   UNL     1      11.946 -10.855   0.752  0.00  0.00    +0.000 C 
ATOM     28  N   UNL     1      11.728 -11.997   0.033  0.00  0.00    +0.000 N 
ATOM     29  O   UNL     1      12.955 -10.691   1.425  0.00  0.00    +0.000 OA
ATOM     30  H   UNL     1      10.865 -12.097  -0.492  0.00  0.00    +0.000 HD
ATOM     31  H   UNL     1      12.404 -12.745   0.071  0.00  0.00    +0.000 HD
ENDBRANCH  24  27
ENDBRANCH  19  21
ENDBRANCH  18  19
ENDBRANCH  17  18
ENDBRANCH   3  17
TORSDOF 8
