REMARK  Name = 
REMARK  8 active torsions:
REMARK  status: ('A' for Active; 'I' for Inactive)
REMARK    1  A    between atoms: C_1  and  C_2
REMARK    2  A    between atoms: C_2  and  C_3
REMARK    3  A    between atoms: C_7  and  C_8
REMARK    4  A    between atoms: C_8  and  C_9
REMARK    5  A    between atoms: C_9  and  N_10
REMARK    6  A    between atoms: N_10  and  C_11
REMARK    7  A    between atoms: C_14  and  C_15
REMARK    8  A    between atoms: C_23  and  O_24
REMARK                            x       y       z     vdW  Elec       q    Type
REMARK                         _______ _______ _______ _____ _____    ______ ____
ROOT
ATOM      1  C   UNL     1      -1.953   0.650  -2.372  0.00  0.00    +0.000 C 
ENDROOT
BRANCH   1   6
ATOM      2  C   UNL     1       1.015  -0.031  -0.044  0.00  0.00    +0.000 A 
ATOM      3  C   UNL     1       0.342  -0.139   1.184  0.00  0.00    +0.000 A 
ATOM      4  C   UNL     1      -1.050  -0.050   1.257  0.00  0.00    +0.000 A 
ATOM      5  C   UNL     1      -1.800   0.169   0.105  0.00  0.00    +0.000 A 
ATOM      6  C   UNL     1      -1.162   0.309  -1.130  0.00  0.00    +0.000 A 
ATOM      7  C   UNL     1       0.240   0.217  -1.191  0.00  0.00    +0.000 A 
BRANCH   2   9
ATOM      8  C   UNL     1       3.096   1.311   0.059  0.00  0.00    +0.000 C 
ATOM      9  C   UNL     1       2.546  -0.119  -0.122  0.00  0.00    +0.000 C 
ATOM     10  C   UNL     1       3.061  -0.723  -1.454  0.00  0.00    +0.000 C 
ATOM     11  C   UNL     1       4.275  -1.603  -1.145  0.00  0.00    +0.000 C 
ATOM     12  C   UNL     1       4.451  -1.600   0.366  0.00  0.00    +0.000 C 
ATOM     13  C   UNL     1       3.135  -1.087   0.932  0.00  0.00    +0.000 C 
BRANCH  12  14
ATOM     14  O   UNL     1       5.535  -0.777   0.773  0.00  0.00    +0.000 OA
ATOM     15  H   UNL     1       5.640  -0.048   0.142  0.00  0.00    +0.000 HD
ENDBRANCH  12  14
ENDBRANCH   2   9
ENDBRANCH   1   6
BRANCH   1  16
ATOM     16  C   UNL     1      -1.969   2.167  -2.579  0.00  0.00    +0.000 C 
BRANCH  16  17
ATOM     17  N   UNL     1      -2.686   2.537  -3.805  0.00  0.00    +0.000 N 
ATOM     18  H   UNL     1      -3.594   2.081  -3.874  0.00  0.00    +0.000 HD
BRANCH  17  19
ATOM     19  C   UNL     1      -2.787   3.916  -4.073  0.00  0.00    +0.000 A 
ATOM     20  C   UNL     1      -1.794   4.836  -3.718  0.00  0.00    +0.000 A 
ATOM     21  C   UNL     1      -1.905   6.191  -4.043  0.00  0.00    +0.000 A 
ATOM     22  C   UNL     1      -3.000   6.653  -4.774  0.00  0.00    +0.000 A 
ATOM     23  C   UNL     1      -3.983   5.744  -5.176  0.00  0.00    +0.000 A 
ATOM     24  C   UNL     1      -3.864   4.386  -4.842  0.00  0.00    +0.000 A 
BRANCH  22  25
ATOM     25  C   UNL     1      -3.065   8.104  -5.086  0.00  0.00    +0.000 C 
ATOM     26  N   UNL     1      -3.785   8.483  -6.183  0.00  0.00    +0.000 N 
ATOM     27  O   UNL     1      -2.459   8.934  -4.419  0.00  0.00    +0.000 OA
ATOM     28  H   UNL     1      -4.067   7.826  -6.896  0.00  0.00    +0.000 HD
ATOM     29  H   UNL     1      -3.698   9.457  -6.449  0.00  0.00    +0.000 HD
ENDBRANCH  22  25
ENDBRANCH  17  19
ENDBRANCH  16  17
ENDBRANCH   1  16
TORSDOF 7
