REMARK  Name = 
REMARK  10 active torsions:
REMARK  status: ('A' for Active; 'I' for Inactive)
REMARK    1  A    between atoms: C_1  and  N_2
REMARK    2  A    between atoms: N_2  and  C_3
REMARK    3  A    between atoms: N_2  and  C_4
REMARK    4  A    between atoms: C_4  and  C_5
REMARK    5  A    between atoms: C_5  and  C_6
REMARK    6  A    between atoms: C_5  and  C_7
REMARK    7  A    between atoms: C_5  and  C_8
REMARK    8  A    between atoms: C_11  and  C_12
REMARK    9  A    between atoms: C_12  and  N_13
REMARK   10  A    between atoms: C_18  and  C_19
REMARK                            x       y       z     vdW  Elec       q    Type
REMARK                         _______ _______ _______ _____ _____    ______ ____
ROOT
ATOM      1  C   UNL     1       6.341  -6.693  -1.765  0.00  0.00    +0.000 C 
ENDROOT
BRANCH   1   2
ATOM      2  N   UNL     1       7.312  -7.184  -0.795  0.00  0.00    +0.000 N 
ATOM      3  C   UNL     1       6.970  -7.815   0.376  0.00  0.00    +0.000 A 
ATOM      4  C   UNL     1       8.130  -8.199   1.005  0.00  0.00    +0.000 A 
ATOM      5  C   UNL     1       9.221  -7.793   0.189  0.00  0.00    +0.000 A 
ATOM      6  C   UNL     1      10.622  -7.929   0.310  0.00  0.00    +0.000 A 
ATOM      7  C   UNL     1      11.459  -7.414  -0.692  0.00  0.00    +0.000 A 
ATOM      8  C   UNL     1      10.897  -6.748  -1.787  0.00  0.00    +0.000 A 
ATOM      9  C   UNL     1       9.512  -6.604  -1.927  0.00  0.00    +0.000 A 
ATOM     10  C   UNL     1       8.688  -7.145  -0.928  0.00  0.00    +0.000 A 
BRANCH   7  11
ATOM     11  C   UNL     1      12.941  -7.548  -0.656  0.00  0.00    +0.000 C 
ATOM     12  N   UNL     1      13.523  -8.206   0.394  0.00  0.00    +0.000 N 
ATOM     13  O   UNL     1      13.652  -7.093  -1.546  0.00  0.00    +0.000 OA
ATOM     14  H   UNL     1      13.032  -8.622   1.169  0.00  0.00    +0.000 HD
ATOM     15  H   UNL     1      14.532  -8.286   0.378  0.00  0.00    +0.000 HD
ENDBRANCH   7  11
ENDBRANCH   1   2
BRANCH   1  19
ATOM     16  C   UNL     1       5.085  -2.799  -0.756  0.00  0.00    +0.000 A 
ATOM     17  N   UNL     1       6.168  -2.939  -1.545  0.00  0.00    +0.000 NA
ATOM     18  C   UNL     1       6.538  -4.190  -1.864  0.00  0.00    +0.000 A 
ATOM     19  C   UNL     1       5.884  -5.316  -1.421  0.00  0.00    +0.000 A 
ATOM     20  C   UNL     1       4.802  -5.072  -0.601  0.00  0.00    +0.000 A 
ATOM     21  N   UNL     1       4.380  -3.839  -0.264  0.00  0.00    +0.000 NA
BRANCH  16  22
ATOM     22  C   UNL     1       4.612  -1.393  -0.414  0.00  0.00    +0.000 C 
ATOM     23  C   UNL     1       5.533  -0.308  -1.007  0.00  0.00    +0.000 C 
ATOM     24  C   UNL     1       4.684  -1.276   1.128  0.00  0.00    +0.000 C 
BRANCH  22  25
ATOM     25  C   UNL     1       3.134  -1.151  -0.876  0.00  0.00    +0.000 C 
BRANCH  25  27
ATOM     26  C   UNL     1       3.002  -2.386  -2.996  0.00  0.00    +0.000 C 
ATOM     27  N   UNL     1       2.829  -1.090  -2.332  0.00  0.00    +0.000 NA
ATOM     28  C   UNL     1       1.447  -0.641  -2.532  0.00  0.00    +0.000 C 
ENDBRANCH  25  27
ENDBRANCH  22  25
ENDBRANCH  16  22
ENDBRANCH   1  19
TORSDOF 6
