REMARK  Name = 
REMARK  5 active torsions:
REMARK  status: ('A' for Active; 'I' for Inactive)
REMARK    1  A    between atoms: C_2  and  C_4
REMARK    2  A    between atoms: C_7  and  O_8
REMARK    3  A    between atoms: O_8  and  C_9
REMARK    4  A    between atoms: C_9  and  C_10
REMARK    5  A    between atoms: C_14  and  C_15
REMARK                            x       y       z     vdW  Elec       q    Type
REMARK                         _______ _______ _______ _____ _____    ______ ____
ROOT
ATOM      1  C   UNL     1       4.778   5.548  -2.413  0.00  0.00    +0.000 C 
ATOM      2  C   UNL     1       4.969   6.665  -1.397  0.00  0.00    +0.000 C 
ATOM      3  C   UNL     1       3.598   6.337  -1.882  0.00  0.00    +0.000 C 
ENDROOT
BRANCH   1   4
ATOM      4  C   UNL     1       5.200   5.715  -3.862  0.00  0.00    +0.000 A 
ATOM      5  C   UNL     1       6.556   5.817  -4.201  0.00  0.00    +0.000 A 
ATOM      6  C   UNL     1       6.976   5.772  -5.528  0.00  0.00    +0.000 A 
ATOM      7  C   UNL     1       6.041   5.596  -6.550  0.00  0.00    +0.000 A 
ATOM      8  C   UNL     1       4.671   5.487  -6.272  0.00  0.00    +0.000 A 
ATOM      9  C   UNL     1       4.274   5.607  -4.924  0.00  0.00    +0.000 A 
BRANCH   8  10
ATOM     10  C   UNL     1       3.686   5.166  -7.329  0.00  0.00    +0.000 A 
ATOM     11  C   UNL     1       3.986   4.278  -8.367  0.00  0.00    +0.000 A 
ATOM     12  C   UNL     1       3.019   3.978  -9.322  0.00  0.00    +0.000 A 
ATOM     13  C   UNL     1       1.766   4.570  -9.221  0.00  0.00    +0.000 A 
ATOM     14  C   UNL     1       1.538   5.427  -8.159  0.00  0.00    +0.000 A 
ATOM     15  N   UNL     1       2.457   5.731  -7.215  0.00  0.00    +0.000 NA
ENDBRANCH   8  10
ENDBRANCH   1   4
BRANCH   1  16
ATOM     16  O   UNL     1       5.164   4.293  -1.805  0.00  0.00    +0.000 OA
BRANCH  16  20
ATOM     17  C   UNL     1       2.796   0.879  -1.734  0.00  0.00    +0.000 A 
ATOM     18  C   UNL     1       2.338   1.985  -2.458  0.00  0.00    +0.000 A 
ATOM     19  C   UNL     1       3.124   3.143  -2.541  0.00  0.00    +0.000 A 
ATOM     20  C   UNL     1       4.353   3.198  -1.894  0.00  0.00    +0.000 A 
ATOM     21  C   UNL     1       4.829   2.076  -1.209  0.00  0.00    +0.000 A 
ATOM     22  C   UNL     1       4.050   0.924  -1.116  0.00  0.00    +0.000 A 
BRANCH  17  24
ATOM     23  N   UNL     1       0.998  -0.583  -2.475  0.00  0.00    +0.000 N 
ATOM     24  C   UNL     1       1.957  -0.328  -1.538  0.00  0.00    +0.000 C 
ATOM     25  O   UNL     1       2.118  -1.077  -0.584  0.00  0.00    +0.000 OA
ATOM     26  H   UNL     1       0.478  -1.440  -2.364  0.00  0.00    +0.000 HD
ATOM     27  H   UNL     1       0.977  -0.126  -3.377  0.00  0.00    +0.000 HD
ENDBRANCH  17  24
ENDBRANCH  16  20
ENDBRANCH   1  16
TORSDOF 5
