REMARK  Name = 
REMARK  7 active torsions:
REMARK  status: ('A' for Active; 'I' for Inactive)
REMARK    1  A    between atoms: C_1  and  C_2
REMARK    2  A    between atoms: C_2  and  N_3
REMARK    3  A    between atoms: C_2  and  C_20
REMARK    4  A    between atoms: C_4  and  C_6
REMARK    5  A    between atoms: C_9  and  C_10
REMARK    6  A    between atoms: C_10  and  N_11
REMARK    7  A    between atoms: C_12  and  C_14
REMARK                            x       y       z     vdW  Elec       q    Type
REMARK                         _______ _______ _______ _____ _____    ______ ____
ROOT
ATOM      1  N   UNL     1       3.269   0.424  -1.428  0.00  0.00    +0.000 N 
ATOM      2  C   UNL     1       2.726   0.128  -2.657  0.00  0.00    +0.000 C 
ATOM      3  O   UNL     1       2.057  -0.882  -2.859  0.00  0.00    +0.000 OA
ATOM      4  H   UNL     1       3.533   1.393  -1.281  0.00  0.00    +0.000 HD
ENDROOT
BRANCH   2   5
ATOM      5  C   UNL     1       3.126   1.077  -3.787  0.00  0.00    +0.000 C 
ATOM      6  C   UNL     1       2.915   2.568  -3.543  0.00  0.00    +0.000 C 
ATOM      7  C   UNL     1       2.814   3.199  -4.936  0.00  0.00    +0.000 C 
ATOM      8  C   UNL     1       2.518   2.058  -5.925  0.00  0.00    +0.000 C 
ATOM      9  C   UNL     1       2.278   0.835  -5.037  0.00  0.00    +0.000 C 
BRANCH   8  10
ATOM     10  C   UNL     1       3.677   1.858  -6.915  0.00  0.00    +0.000 C 
BRANCH  10  11
ATOM     11  N   UNL     1       3.416   0.799  -7.870  0.00  0.00    +0.000 N 
ATOM     12  C   UNL     1       2.720   1.011  -9.038  0.00  0.00    +0.000 C 
ATOM     13  O   UNL     1       2.309   2.122  -9.372  0.00  0.00    +0.000 OA
ATOM     14  H   UNL     1       3.676  -0.144  -7.622  0.00  0.00    +0.000 HD
BRANCH  12  15
ATOM     15  C   UNL     1       2.503  -0.159  -9.849  0.00  0.00    +0.000 A 
ATOM     16  C   UNL     1       2.841  -1.496  -9.718  0.00  0.00    +0.000 A 
ATOM     17  C   UNL     1       2.326  -2.120 -10.873  0.00  0.00    +0.000 A 
ATOM     18  N   UNL     1       1.717  -1.258 -11.683  0.00  0.00    +0.000 NA
ATOM     19  N   UNL     1       1.837  -0.081 -11.045  0.00  0.00    +0.000 N 
ATOM     20  H   UNL     1       1.445   0.754 -11.470  0.00  0.00    +0.000 HD
ENDBRANCH  12  15
ENDBRANCH  10  11
ENDBRANCH   8  10
ENDBRANCH   2   5
BRANCH   1  22
ATOM     21  C   UNL     1       1.489  -0.325   0.150  0.00  0.00    +0.000 C 
ATOM     22  C   UNL     1       2.969  -0.373  -0.250  0.00  0.00    +0.000 C 
BRANCH  22  23
ATOM     23  C   UNL     1       3.826   0.055   0.931  0.00  0.00    +0.000 A 
ATOM     24  C   UNL     1       4.360  -0.858   1.831  0.00  0.00    +0.000 A 
ATOM     25  S   UNL     1       5.133  -0.125   3.167  0.00  0.00    +0.000 S 
ATOM     26  C   UNL     1       4.792   1.437   2.585  0.00  0.00    +0.000 A 
ATOM     27  N   UNL     1       5.162   2.546   3.282  0.00  0.00    +0.000 NA
ATOM     28  C   UNL     1       4.829   3.662   2.724  0.00  0.00    +0.000 A 
ATOM     29  N   UNL     1       4.166   3.774   1.529  0.00  0.00    +0.000 N 
ATOM     30  C   UNL     1       3.800   2.684   0.778  0.00  0.00    +0.000 A 
ATOM     31  O   UNL     1       3.286   2.821  -0.327  0.00  0.00    +0.000 OA
ATOM     32  C   UNL     1       4.120   1.401   1.377  0.00  0.00    +0.000 A 
ATOM     33  H   UNL     1       3.971   4.678   1.127  0.00  0.00    +0.000 HD
ENDBRANCH  22  23
ENDBRANCH   1  22
TORSDOF 6
