REMARK  Name = 
REMARK  6 active torsions:
REMARK  status: ('A' for Active; 'I' for Inactive)
REMARK    1  A    between atoms: C_2  and  C_25
REMARK    2  A    between atoms: N_3  and  C_4
REMARK    3  A    between atoms: C_4  and  C_5
REMARK    4  A    between atoms: C_8  and  C_9
REMARK    5  A    between atoms: C_9  and  N_10
REMARK    6  A    between atoms: C_11  and  C_13
REMARK                            x       y       z     vdW  Elec       q    Type
REMARK                         _______ _______ _______ _____ _____    ______ ____
ROOT
ATOM      1  C   UNL     1       3.310  -3.382  -1.104  0.00  0.00    +0.000 A 
ATOM      2  C   UNL     1       4.567  -3.066  -1.616  0.00  0.00    +0.000 A 
ATOM      3  C   UNL     1       5.443  -4.098  -1.953  0.00  0.00    +0.000 A 
ATOM      4  C   UNL     1       5.062  -5.426  -1.754  0.00  0.00    +0.000 A 
ATOM      5  C   UNL     1       3.785  -5.648  -1.250  0.00  0.00    +0.000 A 
ATOM      6  N   UNL     1       2.910  -4.667  -0.919  0.00  0.00    +0.000 NA
ENDROOT
BRANCH   1   7
ATOM      7  C   UNL     1       2.330  -2.284  -0.751  0.00  0.00    +0.000 C 
BRANCH   7  10
ATOM      8  O   UNL     1       3.956  -0.094   0.042  0.00  0.00    +0.000 OA
ATOM      9  C   UNL     1       3.298  -0.697   0.886  0.00  0.00    +0.000 C 
ATOM     10  N   UNL     1       2.494  -1.774   0.593  0.00  0.00    +0.000 N 
ATOM     11  H   UNL     1       2.033  -2.239   1.369  0.00  0.00    +0.000 HD
BRANCH   9  12
ATOM     12  C   UNL     1       3.310  -0.278   2.327  0.00  0.00    +0.000 A 
ATOM     13  C   UNL     1       4.065   0.824   2.712  0.00  0.00    +0.000 A 
ATOM     14  C   UNL     1       4.046   1.206   4.050  0.00  0.00    +0.000 A 
ATOM     15  C   UNL     1       3.277   0.478   4.952  0.00  0.00    +0.000 A 
ATOM     16  C   UNL     1       2.552  -0.607   4.479  0.00  0.00    +0.000 A 
ATOM     17  N   UNL     1       2.545  -1.007   3.187  0.00  0.00    +0.000 NA
ENDBRANCH   9  12
ENDBRANCH   7  10
ENDBRANCH   1   7
BRANCH   4  18
ATOM     18  C   UNL     1       5.972  -6.567  -2.104  0.00  0.00    +0.000 C 
BRANCH  18  19
ATOM     19  N   UNL     1       5.778  -6.992  -3.467  0.00  0.00    +0.000 N 
ATOM     20  C   UNL     1       6.406  -8.107  -3.966  0.00  0.00    +0.000 C 
ATOM     21  O   UNL     1       7.113  -8.823  -3.265  0.00  0.00    +0.000 OA
ATOM     22  H   UNL     1       5.411  -6.303  -4.115  0.00  0.00    +0.000 HD
BRANCH  20  23
ATOM     23  C   UNL     1       6.134  -8.436  -5.373  0.00  0.00    +0.000 A 
ATOM     24  C   UNL     1       6.307  -9.739  -5.820  0.00  0.00    +0.000 A 
ATOM     25  S   UNL     1       5.889  -9.961  -7.460  0.00  0.00    +0.000 S 
ATOM     26  C   UNL     1       5.513  -8.312  -7.644  0.00  0.00    +0.000 A 
ATOM     27  N   UNL     1       5.100  -7.818  -8.842  0.00  0.00    +0.000 NA
ATOM     28  C   UNL     1       4.881  -6.545  -8.847  0.00  0.00    +0.000 A 
ATOM     29  N   UNL     1       5.034  -5.723  -7.761  0.00  0.00    +0.000 N 
ATOM     30  C   UNL     1       5.421  -6.181  -6.525  0.00  0.00    +0.000 A 
ATOM     31  O   UNL     1       5.510  -5.425  -5.564  0.00  0.00    +0.000 OA
ATOM     32  C   UNL     1       5.690  -7.606  -6.467  0.00  0.00    +0.000 A 
ATOM     33  H   UNL     1       4.840  -4.734  -7.829  0.00  0.00    +0.000 HD
ENDBRANCH  20  23
ENDBRANCH  18  19
ENDBRANCH   4  18
TORSDOF 6
