REMARK  Name = 
REMARK  3 active torsions:
REMARK  status: ('A' for Active; 'I' for Inactive)
REMARK    1  A    between atoms: C_2  and  C_4
REMARK    2  A    between atoms: N_8  and  C_9
REMARK    3  A    between atoms: C_9  and  C_10
REMARK                            x       y       z     vdW  Elec       q    Type
REMARK                         _______ _______ _______ _____ _____    ______ ____
ROOT
ATOM      1  C   UNL     1       3.351   0.505   1.231  0.00  0.00    +0.000 A 
ATOM      2  C   UNL     1       4.646   0.945   1.352  0.00  0.00    +0.000 A 
ATOM      3  N   UNL     1       5.347   0.893   2.504  0.00  0.00    +0.000 NA
ATOM      4  C   UNL     1       4.727   0.390   3.583  0.00  0.00    +0.000 A 
ATOM      5  N   UNL     1       5.413   0.305   4.786  0.00  0.00    +0.000 N 
ATOM      6  N   UNL     1       3.458  -0.048   3.570  0.00  0.00    +0.000 NA
ATOM      7  C   UNL     1       2.792   0.022   2.390  0.00  0.00    +0.000 A 
ATOM      8  H   UNL     1       4.728   0.202   5.527  0.00  0.00    +0.000 HD
ENDROOT
BRANCH   1  10
ATOM      9  N   UNL     1       3.282   0.532  -1.196  0.00  0.00    +0.000 N 
ATOM     10  C   UNL     1       2.585   0.581  -0.019  0.00  0.00    +0.000 C 
ATOM     11  O   UNL     1       1.365   0.664  -0.007  0.00  0.00    +0.000 OA
ATOM     12  H   UNL     1       2.727   0.498  -2.044  0.00  0.00    +0.000 HD
ATOM     13  H   UNL     1       4.240   0.214  -1.264  0.00  0.00    +0.000 HD
ENDBRANCH   1  10
BRANCH   5  14
ATOM     14  C   UNL     1       6.387   1.364   4.974  0.00  0.00    +0.000 C 
BRANCH  14  15
ATOM     15  C   UNL     1       7.056   1.229   6.321  0.00  0.00    +0.000 A 
ATOM     16  C   UNL     1       7.753   0.064   6.656  0.00  0.00    +0.000 A 
ATOM     17  C   UNL     1       8.376  -0.008   7.892  0.00  0.00    +0.000 A 
ATOM     18  N   UNL     1       8.363   0.991   8.799  0.00  0.00    +0.000 NA
ATOM     19  C   UNL     1       7.696   2.112   8.454  0.00  0.00    +0.000 A 
ATOM     20  C   UNL     1       7.037   2.279   7.245  0.00  0.00    +0.000 A 
ENDBRANCH  14  15
ENDBRANCH   5  14
TORSDOF 3
