REMARK  Name = 
REMARK  9 active torsions:
REMARK  status: ('A' for Active; 'I' for Inactive)
REMARK    1  A    between atoms: C_1  and  O_2
REMARK    2  A    between atoms: O_2  and  C_3
REMARK    3  A    between atoms: C_10  and  C_11
REMARK    4  A    between atoms: N_13  and  C_14
REMARK    5  A    between atoms: C_14  and  C_15
REMARK    6  A    between atoms: C_18  and  C_19
REMARK    7  A    between atoms: C_19  and  N_20
REMARK    8  A    between atoms: N_20  and  C_21
REMARK    9  A    between atoms: C_21  and  C_22
REMARK                            x       y       z     vdW  Elec       q    Type
REMARK                         _______ _______ _______ _____ _____    ______ ____
ROOT
ATOM      1  C   UNL     1       3.412  -3.115   1.081  0.00  0.00    +0.000 C 
ENDROOT
BRANCH   1   2
ATOM      2  C   UNL     1       2.423  -2.684   2.136  0.00  0.00    +0.000 A 
ATOM      3  C   UNL     1       1.540  -3.612   2.699  0.00  0.00    +0.000 A 
ATOM      4  C   UNL     1       0.591  -3.211   3.646  0.00  0.00    +0.000 A 
ATOM      5  C   UNL     1       0.506  -1.874   4.066  0.00  0.00    +0.000 A 
ATOM      6  C   UNL     1       1.374  -0.942   3.479  0.00  0.00    +0.000 A 
ATOM      7  C   UNL     1       2.321  -1.341   2.525  0.00  0.00    +0.000 A 
BRANCH   5   8
ATOM      8  C   UNL     1      -0.533  -1.416   5.075  0.00  0.00    +0.000 C 
BRANCH   8   9
ATOM      9  N   UNL     1      -0.834  -2.459   6.056  0.00  0.00    +0.000 NA
ATOM     10  H   UNL     1       0.032  -2.717   6.530  0.00  0.00    +0.000 HD
BRANCH   9  11
ATOM     11  C   UNL     1      -1.835  -2.060   7.043  0.00  0.00    +0.000 C 
BRANCH  11  12
ATOM     12  C   UNL     1      -2.119  -3.239   7.994  0.00  0.00    +0.000 C 
ATOM     13  C   UNL     1      -2.681  -4.458   7.242  0.00  0.00    +0.000 C 
ATOM     14  C   UNL     1      -3.084  -5.562   8.213  0.00  0.00    +0.000 C 
ATOM     15  C   UNL     1      -3.994  -5.011   9.298  0.00  0.00    +0.000 C 
ATOM     16  O   UNL     1      -3.356  -3.934   9.984  0.00  0.00    +0.000 OA
ATOM     17  C   UNL     1      -3.079  -2.830   9.117  0.00  0.00    +0.000 C 
ENDBRANCH  11  12
ENDBRANCH   9  11
ENDBRANCH   8   9
ENDBRANCH   5   8
ENDBRANCH   1   2
BRANCH   1  20
ATOM     18  C   UNL     1       3.504  -3.381  -1.371  0.00  0.00    +0.000 C 
ATOM     19  O   UNL     1       4.657  -3.798  -1.325  0.00  0.00    +0.000 OA
ATOM     20  N   UNL     1       2.827  -3.034  -0.235  0.00  0.00    +0.000 N 
ATOM     21  H   UNL     1       1.872  -2.709  -0.294  0.00  0.00    +0.000 HD
BRANCH  18  29
ATOM     22  C   UNL     1       0.324  -2.354  -2.214  0.00  0.00    +0.000 A 
ATOM     23  N   UNL     1      -0.803  -1.922  -2.812  0.00  0.00    +0.000 NA
ATOM     24  C   UNL     1      -0.840  -1.911  -4.147  0.00  0.00    +0.000 A 
ATOM     25  N   UNL     1       0.124  -2.300  -4.978  0.00  0.00    +0.000 NA
ATOM     26  C   UNL     1       1.234  -2.711  -4.340  0.00  0.00    +0.000 A 
ATOM     27  S   UNL     1       2.564  -3.256  -5.241  0.00  0.00    +0.000 S 
ATOM     28  C   UNL     1       3.470  -3.535  -3.831  0.00  0.00    +0.000 A 
ATOM     29  C   UNL     1       2.796  -3.218  -2.656  0.00  0.00    +0.000 A 
ATOM     30  C   UNL     1       1.443  -2.754  -2.965  0.00  0.00    +0.000 A 
BRANCH  22  32
ATOM     31  C   UNL     1      -0.921  -2.467  -0.235  0.00  0.00    +0.000 C 
ATOM     32  O   UNL     1       0.367  -2.353  -0.836  0.00  0.00    +0.000 OA
ENDBRANCH  22  32
ENDBRANCH  18  29
ENDBRANCH   1  20
TORSDOF 8
