REMARK  Name = 
REMARK  11 active torsions:
REMARK  status: ('A' for Active; 'I' for Inactive)
REMARK    1  A    between atoms: C_1  and  C_2
REMARK    2  A    between atoms: C_2  and  C_3
REMARK    3  A    between atoms: C_3  and  N_4
REMARK    4  A    between atoms: C_3  and  C_20
REMARK    5  A    between atoms: N_4  and  C_5
REMARK    6  A    between atoms: C_5  and  C_6
REMARK    7  A    between atoms: C_9  and  C_10
REMARK    8  A    between atoms: C_10  and  O_11
REMARK    9  A    between atoms: C_10  and  C_12
REMARK   10  A    between atoms: C_12  and  N_13
REMARK   11  A    between atoms: C_20  and  C_22
REMARK                            x       y       z     vdW  Elec       q    Type
REMARK                         _______ _______ _______ _____ _____    ______ ____
ROOT
ATOM      1  N   UNL     1       2.235   2.835  -8.825  0.00  0.00    +0.000 NA
ATOM      2  H   UNL     1       1.234   2.794  -8.615  0.00  0.00    +0.000 HD
ENDROOT
BRANCH   1   3
ATOM      3  C   UNL     1       2.440   2.423 -10.229  0.00  0.00    +0.000 C 
BRANCH   3   5
ATOM      4  C   UNL     1       2.656  -0.045  -9.530  0.00  0.00    +0.000 C 
ATOM      5  C   UNL     1       1.948   0.974 -10.414  0.00  0.00    +0.000 C 
ENDBRANCH   3   5
BRANCH   3   6
ATOM      6  C   UNL     1       1.648   3.332 -11.214  0.00  0.00    +0.000 C 
ATOM      7  O   UNL     1       0.515   3.724 -10.925  0.00  0.00    +0.000 OA
BRANCH   6   8
ATOM      8  C   UNL     1       2.251   3.659 -12.510  0.00  0.00    +0.000 A 
ATOM      9  C   UNL     1       3.125   2.813 -13.177  0.00  0.00    +0.000 A 
ATOM     10  S   UNL     1       3.587   3.389 -14.716  0.00  0.00    +0.000 S 
ATOM     11  C   UNL     1       2.642   4.792 -14.537  0.00  0.00    +0.000 A 
ATOM     12  N   UNL     1       2.572   5.717 -15.530  0.00  0.00    +0.000 NA
ATOM     13  C   UNL     1       1.789   6.712 -15.273  0.00  0.00    +0.000 A 
ATOM     14  N   UNL     1       1.093   6.877 -14.103  0.00  0.00    +0.000 N 
ATOM     15  C   UNL     1       1.250   6.043 -13.016  0.00  0.00    +0.000 A 
ATOM     16  O   UNL     1       0.846   6.370 -11.905  0.00  0.00    +0.000 OA
ATOM     17  C   UNL     1       2.016   4.842 -13.305  0.00  0.00    +0.000 A 
ATOM     18  H   UNL     1       0.565   7.721 -13.937  0.00  0.00    +0.000 HD
ENDBRANCH   6   8
ENDBRANCH   3   6
ENDBRANCH   1   3
BRANCH   1  19
ATOM     19  C   UNL     1       2.695   4.196  -8.544  0.00  0.00    +0.000 C 
BRANCH  19  20
ATOM     20  C   UNL     1       2.450   4.536  -7.093  0.00  0.00    +0.000 A 
ATOM     21  C   UNL     1       3.117   3.846  -6.072  0.00  0.00    +0.000 A 
ATOM     22  C   UNL     1       2.822   4.102  -4.730  0.00  0.00    +0.000 A 
ATOM     23  C   UNL     1       1.856   5.057  -4.379  0.00  0.00    +0.000 A 
ATOM     24  C   UNL     1       1.220   5.774  -5.403  0.00  0.00    +0.000 A 
ATOM     25  C   UNL     1       1.510   5.513  -6.744  0.00  0.00    +0.000 A 
BRANCH  23  26
ATOM     26  C   UNL     1       1.497   5.264  -2.918  0.00  0.00    +0.000 C 
BRANCH  26  27
ATOM     27  O   UNL     1       0.136   4.876  -2.719  0.00  0.00    +0.000 OA
ATOM     28  H   UNL     1      -0.411   5.403  -3.321  0.00  0.00    +0.000 HD
ENDBRANCH  26  27
BRANCH  26  29
ATOM     29  C   UNL     1       1.753   6.728  -2.454  0.00  0.00    +0.000 C 
BRANCH  29  30
ATOM     30  N   UNL     1       1.431   7.021  -1.037  0.00  0.00    +0.000 NA
ATOM     31  C   UNL     1       1.658   8.443  -0.725  0.00  0.00    +0.000 C 
ATOM     32  C   UNL     1       3.128   8.522  -0.364  0.00  0.00    +0.000 C 
ATOM     33  C   UNL     1       3.337   7.250   0.434  0.00  0.00    +0.000 C 
ATOM     34  C   UNL     1       2.280   6.280  -0.088  0.00  0.00    +0.000 C 
ENDBRANCH  29  30
ENDBRANCH  26  29
ENDBRANCH  23  26
ENDBRANCH  19  20
ENDBRANCH   1  19
TORSDOF 10
