REMARK  Name = 
REMARK  5 active torsions:
REMARK  status: ('A' for Active; 'I' for Inactive)
REMARK    1  A    between atoms: C_2  and  C_4
REMARK    2  A    between atoms: C_7  and  N_8
REMARK    3  A    between atoms: N_8  and  C_9
REMARK    4  A    between atoms: C_9  and  C_10
REMARK    5  A    between atoms: C_14  and  C_15
REMARK                            x       y       z     vdW  Elec       q    Type
REMARK                         _______ _______ _______ _____ _____    ______ ____
ROOT
ATOM      1  C   UNL     1       4.318  -5.125   3.494  0.00  0.00    +0.000 C 
ENDROOT
BRANCH   1   2
ATOM      2  C   UNL     1       5.022  -5.900   4.583  0.00  0.00    +0.000 A 
ATOM      3  C   UNL     1       4.876  -7.288   4.658  0.00  0.00    +0.000 A 
ATOM      4  C   UNL     1       5.530  -7.971   5.665  0.00  0.00    +0.000 A 
ATOM      5  N   UNL     1       6.308  -7.374   6.592  0.00  0.00    +0.000 NA
ATOM      6  C   UNL     1       6.465  -6.027   6.522  0.00  0.00    +0.000 A 
ATOM      7  C   UNL     1       5.836  -5.268   5.530  0.00  0.00    +0.000 A 
BRANCH   6   8
ATOM      8  C   UNL     1       7.303  -5.426   7.581  0.00  0.00    +0.000 A 
ATOM      9  C   UNL     1       7.363  -6.005   8.866  0.00  0.00    +0.000 A 
ATOM     10  C   UNL     1       8.115  -5.433   9.898  0.00  0.00    +0.000 A 
ATOM     11  C   UNL     1       8.834  -4.267   9.666  0.00  0.00    +0.000 A 
ATOM     12  C   UNL     1       8.803  -3.695   8.400  0.00  0.00    +0.000 A 
ATOM     13  F   UNL     1       9.498  -2.573   8.168  0.00  0.00    +0.000 F 
ATOM     14  C   UNL     1       8.058  -4.260   7.367  0.00  0.00    +0.000 A 
ENDBRANCH   6   8
ENDBRANCH   1   2
BRANCH   1  15
ATOM     15  N   UNL     1       2.881  -5.289   3.669  0.00  0.00    +0.000 N 
ATOM     16  H   UNL     1       2.521  -4.745   4.446  0.00  0.00    +0.000 HD
BRANCH  15  20
ATOM     17  C   UNL     1       0.460  -5.231   0.355  0.00  0.00    +0.000 A 
ATOM     18  C   UNL     1       1.820  -4.995   0.240  0.00  0.00    +0.000 A 
ATOM     19  N   UNL     1       2.650  -4.952   1.318  0.00  0.00    +0.000 NA
ATOM     20  C   UNL     1       2.087  -5.157   2.527  0.00  0.00    +0.000 A 
ATOM     21  C   UNL     1       0.703  -5.370   2.621  0.00  0.00    +0.000 A 
ATOM     22  N   UNL     1      -0.147  -5.406   1.559  0.00  0.00    +0.000 NA
BRANCH  17  24
ATOM     23  N   UNL     1      -1.712  -5.568  -0.665  0.00  0.00    +0.000 N 
ATOM     24  C   UNL     1      -0.377  -5.346  -0.870  0.00  0.00    +0.000 C 
ATOM     25  O   UNL     1       0.097  -5.260  -1.996  0.00  0.00    +0.000 OA
ATOM     26  H   UNL     1      -2.324  -5.680  -1.461  0.00  0.00    +0.000 HD
ATOM     27  H   UNL     1      -2.079  -5.645   0.277  0.00  0.00    +0.000 HD
ENDBRANCH  17  24
ENDBRANCH  15  20
ENDBRANCH   1  15
TORSDOF 5
