REMARK  Name = 
REMARK  5 active torsions:
REMARK  status: ('A' for Active; 'I' for Inactive)
REMARK    1  A    between atoms: C_2  and  C_4
REMARK    2  A    between atoms: N_8  and  C_9
REMARK    3  A    between atoms: C_9  and  C_10
REMARK    4  A    between atoms: C_10  and  O_11
REMARK    5  A    between atoms: C_10  and  C_12
REMARK                            x       y       z     vdW  Elec       q    Type
REMARK                         _______ _______ _______ _____ _____    ______ ____
ROOT
ATOM      1  C   UNL     1       4.334  -1.015  -1.000  0.00  0.00    +0.000 A 
ATOM      2  C   UNL     1       5.386  -1.175  -0.103  0.00  0.00    +0.000 A 
ATOM      3  C   UNL     1       5.740  -2.460   0.301  0.00  0.00    +0.000 A 
ATOM      4  C   UNL     1       5.065  -3.561  -0.223  0.00  0.00    +0.000 A 
ATOM      5  N   UNL     1       5.583  -4.818   0.066  0.00  0.00    +0.000 N 
ATOM      6  N   UNL     1       4.019  -3.417  -1.065  0.00  0.00    +0.000 NA
ATOM      7  C   UNL     1       3.662  -2.153  -1.419  0.00  0.00    +0.000 A 
ATOM      8  H   UNL     1       5.626  -5.006   1.065  0.00  0.00    +0.000 HD
ENDROOT
BRANCH   1  10
ATOM      9  N   UNL     1       4.878   1.272  -1.606  0.00  0.00    +0.000 N 
ATOM     10  C   UNL     1       3.914   0.302  -1.516  0.00  0.00    +0.000 C 
ATOM     11  O   UNL     1       2.771   0.508  -1.893  0.00  0.00    +0.000 OA
ATOM     12  H   UNL     1       4.604   2.130  -2.069  0.00  0.00    +0.000 HD
ATOM     13  H   UNL     1       5.865   1.066  -1.554  0.00  0.00    +0.000 HD
ENDBRANCH   1  10
BRANCH   5  14
ATOM     14  C   UNL     1       5.060  -5.945  -0.704  0.00  0.00    +0.000 C 
BRANCH  14  15
ATOM     15  C   UNL     1       5.989  -7.165  -0.481  0.00  0.00    +0.000 C 
BRANCH  15  16
ATOM     16  C   UNL     1       5.743  -8.343  -1.400  0.00  0.00    +0.000 A 
ATOM     17  C   UNL     1       6.828  -9.160  -1.765  0.00  0.00    +0.000 A 
ATOM     18  C   UNL     1       6.649 -10.252  -2.615  0.00  0.00    +0.000 A 
ATOM     19  C   UNL     1       5.380 -10.554  -3.102  0.00  0.00    +0.000 A 
ATOM     20  C   UNL     1       4.292  -9.764  -2.740  0.00  0.00    +0.000 A 
ATOM     21  C   UNL     1       4.469  -8.668  -1.891  0.00  0.00    +0.000 A 
ENDBRANCH  15  16
BRANCH  15  22
ATOM     22  O   UNL     1       5.877  -7.599   0.883  0.00  0.00    +0.000 OA
ATOM     23  H   UNL     1       5.052  -8.110   0.949  0.00  0.00    +0.000 HD
ENDBRANCH  15  22
ENDBRANCH  14  15
ENDBRANCH   5  14
TORSDOF 5
