REMARK  Name = 
REMARK  4 active torsions:
REMARK  status: ('A' for Active; 'I' for Inactive)
REMARK    1  A    between atoms: N_1  and  C_2
REMARK    2  A    between atoms: C_2  and  C_3
REMARK    3  A    between atoms: N_5  and  C_6
REMARK    4  A    between atoms: C_6  and  C_7
REMARK                            x       y       z     vdW  Elec       q    Type
REMARK                         _______ _______ _______ _____ _____    ______ ____
ROOT
ATOM      1  C   UNL     1       3.334   3.518   3.394  0.00  0.00    +0.000 C 
ENDROOT
BRANCH   1   2
ATOM      2  C   UNL     1       2.634   4.591   2.613  0.00  0.00    +0.000 A 
ATOM      3  C   UNL     1       1.263   4.767   2.711  0.00  0.00    +0.000 A 
ATOM      4  N   UNL     1       0.597   5.717   2.017  0.00  0.00    +0.000 NA
ATOM      5  C   UNL     1       1.333   6.485   1.191  0.00  0.00    +0.000 A 
ATOM      6  C   UNL     1       0.710   7.464   0.424  0.00  0.00    +0.000 A 
ATOM      7  C   UNL     1       1.437   8.275  -0.448  0.00  0.00    +0.000 A 
ATOM      8  C   UNL     1       2.812   8.114  -0.548  0.00  0.00    +0.000 A 
ATOM      9  C   UNL     1       3.449   7.138   0.220  0.00  0.00    +0.000 A 
ATOM     10  C   UNL     1       2.735   6.319   1.085  0.00  0.00    +0.000 A 
ATOM     11  N   UNL     1       3.384   5.376   1.800  0.00  0.00    +0.000 NA
ENDBRANCH   1   2
BRANCH   1  14
ATOM     12  C   UNL     1       3.370   0.135   2.173  0.00  0.00    +0.000 A 
ATOM     13  C   UNL     1       2.906   1.059   3.090  0.00  0.00    +0.000 A 
ATOM     14  N   UNL     1       3.395   2.264   2.665  0.00  0.00    +0.000 N 
ATOM     15  C   UNL     1       4.082   2.047   1.504  0.00  0.00    +0.000 A 
ATOM     16  N   UNL     1       4.081   0.773   1.178  0.00  0.00    +0.000 NA
BRANCH  12  17
ATOM     17  C   UNL     1       3.219  -1.349   2.175  0.00  0.00    +0.000 C 
BRANCH  17  18
ATOM     18  N   UNL     1       2.009  -1.713   1.443  0.00  0.00    +0.000 NA
ATOM     19  H   UNL     1       2.005  -2.722   1.310  0.00  0.00    +0.000 HD
ATOM     20  H   UNL     1       2.091  -1.307   0.509  0.00  0.00    +0.000 HD
ENDBRANCH  17  18
ENDBRANCH  12  17
ENDBRANCH   1  14
TORSDOF 4
