REMARK  Name = 
REMARK  9 active torsions:
REMARK  status: ('A' for Active; 'I' for Inactive)
REMARK    1  A    between atoms: C_1  and  C_2
REMARK    2  A    between atoms: C_7  and  C_8
REMARK    3  A    between atoms: C_8  and  C_9
REMARK    4  A    between atoms: C_8  and  C_10
REMARK    5  A    between atoms: C_8  and  C_11
REMARK    6  A    between atoms: C_11  and  N_12
REMARK    7  A    between atoms: N_12  and  C_13
REMARK    8  A    between atoms: C_16  and  C_17
REMARK    9  A    between atoms: N_19  and  O_20
REMARK                            x       y       z     vdW  Elec       q    Type
REMARK                         _______ _______ _______ _____ _____    ______ ____
ROOT
ATOM      1  C   UNL     1       1.756   4.970  -5.004  0.00  0.00    +0.000 C 
ATOM      2  C   UNL     1       1.653   4.992  -6.545  0.00  0.00    +0.000 C 
ATOM      3  C   UNL     1       0.784   6.009  -4.403  0.00  0.00    +0.000 C 
ENDROOT
BRANCH   1  10
ATOM      4  C   UNL     1       1.453  -2.208  -3.167  0.00  0.00    +0.000 C 
ATOM      5  C   UNL     1       2.493  -1.757  -2.141  0.00  0.00    +0.000 C 
ATOM      6  C   UNL     1       2.284  -0.291  -1.688  0.00  0.00    +0.000 C 
ATOM      7  N   UNL     1       2.791   0.701  -2.643  0.00  0.00    +0.000 N 
ATOM      8  C   UNL     1       1.866   1.452  -3.358  0.00  0.00    +0.000 A 
ATOM      9  C   UNL     1       2.235   2.731  -3.790  0.00  0.00    +0.000 A 
ATOM     10  C   UNL     1       1.356   3.560  -4.506  0.00  0.00    +0.000 A 
ATOM     11  C   UNL     1       0.084   3.032  -4.753  0.00  0.00    +0.000 A 
ATOM     12  C   UNL     1      -0.225   1.764  -4.281  0.00  0.00    +0.000 A 
ATOM     13  N   UNL     1       0.627   0.981  -3.585  0.00  0.00    +0.000 NA
ATOM     14  C   UNL     1       4.074   0.404  -3.299  0.00  0.00    +0.000 C 
ATOM     15  C   UNL     1       4.221  -1.082  -3.691  0.00  0.00    +0.000 C 
ATOM     16  N   UNL     1       3.875  -2.027  -2.613  0.00  0.00    +0.000 NA
ATOM     17  H   UNL     1       4.504  -1.845  -1.830  0.00  0.00    +0.000 HD
ENDBRANCH   1  10
BRANCH   1  18
ATOM     18  C   UNL     1       3.224   5.333  -4.602  0.00  0.00    +0.000 C 
BRANCH  18  19
ATOM     19  N   UNL     1       3.684   6.650  -5.069  0.00  0.00    +0.000 N 
ATOM     20  H   UNL     1       3.024   7.397  -4.863  0.00  0.00    +0.000 HD
BRANCH  19  21
ATOM     21  C   UNL     1       4.996   7.023  -4.726  0.00  0.00    +0.000 A 
ATOM     22  C   UNL     1       6.043   6.107  -4.603  0.00  0.00    +0.000 A 
ATOM     23  C   UNL     1       7.344   6.541  -4.353  0.00  0.00    +0.000 A 
ATOM     24  C   UNL     1       7.576   7.904  -4.251  0.00  0.00    +0.000 A 
ATOM     25  N   UNL     1       6.604   8.846  -4.377  0.00  0.00    +0.000 NA
ATOM     26  C   UNL     1       5.355   8.375  -4.631  0.00  0.00    +0.000 A 
BRANCH  24  27
ATOM     27  C   UNL     1       8.966   8.387  -4.012  0.00  0.00    +0.000 C 
ATOM     28  O   UNL     1       9.923   7.615  -3.917  0.00  0.00    +0.000 OA
ATOM     29  N   UNL     1       9.106   9.745  -3.904  0.00  0.00    +0.000 N 
ATOM     30  H   UNL     1       8.319  10.388  -3.912  0.00  0.00    +0.000 HD
BRANCH  29  31
ATOM     31  O   UNL     1      10.402  10.241  -3.652  0.00  0.00    +0.000 OA
ATOM     32  H   UNL     1      10.936   9.418  -3.632  0.00  0.00    +0.000 HD
ENDBRANCH  29  31
ENDBRANCH  24  27
ENDBRANCH  19  21
ENDBRANCH  18  19
ENDBRANCH   1  18
TORSDOF 6
