REMARK  Name = 
REMARK  5 active torsions:
REMARK  status: ('A' for Active; 'I' for Inactive)
REMARK    1  A    between atoms: C_2  and  C_4
REMARK    2  A    between atoms: C_7  and  N_8
REMARK    3  A    between atoms: N_8  and  C_9
REMARK    4  A    between atoms: C_9  and  C_10
REMARK    5  A    between atoms: C_12  and  C_13
REMARK                            x       y       z     vdW  Elec       q    Type
REMARK                         _______ _______ _______ _____ _____    ______ ____
ROOT
ATOM      1  N   UNL     1       5.367   4.855   0.447  0.00  0.00    +0.000 N 
ATOM      2  H   UNL     1       5.308   5.044  -0.547  0.00  0.00    +0.000 HD
ENDROOT
BRANCH   1   6
ATOM      3  C   UNL     1       7.992   1.715   1.444  0.00  0.00    +0.000 A 
ATOM      4  C   UNL     1       7.837   2.784   2.328  0.00  0.00    +0.000 A 
ATOM      5  C   UNL     1       6.999   3.855   1.996  0.00  0.00    +0.000 A 
ATOM      6  C   UNL     1       6.318   3.896   0.774  0.00  0.00    +0.000 A 
ATOM      7  C   UNL     1       6.505   2.823  -0.111  0.00  0.00    +0.000 A 
ATOM      8  C   UNL     1       7.340   1.747   0.211  0.00  0.00    +0.000 A 
BRANCH   3  10
ATOM      9  N   UNL     1       8.970   0.233   3.108  0.00  0.00    +0.000 N 
ATOM     10  C   UNL     1       8.829   0.536   1.781  0.00  0.00    +0.000 C 
ATOM     11  O   UNL     1       9.331  -0.169   0.916  0.00  0.00    +0.000 OA
ATOM     12  H   UNL     1       9.436  -0.640   3.319  0.00  0.00    +0.000 HD
ATOM     13  H   UNL     1       8.361   0.621   3.813  0.00  0.00    +0.000 HD
ENDBRANCH   3  10
ENDBRANCH   1   6
BRANCH   1  14
ATOM     14  C   UNL     1       5.042   5.986   1.313  0.00  0.00    +0.000 C 
BRANCH  14  15
ATOM     15  C   UNL     1       5.966   7.174   1.128  0.00  0.00    +0.000 A 
ATOM     16  C   UNL     1       6.044   7.809  -0.113  0.00  0.00    +0.000 A 
ATOM     17  C   UNL     1       6.836   8.955  -0.279  0.00  0.00    +0.000 A 
ATOM     18  C   UNL     1       7.532   9.406   0.849  0.00  0.00    +0.000 A 
ATOM     19  C   UNL     1       7.416   8.714   2.046  0.00  0.00    +0.000 A 
ATOM     20  N   UNL     1       6.647   7.618   2.212  0.00  0.00    +0.000 NA
BRANCH  17  21
ATOM     21  C   UNL     1       6.925   9.648  -1.587  0.00  0.00    +0.000 A 
ATOM     22  C   UNL     1       5.843   9.678  -2.480  0.00  0.00    +0.000 A 
ATOM     23  C   UNL     1       5.978  10.320  -3.703  0.00  0.00    +0.000 A 
ATOM     24  N   UNL     1       7.101  10.946  -4.099  0.00  0.00    +0.000 NA
ATOM     25  C   UNL     1       8.136  10.924  -3.237  0.00  0.00    +0.000 A 
ATOM     26  C   UNL     1       8.097  10.298  -1.998  0.00  0.00    +0.000 A 
ENDBRANCH  17  21
ENDBRANCH  14  15
ENDBRANCH   1  14
TORSDOF 5
