REMARK  Name = 
REMARK  5 active torsions:
REMARK  status: ('A' for Active; 'I' for Inactive)
REMARK    1  A    between atoms: C_1  and  S_2
REMARK    2  A    between atoms: S_2  and  C_3
REMARK    3  A    between atoms: N_10  and  C_11
REMARK    4  A    between atoms: C_11  and  C_12
REMARK    5  A    between atoms: N_15  and  C_16
REMARK                            x       y       z     vdW  Elec       q    Type
REMARK                         _______ _______ _______ _____ _____    ______ ____
ROOT
ATOM      1  C   UNL     1       5.323  -2.386   0.292  0.00  0.00    +0.000 A 
ATOM      2  C   UNL     1       6.289  -2.337   1.304  0.00  0.00    +0.000 A 
ATOM      3  N   UNL     1       6.165  -2.793   2.576  0.00  0.00    +0.000 NA
ATOM      4  C   UNL     1       4.966  -3.353   2.816  0.00  0.00    +0.000 A 
ATOM      5  C   UNL     1       3.939  -3.552   1.886  0.00  0.00    +0.000 A 
ATOM      6  C   UNL     1       2.900  -4.243   2.563  0.00  0.00    +0.000 A 
ATOM      7  C   UNL     1       3.277  -4.383   3.882  0.00  0.00    +0.000 A 
ATOM      8  N   UNL     1       4.505  -3.777   4.039  0.00  0.00    +0.000 N 
ATOM      9  C   UNL     1       4.129  -3.049   0.584  0.00  0.00    +0.000 A 
ENDROOT
BRANCH   1  11
ATOM     10  C   UNL     1       4.418  -2.114  -2.384  0.00  0.00    +0.000 C 
ATOM     11  S   UNL     1       5.679  -1.516  -1.229  0.00  0.00    +0.000 S 
ENDBRANCH   1  11
BRANCH   8  12
ATOM     12  C   UNL     1       5.182  -3.597   5.317  0.00  0.00    +0.000 C 
BRANCH  12  13
ATOM     13  C   UNL     1       4.760  -2.315   6.069  0.00  0.00    +0.000 C 
ATOM     14  C   UNL     1       5.266  -1.018   5.423  0.00  0.00    +0.000 C 
ATOM     15  C   UNL     1       6.788  -0.892   5.509  0.00  0.00    +0.000 C 
ATOM     16  N   UNL     1       7.276  -0.971   6.895  0.00  0.00    +0.000 NA
ATOM     17  C   UNL     1       8.744  -0.965   6.895  0.00  0.00    +0.000 C 
ATOM     18  C   UNL     1       6.779  -2.141   7.627  0.00  0.00    +0.000 C 
ATOM     19  C   UNL     1       5.261  -2.323   7.522  0.00  0.00    +0.000 C 
ENDBRANCH  12  13
ENDBRANCH   8  12
TORSDOF 3
