REMARK  Name = 
REMARK  6 active torsions:
REMARK  status: ('A' for Active; 'I' for Inactive)
REMARK    1  A    between atoms: C_1  and  C_2
REMARK    2  A    between atoms: N_4  and  C_5
REMARK    3  A    between atoms: C_5  and  C_6
REMARK    4  A    between atoms: C_9  and  C_10
REMARK    5  A    between atoms: C_10  and  N_11
REMARK    6  A    between atoms: C_12  and  C_14
REMARK                            x       y       z     vdW  Elec       q    Type
REMARK                         _______ _______ _______ _____ _____    ______ ____
ROOT
ATOM      1  C   UNL     1       1.107   6.927  -2.400  0.00  0.00    +0.000 C 
ENDROOT
BRANCH   1   5
ATOM      2  C   UNL     1       2.646   3.021  -3.172  0.00  0.00    +0.000 A 
ATOM      3  C   UNL     1       3.062   3.685  -2.021  0.00  0.00    +0.000 A 
ATOM      4  C   UNL     1       2.561   4.960  -1.755  0.00  0.00    +0.000 A 
ATOM      5  C   UNL     1       1.683   5.565  -2.656  0.00  0.00    +0.000 A 
ATOM      6  C   UNL     1       1.339   4.837  -3.789  0.00  0.00    +0.000 A 
ATOM      7  N   UNL     1       1.792   3.590  -4.063  0.00  0.00    +0.000 NA
BRANCH   2   8
ATOM      8  C   UNL     1       3.098   1.593  -3.446  0.00  0.00    +0.000 C 
BRANCH   8  12
ATOM      9  C   UNL     1       6.782   2.614  -5.805  0.00  0.00    +0.000 C 
ATOM     10  C   UNL     1       5.609   1.786  -6.328  0.00  0.00    +0.000 C 
ATOM     11  C   UNL     1       4.308   2.015  -5.525  0.00  0.00    +0.000 C 
ATOM     12  N   UNL     1       4.390   1.454  -4.155  0.00  0.00    +0.000 NA
ATOM     13  C   UNL     1       4.727   0.016  -4.282  0.00  0.00    +0.000 C 
ATOM     14  C   UNL     1       6.014  -0.211  -5.090  0.00  0.00    +0.000 C 
ATOM     15  O   UNL     1       5.944   0.388  -6.388  0.00  0.00    +0.000 OA
ENDBRANCH   8  12
ENDBRANCH   2   8
ENDBRANCH   1   5
BRANCH   1  16
ATOM     16  N   UNL     1      -0.130   6.860  -1.659  0.00  0.00    +0.000 N 
ATOM     17  C   UNL     1      -0.882   7.987  -1.444  0.00  0.00    +0.000 C 
ATOM     18  O   UNL     1      -0.562   9.074  -1.919  0.00  0.00    +0.000 OA
ATOM     19  H   UNL     1      -0.285   6.040  -1.076  0.00  0.00    +0.000 HD
BRANCH  17  20
ATOM     20  C   UNL     1      -2.119   7.829  -0.668  0.00  0.00    +0.000 A 
ATOM     21  C   UNL     1      -3.137   8.763  -0.807  0.00  0.00    +0.000 A 
ATOM     22  S   UNL     1      -4.519   8.418   0.130  0.00  0.00    +0.000 S 
ATOM     23  C   UNL     1      -3.789   7.033   0.794  0.00  0.00    +0.000 A 
ATOM     24  N   UNL     1      -4.442   6.274   1.714  0.00  0.00    +0.000 NA
ATOM     25  C   UNL     1      -3.758   5.271   2.158  0.00  0.00    +0.000 A 
ATOM     26  N   UNL     1      -2.484   4.958   1.760  0.00  0.00    +0.000 N 
ATOM     27  C   UNL     1      -1.798   5.677   0.809  0.00  0.00    +0.000 A 
ATOM     28  O   UNL     1      -0.678   5.342   0.441  0.00  0.00    +0.000 OA
ATOM     29  C   UNL     1      -2.515   6.824   0.291  0.00  0.00    +0.000 A 
ATOM     30  H   UNL     1      -2.010   4.153   2.141  0.00  0.00    +0.000 HD
ENDBRANCH  17  20
ENDBRANCH   1  16
TORSDOF 5
