REMARK  Name = 
REMARK  5 active torsions:
REMARK  status: ('A' for Active; 'I' for Inactive)
REMARK    1  A    between atoms: N_1  and  C_2
REMARK    2  A    between atoms: C_2  and  C_3
REMARK    3  A    between atoms: C_6  and  C_7
REMARK    4  A    between atoms: C_7  and  N_8
REMARK    5  A    between atoms: C_12  and  C_13
REMARK                            x       y       z     vdW  Elec       q    Type
REMARK                         _______ _______ _______ _____ _____    ______ ____
ROOT
ATOM      1  N   UNL     1       3.405   4.735  -4.277  0.00  0.00    +0.000 N 
ATOM      2  C   UNL     1       3.569   5.678  -5.268  0.00  0.00    +0.000 A 
ATOM      3  C   UNL     1       3.837   5.393  -6.613  0.00  0.00    +0.000 A 
ATOM      4  N   UNL     1       3.929   6.332  -7.594  0.00  0.00    +0.000 NA
ATOM      5  C   UNL     1       3.708   7.606  -7.170  0.00  0.00    +0.000 A 
ATOM      6  C   UNL     1       3.433   7.908  -5.847  0.00  0.00    +0.000 A 
ATOM      7  N   UNL     1       3.370   6.955  -4.879  0.00  0.00    +0.000 NA
ATOM      8  H   UNL     1       3.392   5.205  -3.375  0.00  0.00    +0.000 HD
ENDROOT
BRANCH   5   9
ATOM      9  C   UNL     1       3.755   8.693  -8.185  0.00  0.00    +0.000 C 
ATOM     10  N   UNL     1       4.037   8.306  -9.467  0.00  0.00    +0.000 N 
ATOM     11  O   UNL     1       3.553   9.865  -7.896  0.00  0.00    +0.000 OA
ATOM     12  H   UNL     1       4.186   7.325  -9.679  0.00  0.00    +0.000 HD
ATOM     13  H   UNL     1       4.066   8.997 -10.201  0.00  0.00    +0.000 HD
ENDBRANCH   5   9
BRANCH   1  14
ATOM     14  C   UNL     1       4.108   3.468  -4.317  0.00  0.00    +0.000 C 
BRANCH  14  18
ATOM     15  C   UNL     1       3.090   0.780  -1.058  0.00  0.00    +0.000 A 
ATOM     16  C   UNL     1       2.164   1.732  -1.503  0.00  0.00    +0.000 A 
ATOM     17  C   UNL     1       2.487   2.617  -2.536  0.00  0.00    +0.000 A 
ATOM     18  C   UNL     1       3.757   2.592  -3.131  0.00  0.00    +0.000 A 
ATOM     19  C   UNL     1       4.687   1.646  -2.674  0.00  0.00    +0.000 A 
ATOM     20  C   UNL     1       4.360   0.753  -1.648  0.00  0.00    +0.000 A 
BRANCH  15  21
ATOM     21  C   UNL     1       2.717  -0.200   0.026  0.00  0.00    +0.000 C 
BRANCH  21  22
ATOM     22  N   UNL     1       1.581  -1.024  -0.373  0.00  0.00    +0.000 NA
ATOM     23  H   UNL     1       1.419  -1.739   0.332  0.00  0.00    +0.000 HD
ATOM     24  H   UNL     1       1.817  -1.513  -1.235  0.00  0.00    +0.000 HD
ENDBRANCH  21  22
ENDBRANCH  15  21
ENDBRANCH  14  18
ENDBRANCH   1  14
TORSDOF 5
