REMARK  Name = 
REMARK  7 active torsions:
REMARK  status: ('A' for Active; 'I' for Inactive)
REMARK    1  A    between atoms: C_1  and  O_2
REMARK    2  A    between atoms: O_2  and  C_3
REMARK    3  A    between atoms: C_5  and  N_6
REMARK    4  A    between atoms: N_6  and  C_7
REMARK    5  A    between atoms: C_7  and  C_8
REMARK    6  A    between atoms: C_12  and  C_13
REMARK    7  A    between atoms: C_22  and  C_23
REMARK                            x       y       z     vdW  Elec       q    Type
REMARK                         _______ _______ _______ _____ _____    ______ ____
ROOT
ATOM      1  N   UNL     1       3.323   4.759  -0.763  0.00  0.00    +0.000 N 
ATOM      2  H   UNL     1       4.068   5.399  -1.012  0.00  0.00    +0.000 HD
ENDROOT
BRANCH   1   5
ATOM      3  C   UNL     1       3.229   1.070  -0.573  0.00  0.00    +0.000 A 
ATOM      4  C   UNL     1       2.884   2.403  -0.362  0.00  0.00    +0.000 A 
ATOM      5  C   UNL     1       3.663   3.428  -0.898  0.00  0.00    +0.000 A 
ATOM      6  N   UNL     1       4.760   3.162  -1.632  0.00  0.00    +0.000 NA
ATOM      7  C   UNL     1       5.070   1.845  -1.845  0.00  0.00    +0.000 A 
ATOM      8  C   UNL     1       4.342   0.781  -1.342  0.00  0.00    +0.000 A 
BRANCH   7   9
ATOM      9  C   UNL     1       6.273   1.556  -2.692  0.00  0.00    +0.000 C 
ATOM     10  N   UNL     1       6.941   2.655  -3.163  0.00  0.00    +0.000 N 
ATOM     11  O   UNL     1       6.644   0.421  -2.956  0.00  0.00    +0.000 OA
ATOM     12  H   UNL     1       6.610   3.580  -2.930  0.00  0.00    +0.000 HD
ATOM     13  H   UNL     1       7.760   2.524  -3.741  0.00  0.00    +0.000 HD
ENDBRANCH   7   9
BRANCH   3  15
ATOM     14  C   UNL     1       1.444   0.250   0.765  0.00  0.00    +0.000 C 
ATOM     15  O   UNL     1       2.550  -0.015  -0.092  0.00  0.00    +0.000 OA
ENDBRANCH   3  15
ENDBRANCH   1   5
BRANCH   1  16
ATOM     16  C   UNL     1       2.291   5.214   0.151  0.00  0.00    +0.000 C 
BRANCH  16  17
ATOM     17  C   UNL     1       2.177   6.725   0.192  0.00  0.00    +0.000 A 
ATOM     18  C   UNL     1       1.436   7.389  -0.782  0.00  0.00    +0.000 A 
ATOM     19  C   UNL     1       1.304   8.767  -0.694  0.00  0.00    +0.000 A 
ATOM     20  C   UNL     1       1.912   9.443   0.358  0.00  0.00    +0.000 A 
ATOM     21  C   UNL     1       2.638   8.726   1.309  0.00  0.00    +0.000 A 
ATOM     22  N   UNL     1       2.785   7.379   1.220  0.00  0.00    +0.000 NA
BRANCH  21  23
ATOM     23  C   UNL     1       3.278   9.377   2.466  0.00  0.00    +0.000 A 
ATOM     24  C   UNL     1       4.445   8.867   3.046  0.00  0.00    +0.000 A 
ATOM     25  N   UNL     1       5.113   9.433   4.088  0.00  0.00    +0.000 NA
ATOM     26  C   UNL     1       4.584  10.568   4.598  0.00  0.00    +0.000 A 
ATOM     27  C   UNL     1       3.424  11.142   4.119  0.00  0.00    +0.000 A 
ATOM     28  F   UNL     1       2.938  12.263   4.665  0.00  0.00    +0.000 F 
ATOM     29  C   UNL     1       2.764  10.545   3.053  0.00  0.00    +0.000 A 
ENDBRANCH  21  23
ENDBRANCH  16  17
ENDBRANCH   1  16
TORSDOF 6
