REMARK  Name = 
REMARK  4 active torsions:
REMARK  status: ('A' for Active; 'I' for Inactive)
REMARK    1  A    between atoms: C_2  and  C_4
REMARK    2  A    between atoms: N_8  and  C_9
REMARK    3  A    between atoms: C_9  and  C_10
REMARK    4  A    between atoms: C_12  and  C_13
REMARK                            x       y       z     vdW  Elec       q    Type
REMARK                         _______ _______ _______ _____ _____    ______ ____
ROOT
ATOM      1  C   UNL     1       3.403  -1.157  -0.696  0.00  0.00    +0.000 A 
ATOM      2  C   UNL     1       3.600  -1.847   0.496  0.00  0.00    +0.000 A 
ATOM      3  C   UNL     1       4.185  -3.109   0.455  0.00  0.00    +0.000 A 
ATOM      4  C   UNL     1       4.525  -3.677  -0.772  0.00  0.00    +0.000 A 
ATOM      5  N   UNL     1       5.085  -4.958  -0.750  0.00  0.00    +0.000 N 
ATOM      6  N   UNL     1       4.318  -3.032  -1.934  0.00  0.00    +0.000 NA
ATOM      7  C   UNL     1       3.766  -1.791  -1.876  0.00  0.00    +0.000 A 
ATOM      8  H   UNL     1       6.010  -4.909  -0.332  0.00  0.00    +0.000 HD
ENDROOT
BRANCH   1  10
ATOM      9  N   UNL     1       2.911   0.974   0.363  0.00  0.00    +0.000 N 
ATOM     10  C   UNL     1       2.809   0.194  -0.756  0.00  0.00    +0.000 C 
ATOM     11  O   UNL     1       2.279   0.614  -1.775  0.00  0.00    +0.000 OA
ATOM     12  H   UNL     1       2.591   1.931   0.274  0.00  0.00    +0.000 HD
ATOM     13  H   UNL     1       3.540   0.764   1.124  0.00  0.00    +0.000 HD
ENDBRANCH   1  10
BRANCH   5  14
ATOM     14  C   UNL     1       5.111  -5.660  -2.032  0.00  0.00    +0.000 C 
BRANCH  14  15
ATOM     15  C   UNL     1       5.284  -7.141  -1.768  0.00  0.00    +0.000 A 
ATOM     16  C   UNL     1       4.428  -7.813  -0.899  0.00  0.00    +0.000 A 
ATOM     17  C   UNL     1       4.622  -9.171  -0.660  0.00  0.00    +0.000 A 
ATOM     18  C   UNL     1       5.661  -9.790  -1.328  0.00  0.00    +0.000 A 
ATOM     19  N   UNL     1       6.480  -9.128  -2.171  0.00  0.00    +0.000 NA
ATOM     20  N   UNL     1       6.290  -7.792  -2.393  0.00  0.00    +0.000 NA
BRANCH  17  21
ATOM     21  C   UNL     1       3.764  -9.958   0.273  0.00  0.00    +0.000 C 
ATOM     22  F   UNL     1       2.801  -9.214   0.885  0.00  0.00    +0.000 F 
ATOM     23  F   UNL     1       3.109 -10.974  -0.351  0.00  0.00    +0.000 F 
ATOM     24  F   UNL     1       4.479 -10.537   1.276  0.00  0.00    +0.000 F 
ENDBRANCH  17  21
ENDBRANCH  14  15
ENDBRANCH   5  14
TORSDOF 4
