REMARK  Name = 
REMARK  5 active torsions:
REMARK  status: ('A' for Active; 'I' for Inactive)
REMARK    1  A    between atoms: C_2  and  C_4
REMARK    2  A    between atoms: C_7  and  N_8
REMARK    3  A    between atoms: N_8  and  C_9
REMARK    4  A    between atoms: C_9  and  C_10
REMARK    5  A    between atoms: C_14  and  C_15
REMARK                            x       y       z     vdW  Elec       q    Type
REMARK                         _______ _______ _______ _____ _____    ______ ____
ROOT
ATOM      1  N   UNL     1       5.557  -4.633   0.761  0.00  0.00    +0.000 N 
ATOM      2  H   UNL     1       5.939  -4.595   1.704  0.00  0.00    +0.000 HD
ENDROOT
BRANCH   1   6
ATOM      3  C   UNL     1       3.518  -1.092  -0.301  0.00  0.00    +0.000 A 
ATOM      4  C   UNL     1       2.980  -2.328  -0.668  0.00  0.00    +0.000 A 
ATOM      5  C   UNL     1       3.638  -3.512  -0.311  0.00  0.00    +0.000 A 
ATOM      6  C   UNL     1       4.819  -3.492   0.442  0.00  0.00    +0.000 A 
ATOM      7  C   UNL     1       5.351  -2.242   0.786  0.00  0.00    +0.000 A 
ATOM      8  C   UNL     1       4.715  -1.051   0.416  0.00  0.00    +0.000 A 
BRANCH   3  10
ATOM      9  N   UNL     1       1.519   0.177  -0.873  0.00  0.00    +0.000 N 
ATOM     10  C   UNL     1       2.874   0.189  -0.695  0.00  0.00    +0.000 C 
ATOM     11  O   UNL     1       3.520   1.220  -0.823  0.00  0.00    +0.000 OA
ATOM     12  H   UNL     1       1.084   1.076  -1.040  0.00  0.00    +0.000 HD
ATOM     13  H   UNL     1       0.934  -0.571  -0.530  0.00  0.00    +0.000 HD
ENDBRANCH   3  10
ENDBRANCH   1   6
BRANCH   1  14
ATOM     14  C   UNL     1       5.087  -5.948   0.366  0.00  0.00    +0.000 C 
BRANCH  14  15
ATOM     15  C   UNL     1       6.056  -7.012   0.814  0.00  0.00    +0.000 A 
ATOM     16  C   UNL     1       7.384  -7.011   0.391  0.00  0.00    +0.000 A 
ATOM     17  C   UNL     1       8.207  -8.045   0.802  0.00  0.00    +0.000 A 
ATOM     18  N   UNL     1       7.798  -9.072   1.581  0.00  0.00    +0.000 NA
ATOM     19  C   UNL     1       6.501  -9.088   1.979  0.00  0.00    +0.000 A 
ATOM     20  C   UNL     1       5.621  -8.065   1.626  0.00  0.00    +0.000 A 
BRANCH  19  21
ATOM     21  C   UNL     1       6.080 -10.245   2.785  0.00  0.00    +0.000 A 
ATOM     22  C   UNL     1       4.770 -10.754   2.756  0.00  0.00    +0.000 A 
ATOM     23  C   UNL     1       4.407 -11.836   3.554  0.00  0.00    +0.000 A 
ATOM     24  C   UNL     1       5.370 -12.404   4.366  0.00  0.00    +0.000 A 
ATOM     25  N   UNL     1       6.646 -11.970   4.422  0.00  0.00    +0.000 NA
ATOM     26  C   UNL     1       6.968 -10.914   3.628  0.00  0.00    +0.000 A 
ENDBRANCH  19  21
ENDBRANCH  14  15
ENDBRANCH   1  14
TORSDOF 5
