REMARK  Name = 
REMARK  5 active torsions:
REMARK  status: ('A' for Active; 'I' for Inactive)
REMARK    1  A    between atoms: N_1  and  C_2
REMARK    2  A    between atoms: C_2  and  C_3
REMARK    3  A    between atoms: C_6  and  C_7
REMARK    4  A    between atoms: C_7  and  N_8
REMARK    5  A    between atoms: C_13  and  C_14
REMARK                            x       y       z     vdW  Elec       q    Type
REMARK                         _______ _______ _______ _____ _____    ______ ____
ROOT
ATOM      1  N   UNL     1       5.237   5.786   1.906  0.00  0.00    +0.000 N 
ATOM      2  C   UNL     1       6.546   5.385   1.955  0.00  0.00    +0.000 A 
ATOM      3  N   UNL     1       7.195   5.952   2.944  0.00  0.00    +0.000 NA
ATOM      4  C   UNL     1       6.277   6.769   3.552  0.00  0.00    +0.000 A 
ATOM      5  C   UNL     1       6.464   7.659   4.622  0.00  0.00    +0.000 A 
ATOM      6  C   UNL     1       5.378   8.431   5.055  0.00  0.00    +0.000 A 
ATOM      7  C   UNL     1       4.119   8.267   4.453  0.00  0.00    +0.000 A 
ATOM      8  C   UNL     1       3.912   7.375   3.392  0.00  0.00    +0.000 A 
ATOM      9  C   UNL     1       5.026   6.659   2.947  0.00  0.00    +0.000 A 
ENDROOT
BRANCH   6  10
ATOM     10  C   UNL     1       5.502   9.465   6.124  0.00  0.00    +0.000 C 
ATOM     11  N   UNL     1       6.718   9.658   6.716  0.00  0.00    +0.000 N 
ATOM     12  O   UNL     1       4.544  10.152   6.465  0.00  0.00    +0.000 OA
ATOM     13  H   UNL     1       7.566   9.162   6.488  0.00  0.00    +0.000 HD
ATOM     14  H   UNL     1       6.776  10.394   7.409  0.00  0.00    +0.000 HD
ENDBRANCH   6  10
BRANCH   1  15
ATOM     15  C   UNL     1       4.327   5.493   0.816  0.00  0.00    +0.000 C 
BRANCH  15  19
ATOM     16  C   UNL     1       2.664   1.515  -0.118  0.00  0.00    +0.000 C 
ATOM     17  C   UNL     1       3.606   1.656   1.086  0.00  0.00    +0.000 C 
ATOM     18  C   UNL     1       4.408   2.955   1.071  0.00  0.00    +0.000 C 
ATOM     19  C   UNL     1       3.509   4.197   0.966  0.00  0.00    +0.000 C 
ATOM     20  C   UNL     1       2.544   4.069  -0.228  0.00  0.00    +0.000 C 
ATOM     21  C   UNL     1       1.762   2.756  -0.216  0.00  0.00    +0.000 C 
BRANCH  16  22
ATOM     22  C   UNL     1       3.400   1.248  -1.448  0.00  0.00    +0.000 C 
BRANCH  22  23
ATOM     23  N   UNL     1       4.186   0.020  -1.394  0.00  0.00    +0.000 NA
ATOM     24  H   UNL     1       4.534  -0.205  -2.325  0.00  0.00    +0.000 HD
ATOM     25  H   UNL     1       3.591  -0.760  -1.116  0.00  0.00    +0.000 HD
ENDBRANCH  22  23
ENDBRANCH  16  22
ENDBRANCH  15  19
ENDBRANCH   1  15
TORSDOF 5
