REMARK  Name = 
REMARK  4 active torsions:
REMARK  status: ('A' for Active; 'I' for Inactive)
REMARK    1  A    between atoms: C_2  and  C_4
REMARK    2  A    between atoms: N_8  and  C_9
REMARK    3  A    between atoms: C_9  and  C_10
REMARK    4  A    between atoms: C_14  and  C_15
REMARK                            x       y       z     vdW  Elec       q    Type
REMARK                         _______ _______ _______ _____ _____    ______ ____
ROOT
ATOM      1  C   UNL     1       5.116   1.856   5.518  0.00  0.00    +0.000 C 
ATOM      2  C   UNL     1       4.976   0.598   6.366  0.00  0.00    +0.000 C 
ATOM      3  C   UNL     1       3.824   1.539   6.242  0.00  0.00    +0.000 C 
ENDROOT
BRANCH   1   8
ATOM      4  C   UNL     1       3.479   3.503   0.847  0.00  0.00    +0.000 A 
ATOM      5  C   UNL     1       2.985   3.776   2.115  0.00  0.00    +0.000 A 
ATOM      6  C   UNL     1       3.569   3.155   3.222  0.00  0.00    +0.000 A 
ATOM      7  C   UNL     1       4.654   2.304   3.045  0.00  0.00    +0.000 A 
ATOM      8  N   UNL     1       5.265   1.607   4.082  0.00  0.00    +0.000 N 
ATOM      9  N   UNL     1       5.151   2.045   1.816  0.00  0.00    +0.000 NA
ATOM     10  C   UNL     1       4.549   2.626   0.747  0.00  0.00    +0.000 A 
ATOM     11  H   UNL     1       6.115   1.177   3.732  0.00  0.00    +0.000 HD
BRANCH   4  13
ATOM     12  N   UNL     1       2.231   5.248  -0.291  0.00  0.00    +0.000 N 
ATOM     13  C   UNL     1       2.889   4.054  -0.390  0.00  0.00    +0.000 C 
ATOM     14  O   UNL     1       2.998   3.478  -1.465  0.00  0.00    +0.000 OA
ATOM     15  H   UNL     1       1.899   5.653  -1.157  0.00  0.00    +0.000 HD
ATOM     16  H   UNL     1       2.322   5.857   0.509  0.00  0.00    +0.000 HD
ENDBRANCH   4  13
ENDBRANCH   1   8
BRANCH   1  17
ATOM     17  C   UNL     1       5.994   2.994   6.030  0.00  0.00    +0.000 A 
ATOM     18  C   UNL     1       7.278   2.759   6.546  0.00  0.00    +0.000 A 
ATOM     19  C   UNL     1       8.128   3.810   6.885  0.00  0.00    +0.000 A 
ATOM     20  C   UNL     1       7.726   5.128   6.672  0.00  0.00    +0.000 A 
ATOM     21  C   UNL     1       6.460   5.421   6.141  0.00  0.00    +0.000 A 
ATOM     22  C   UNL     1       5.596   4.340   5.891  0.00  0.00    +0.000 A 
BRANCH  21  23
ATOM     23  C   UNL     1       6.074   6.792   5.751  0.00  0.00    +0.000 A 
ATOM     24  C   UNL     1       6.994   7.673   5.174  0.00  0.00    +0.000 A 
ATOM     25  C   UNL     1       6.574   8.934   4.757  0.00  0.00    +0.000 A 
ATOM     26  C   UNL     1       5.245   9.291   4.928  0.00  0.00    +0.000 A 
ATOM     27  C   UNL     1       4.390   8.368   5.505  0.00  0.00    +0.000 A 
ATOM     28  N   UNL     1       4.769   7.134   5.912  0.00  0.00    +0.000 NA
ENDBRANCH  21  23
ENDBRANCH   1  17
TORSDOF 4
