REMARK  Name = 
REMARK  11 active torsions:
REMARK  status: ('A' for Active; 'I' for Inactive)
REMARK    1  A    between atoms: C_1  and  C_2
REMARK    2  A    between atoms: C_2  and  C_3
REMARK    3  A    between atoms: C_3  and  C_4
REMARK    4  A    between atoms: C_4  and  N_5
REMARK    5  A    between atoms: C_4  and  C_18
REMARK    6  A    between atoms: C_6  and  C_8
REMARK    7  A    between atoms: C_21  and  C_22
REMARK    8  A    between atoms: C_22  and  C_23
REMARK    9  A    between atoms: C_22  and  N_24
REMARK   10  A    between atoms: N_24  and  C_25
REMARK   11  A    between atoms: C_28  and  O_29
REMARK                            x       y       z     vdW  Elec       q    Type
REMARK                         _______ _______ _______ _____ _____    ______ ____
ROOT
ATOM      1  C   UNL     1       5.302  -2.752  14.593  0.00  0.00    +0.000 C 
ENDROOT
BRANCH   1   2
ATOM      2  C   UNL     1       4.909  -3.265  13.215  0.00  0.00    +0.000 A 
ATOM      3  C   UNL     1       5.124  -2.476  12.078  0.00  0.00    +0.000 A 
ATOM      4  C   UNL     1       5.048  -3.035  10.797  0.00  0.00    +0.000 A 
ATOM      5  C   UNL     1       4.744  -4.396  10.627  0.00  0.00    +0.000 A 
ATOM      6  C   UNL     1       4.426  -5.152  11.765  0.00  0.00    +0.000 A 
ATOM      7  C   UNL     1       4.493  -4.593  13.041  0.00  0.00    +0.000 A 
BRANCH   5   8
ATOM      8  C   UNL     1       4.778  -5.036   9.237  0.00  0.00    +0.000 C 
ATOM      9  C   UNL     1       3.371  -5.520   8.876  0.00  0.00    +0.000 C 
BRANCH   8  10
ATOM     10  N   UNL     1       5.799  -6.097   9.211  0.00  0.00    +0.000 NA
ATOM     11  H   UNL     1       5.609  -6.763   9.957  0.00  0.00    +0.000 HD
BRANCH  10  12
ATOM     12  C   UNL     1       6.030  -6.817   7.953  0.00  0.00    +0.000 C 
ATOM     13  C   UNL     1       6.505  -5.893   6.820  0.00  0.00    +0.000 C 
ATOM     14  C   UNL     1       7.000  -6.664   5.595  0.00  0.00    +0.000 C 
ATOM     15  C   UNL     1       8.098  -7.653   5.972  0.00  0.00    +0.000 C 
ATOM     16  C   UNL     1       7.578  -8.642   7.010  0.00  0.00    +0.000 C 
ATOM     17  C   UNL     1       7.073  -7.920   8.254  0.00  0.00    +0.000 C 
BRANCH  15  18
ATOM     18  O   UNL     1       8.552  -8.343   4.814  0.00  0.00    +0.000 OA
ATOM     19  H   UNL     1       7.918  -9.048   4.602  0.00  0.00    +0.000 HD
ENDBRANCH  15  18
ENDBRANCH  10  12
ENDBRANCH   8  10
ENDBRANCH   5   8
ENDBRANCH   1   2
BRANCH   1  20
ATOM     20  N   UNL     1       4.150  -2.686  15.479  0.00  0.00    +0.000 N 
ATOM     21  C   UNL     1       4.094  -1.796  16.524  0.00  0.00    +0.000 C 
ATOM     22  O   UNL     1       4.983  -0.974  16.731  0.00  0.00    +0.000 OA
ATOM     23  H   UNL     1       3.498  -3.463  15.459  0.00  0.00    +0.000 HD
BRANCH  21  24
ATOM     24  C   UNL     1       2.887  -1.827  17.360  0.00  0.00    +0.000 A 
ATOM     25  C   UNL     1       2.477  -0.671  18.012  0.00  0.00    +0.000 A 
ATOM     26  S   UNL     1       1.062  -0.872  18.940  0.00  0.00    +0.000 S 
ATOM     27  C   UNL     1       0.980  -2.527  18.554  0.00  0.00    +0.000 A 
ATOM     28  N   UNL     1       0.011  -3.320  19.085  0.00  0.00    +0.000 NA
ATOM     29  C   UNL     1       0.102  -4.564  18.753  0.00  0.00    +0.000 A 
ATOM     30  N   UNL     1       1.061  -5.082  17.920  0.00  0.00    +0.000 N 
ATOM     31  C   UNL     1       2.014  -4.306  17.303  0.00  0.00    +0.000 A 
ATOM     32  O   UNL     1       2.791  -4.778  16.473  0.00  0.00    +0.000 OA
ATOM     33  C   UNL     1       1.993  -2.909  17.690  0.00  0.00    +0.000 A 
ATOM     34  H   UNL     1       1.057  -6.063  17.681  0.00  0.00    +0.000 HD
ENDBRANCH  21  24
ENDBRANCH   1  20
BRANCH   1  35
ATOM     35  C   UNL     1       6.420  -3.637  15.202  0.00  0.00    +0.000 C 
BRANCH  35  37
ATOM     36  C   UNL     1       8.739  -4.612  14.924  0.00  0.00    +0.000 C 
ATOM     37  C   UNL     1       7.684  -3.690  14.331  0.00  0.00    +0.000 C 
ENDBRANCH  35  37
ENDBRANCH   1  35
TORSDOF 9
