REMARK  Name = 
REMARK  9 active torsions:
REMARK  status: ('A' for Active; 'I' for Inactive)
REMARK    1  A    between atoms: C_1  and  C_2
REMARK    2  A    between atoms: C_4  and  N_5
REMARK    3  A    between atoms: N_5  and  C_6
REMARK    4  A    between atoms: C_6  and  C_7
REMARK    5  A    between atoms: C_10  and  N_11
REMARK    6  A    between atoms: N_11  and  C_12
REMARK    7  A    between atoms: C_12  and  C_13
REMARK    8  A    between atoms: C_13  and  N_14
REMARK    9  A    between atoms: C_18  and  C_19
REMARK                            x       y       z     vdW  Elec       q    Type
REMARK                         _______ _______ _______ _____ _____    ______ ____
ROOT
ATOM      1  C   UNL     1       5.777  -4.666   0.088  0.00  0.00    +0.000 A 
ATOM      2  C   UNL     1       5.336  -5.989  -0.000  0.00  0.00    +0.000 A 
ATOM      3  C   UNL     1       6.241  -7.051   0.105  0.00  0.00    +0.000 A 
ATOM      4  C   UNL     1       7.610  -6.831   0.293  0.00  0.00    +0.000 A 
ATOM      5  C   UNL     1       8.035  -5.502   0.428  0.00  0.00    +0.000 A 
ATOM      6  C   UNL     1       7.138  -4.431   0.314  0.00  0.00    +0.000 A 
ENDROOT
BRANCH   4   7
ATOM      7  N   UNL     1       8.523  -7.866   0.505  0.00  0.00    +0.000 N 
ATOM      8  H   UNL     1       9.497  -7.596   0.361  0.00  0.00    +0.000 HD
BRANCH   7   9
ATOM      9  C   UNL     1       8.259  -9.183  -0.073  0.00  0.00    +0.000 C 
BRANCH   9  10
ATOM     10  C   UNL     1       9.405 -10.154   0.275  0.00  0.00    +0.000 C 
BRANCH  10  11
ATOM     11  N   UNL     1      10.712  -9.689  -0.208  0.00  0.00    +0.000 NA
ATOM     12  H   UNL     1      10.695  -9.630  -1.225  0.00  0.00    +0.000 HD
ATOM     13  H   UNL     1      11.414 -10.392   0.025  0.00  0.00    +0.000 HD
ENDBRANCH  10  11
ENDBRANCH   9  10
ENDBRANCH   7   9
ENDBRANCH   4   7
BRANCH   1  14
ATOM     14  C   UNL     1       4.795  -3.531  -0.044  0.00  0.00    +0.000 C 
BRANCH  14  15
ATOM     15  N   UNL     1       4.207  -3.199   1.230  0.00  0.00    +0.000 N 
ATOM     16  H   UNL     1       4.564  -3.621   2.077  0.00  0.00    +0.000 HD
BRANCH  15  20
ATOM     17  C   UNL     1       1.243   0.379  -0.393  0.00  0.00    +0.000 C 
ATOM     18  C   UNL     1       1.884  -0.438   0.688  0.00  0.00    +0.000 A 
ATOM     19  C   UNL     1       2.783  -1.437   0.380  0.00  0.00    +0.000 A 
ATOM     20  C   UNL     1       3.327  -2.162   1.420  0.00  0.00    +0.000 A 
ATOM     21  N   UNL     1       2.995  -1.897   2.695  0.00  0.00    +0.000 NA
ATOM     22  C   UNL     1       2.114  -0.901   2.914  0.00  0.00    +0.000 A 
ATOM     23  C   UNL     1       1.743  -0.585   4.330  0.00  0.00    +0.000 C 
ATOM     24  N   UNL     1       1.538  -0.155   1.956  0.00  0.00    +0.000 NA
ENDBRANCH  15  20
ENDBRANCH  14  15
ENDBRANCH   1  14
TORSDOF 7
