REMARK  Name = 
REMARK  4 active torsions:
REMARK  status: ('A' for Active; 'I' for Inactive)
REMARK    1  A    between atoms: C_2  and  C_4
REMARK    2  A    between atoms: C_8  and  C_9
REMARK    3  A    between atoms: C_9  and  C_10
REMARK    4  A    between atoms: C_10  and  C_11
REMARK                            x       y       z     vdW  Elec       q    Type
REMARK                         _______ _______ _______ _____ _____    ______ ____
ROOT
ATOM      1  C   UNL     1       5.790   0.050  -1.866  0.00  0.00    +0.000 A 
ATOM      2  C   UNL     1       5.040   0.238  -0.735  0.00  0.00    +0.000 A 
ATOM      3  N   UNL     1       3.704   0.181  -0.805  0.00  0.00    +0.000 NA
ATOM      4  N   UNL     1       3.135  -0.070  -2.016  0.00  0.00    +0.000 NA
ATOM      5  C   UNL     1       3.902  -0.201  -3.121  0.00  0.00    +0.000 A 
ATOM      6  N   UNL     1       5.249  -0.168  -3.095  0.00  0.00    +0.000 NA
ENDROOT
BRANCH   1   8
ATOM      7  N   UNL     1       7.958  -0.209  -2.918  0.00  0.00    +0.000 N 
ATOM      8  C   UNL     1       7.273   0.046  -1.760  0.00  0.00    +0.000 C 
ATOM      9  O   UNL     1       7.850   0.239  -0.699  0.00  0.00    +0.000 OA
ATOM     10  H   UNL     1       8.967  -0.265  -2.893  0.00  0.00    +0.000 HD
ATOM     11  H   UNL     1       7.460  -0.401  -3.779  0.00  0.00    +0.000 HD
ENDBRANCH   1   8
BRANCH   5  12
ATOM     12  C   UNL     1       3.254  -0.571  -4.431  0.00  0.00    +0.000 C 
BRANCH  12  13
ATOM     13  C   UNL     1       1.928   0.081  -4.841  0.00  0.00    +0.000 C 
ATOM     14  C   UNL     1       1.611   1.502  -4.399  0.00  0.00    +0.000 C 
ATOM     15  C   UNL     1       0.793   0.364  -3.860  0.00  0.00    +0.000 C 
BRANCH  13  16
ATOM     16  C   UNL     1       1.497  -0.389  -6.229  0.00  0.00    +0.000 A 
ATOM     17  C   UNL     1       1.789   0.333  -7.393  0.00  0.00    +0.000 A 
ATOM     18  C   UNL     1       1.502  -0.201  -8.647  0.00  0.00    +0.000 A 
ATOM     19  C   UNL     1       0.919  -1.454  -8.711  0.00  0.00    +0.000 A 
ATOM     20  N   UNL     1       0.590  -2.180  -7.624  0.00  0.00    +0.000 NA
ATOM     21  C   UNL     1       0.881  -1.630  -6.422  0.00  0.00    +0.000 A 
ENDBRANCH  13  16
ENDBRANCH  12  13
ENDBRANCH   5  12
TORSDOF 4
