REMARK  Name = 
REMARK  10 active torsions:
REMARK  status: ('A' for Active; 'I' for Inactive)
REMARK    1  A    between atoms: C_1  and  C_2
REMARK    2  A    between atoms: C_4  and  O_5
REMARK    3  A    between atoms: O_5  and  C_6
REMARK    4  A    between atoms: C_6  and  C_7
REMARK    5  A    between atoms: C_7  and  C_8
REMARK    6  A    between atoms: C_7  and  C_9
REMARK    7  A    between atoms: C_11  and  N_12
REMARK    8  A    between atoms: N_12  and  C_13
REMARK    9  A    between atoms: C_19  and  C_20
REMARK   10  A    between atoms: C_25  and  C_26
REMARK                            x       y       z     vdW  Elec       q    Type
REMARK                         _______ _______ _______ _____ _____    ______ ____
ROOT
ATOM      1  C   UNL     1       1.103  -5.923   0.172  0.00  0.00    +0.000 A 
ATOM      2  C   UNL     1       0.219  -5.955   1.282  0.00  0.00    +0.000 A 
ATOM      3  C   UNL     1      -0.756  -6.941   1.457  0.00  0.00    +0.000 A 
ATOM      4  C   UNL     1      -0.878  -7.926   0.486  0.00  0.00    +0.000 A 
ATOM      5  C   UNL     1       0.018  -7.976  -0.582  0.00  0.00    +0.000 A 
ATOM      6  C   UNL     1       1.044  -7.015  -0.722  0.00  0.00    +0.000 A 
ENDROOT
BRANCH   6   7
ATOM      7  C   UNL     1       2.046  -7.268  -1.798  0.00  0.00    +0.000 C 
ATOM      8  N   UNL     1       2.383  -8.588  -2.017  0.00  0.00    +0.000 N 
ATOM      9  O   UNL     1       2.564  -6.383  -2.459  0.00  0.00    +0.000 OA
ATOM     10  H   UNL     1       2.134  -9.331  -1.380  0.00  0.00    +0.000 HD
ATOM     11  H   UNL     1       3.109  -8.770  -2.696  0.00  0.00    +0.000 HD
ENDBRANCH   6   7
BRANCH   1  12
ATOM     12  C   UNL     1       2.026  -4.697   0.042  0.00  0.00    +0.000 C 
ATOM     13  C   UNL     1       3.010  -4.643   1.220  0.00  0.00    +0.000 C 
BRANCH  12  14
ATOM     14  C   UNL     1       1.174  -3.397  -0.041  0.00  0.00    +0.000 C 
BRANCH  14  15
ATOM     15  O   UNL     1       1.935  -2.181  -0.204  0.00  0.00    +0.000 OA
BRANCH  15  19
ATOM     16  C   UNL     1       1.395   2.702  -0.585  0.00  0.00    +0.000 C 
ATOM     17  C   UNL     1       0.803   1.327  -0.427  0.00  0.00    +0.000 A 
ATOM     18  C   UNL     1       1.652   0.195  -0.380  0.00  0.00    +0.000 A 
ATOM     19  C   UNL     1       1.095  -1.071  -0.239  0.00  0.00    +0.000 A 
ATOM     20  N   UNL     1      -0.236  -1.266  -0.127  0.00  0.00    +0.000 NA
ATOM     21  C   UNL     1      -1.035  -0.176  -0.168  0.00  0.00    +0.000 A 
ATOM     22  C   UNL     1      -0.587   1.127  -0.334  0.00  0.00    +0.000 A 
BRANCH  22  23
ATOM     23  C   UNL     1      -1.583   2.236  -0.368  0.00  0.00    +0.000 C 
ATOM     24  N   UNL     1      -2.839   1.950  -0.831  0.00  0.00    +0.000 N 
ATOM     25  O   UNL     1      -1.313   3.377  -0.016  0.00  0.00    +0.000 OA
ATOM     26  H   UNL     1      -3.098   1.095  -1.302  0.00  0.00    +0.000 HD
ATOM     27  H   UNL     1      -3.478   2.735  -0.911  0.00  0.00    +0.000 HD
ENDBRANCH  22  23
ENDBRANCH  15  19
ENDBRANCH  14  15
ENDBRANCH  12  14
ENDBRANCH   1  12
BRANCH   3  28
ATOM     28  N   UNL     1      -1.517  -7.026   2.629  0.00  0.00    +0.000 N 
ATOM     29  H   UNL     1      -2.496  -7.267   2.501  0.00  0.00    +0.000 HD
BRANCH  28  30
ATOM     30  C   UNL     1      -1.120  -6.615   3.946  0.00  0.00    +0.000 C 
ATOM     31  C   UNL     1      -1.815  -7.429   5.055  0.00  0.00    +0.000 C 
ATOM     32  N   UNL     1      -2.224  -6.179   5.718  0.00  0.00    +0.000 NA
ATOM     33  C   UNL     1      -1.884  -5.406   4.507  0.00  0.00    +0.000 C 
ATOM     34  H   UNL     1      -1.650  -5.945   6.528  0.00  0.00    +0.000 HD
ENDBRANCH  28  30
ENDBRANCH   3  28
TORSDOF 8
