REMARK  Name = 
REMARK  4 active torsions:
REMARK  status: ('A' for Active; 'I' for Inactive)
REMARK    1  A    between atoms: N_1  and  C_2
REMARK    2  A    between atoms: C_2  and  C_3
REMARK    3  A    between atoms: C_6  and  C_7
REMARK    4  A    between atoms: C_7  and  N_8
REMARK                            x       y       z     vdW  Elec       q    Type
REMARK                         _______ _______ _______ _____ _____    ______ ____
ROOT
ATOM      1  C   UNL     1       4.248  -5.366  -0.110  0.00  0.00    +0.000 C 
ENDROOT
BRANCH   1   2
ATOM      2  N   UNL     1       3.376  -6.490   0.189  0.00  0.00    +0.000 N 
ATOM      3  C   UNL     1       2.390  -6.935  -0.657  0.00  0.00    +0.000 A 
ATOM      4  C   UNL     1       1.894  -8.115  -0.154  0.00  0.00    +0.000 A 
ATOM      5  C   UNL     1       2.614  -8.413   1.032  0.00  0.00    +0.000 A 
ATOM      6  C   UNL     1       2.585  -9.497   1.936  0.00  0.00    +0.000 A 
ATOM      7  C   UNL     1       3.452  -9.497   3.033  0.00  0.00    +0.000 A 
ATOM      8  C   UNL     1       4.314  -8.430   3.239  0.00  0.00    +0.000 A 
ATOM      9  F   UNL     1       5.130  -8.448   4.302  0.00  0.00    +0.000 F 
ATOM     10  C   UNL     1       4.365  -7.342   2.367  0.00  0.00    +0.000 A 
ATOM     11  C   UNL     1       3.515  -7.363   1.251  0.00  0.00    +0.000 A 
ENDBRANCH   1   2
BRANCH   1  15
ATOM     12  C   UNL     1       3.057  -1.168  -0.437  0.00  0.00    +0.000 C 
ATOM     13  C   UNL     1       1.989  -2.172   0.021  0.00  0.00    +0.000 C 
ATOM     14  C   UNL     1       2.392  -3.620  -0.239  0.00  0.00    +0.000 C 
ATOM     15  C   UNL     1       3.756  -3.986   0.372  0.00  0.00    +0.000 C 
ATOM     16  C   UNL     1       4.835  -2.938   0.033  0.00  0.00    +0.000 C 
ATOM     17  C   UNL     1       4.380  -1.499   0.271  0.00  0.00    +0.000 C 
BRANCH  12  18
ATOM     18  C   UNL     1       3.239  -1.118  -1.969  0.00  0.00    +0.000 C 
BRANCH  18  19
ATOM     19  N   UNL     1       2.007  -0.744  -2.655  0.00  0.00    +0.000 NA
ATOM     20  H   UNL     1       2.179  -0.691  -3.659  0.00  0.00    +0.000 HD
ATOM     21  H   UNL     1       1.723   0.190  -2.364  0.00  0.00    +0.000 HD
ENDBRANCH  18  19
ENDBRANCH  12  18
ENDBRANCH   1  15
TORSDOF 4
