REMARK  Name = 
REMARK  6 active torsions:
REMARK  status: ('A' for Active; 'I' for Inactive)
REMARK    1  A    between atoms: C_2  and  C_4
REMARK    2  A    between atoms: C_7  and  N_8
REMARK    3  A    between atoms: N_8  and  C_9
REMARK    4  A    between atoms: C_9  and  C_10
REMARK    5  A    between atoms: C_10  and  C_11
REMARK    6  A    between atoms: C_15  and  C_16
REMARK                            x       y       z     vdW  Elec       q    Type
REMARK                         _______ _______ _______ _____ _____    ______ ____
ROOT
ATOM      1  C   UNL     1       6.073   3.119   6.373  0.00  0.00    +0.000 C 
ENDROOT
BRANCH   1   2
ATOM      2  C   UNL     1       5.581   3.121   7.797  0.00  0.00    +0.000 A 
ATOM      3  C   UNL     1       5.892   2.082   8.662  0.00  0.00    +0.000 A 
ATOM      4  N   UNL     1       5.476   2.020   9.942  0.00  0.00    +0.000 NA
ATOM      5  C   UNL     1       4.713   3.047  10.382  0.00  0.00    +0.000 A 
ATOM      6  C   UNL     1       4.307   4.143   9.611  0.00  0.00    +0.000 A 
ATOM      7  C   UNL     1       4.765   4.153   8.284  0.00  0.00    +0.000 A 
BRANCH   6   8
ATOM      8  C   UNL     1       3.484   5.220  10.186  0.00  0.00    +0.000 A 
ATOM      9  C   UNL     1       2.539   4.949  11.197  0.00  0.00    +0.000 A 
ATOM     10  C   UNL     1       1.813   5.972  11.811  0.00  0.00    +0.000 A 
ATOM     11  C   UNL     1       2.013   7.297  11.431  0.00  0.00    +0.000 A 
ATOM     12 CL   UNL     1       1.120   8.515  12.266  0.00  0.00    +0.000 Cl
ATOM     13  C   UNL     1       2.922   7.592  10.412  0.00  0.00    +0.000 A 
ATOM     14 CL   UNL     1       3.246   9.211   9.901  0.00  0.00    +0.000 Cl
ATOM     15  C   UNL     1       3.635   6.561   9.791  0.00  0.00    +0.000 A 
ENDBRANCH   6   8
ENDBRANCH   1   2
BRANCH   1  16
ATOM     16  C   UNL     1       5.087   2.409   5.445  0.00  0.00    +0.000 C 
BRANCH  16  17
ATOM     17  N   UNL     1       5.574   2.380   4.067  0.00  0.00    +0.000 N 
ATOM     18  H   UNL     1       6.026   3.230   3.736  0.00  0.00    +0.000 HD
BRANCH  17  22
ATOM     19  C   UNL     1       3.394   0.327   1.088  0.00  0.00    +0.000 A 
ATOM     20  C   UNL     1       2.856   0.460   2.368  0.00  0.00    +0.000 A 
ATOM     21  C   UNL     1       3.559   1.160   3.352  0.00  0.00    +0.000 A 
ATOM     22  C   UNL     1       4.791   1.770   3.082  0.00  0.00    +0.000 A 
ATOM     23  C   UNL     1       5.315   1.633   1.788  0.00  0.00    +0.000 A 
ATOM     24  C   UNL     1       4.626   0.916   0.797  0.00  0.00    +0.000 A 
BRANCH  19  26
ATOM     25  N   UNL     1       1.358  -0.610   0.140  0.00  0.00    +0.000 N 
ATOM     26  C   UNL     1       2.716  -0.497   0.055  0.00  0.00    +0.000 C 
ATOM     27  O   UNL     1       3.346  -1.046  -0.842  0.00  0.00    +0.000 OA
ATOM     28  H   UNL     1       0.900  -1.135  -0.594  0.00  0.00    +0.000 HD
ATOM     29  H   UNL     1       0.792   0.001   0.710  0.00  0.00    +0.000 HD
ENDBRANCH  19  26
ENDBRANCH  17  22
ENDBRANCH  16  17
ENDBRANCH   1  16
TORSDOF 6
