REMARK  Name = 
REMARK  5 active torsions:
REMARK  status: ('A' for Active; 'I' for Inactive)
REMARK    1  A    between atoms: C_1  and  C_2
REMARK    2  A    between atoms: C_2  and  O_3
REMARK    3  A    between atoms: C_2  and  C_13
REMARK    4  A    between atoms: O_3  and  C_4
REMARK    5  A    between atoms: C_7  and  C_8
REMARK                            x       y       z     vdW  Elec       q    Type
REMARK                         _______ _______ _______ _____ _____    ______ ____
ROOT
ATOM      1  C   UNL     1       2.871  -2.290   0.669  0.00  0.00    +0.000 A 
ATOM      2  C   UNL     1       2.196  -2.294   1.882  0.00  0.00    +0.000 A 
ATOM      3  C   UNL     1       2.332  -3.380   2.745  0.00  0.00    +0.000 A 
ATOM      4  C   UNL     1       3.146  -4.441   2.377  0.00  0.00    +0.000 A 
ATOM      5  N   UNL     1       3.840  -4.478   1.205  0.00  0.00    +0.000 NA
ATOM      6  C   UNL     1       3.672  -3.399   0.384  0.00  0.00    +0.000 A 
ENDROOT
BRANCH   4   7
ATOM      7  C   UNL     1       3.238  -5.617   3.297  0.00  0.00    +0.000 C 
ATOM      8  N   UNL     1       4.047  -6.645   2.888  0.00  0.00    +0.000 N 
ATOM      9  O   UNL     1       2.625  -5.678   4.352  0.00  0.00    +0.000 OA
ATOM     10  H   UNL     1       4.533  -6.595   2.002  0.00  0.00    +0.000 HD
ATOM     11  H   UNL     1       4.106  -7.478   3.457  0.00  0.00    +0.000 HD
ENDBRANCH   4   7
BRANCH   1  12
ATOM     12  O   UNL     1       2.770  -1.326  -0.291  0.00  0.00    +0.000 OA
BRANCH  12  14
ATOM     13  C   UNL     1       0.872   0.203   0.063  0.00  0.00    +0.000 C 
ATOM     14  C   UNL     1       2.393   0.015   0.079  0.00  0.00    +0.000 C 
BRANCH  14  15
ATOM     15  C   UNL     1       3.020   0.981  -0.926  0.00  0.00    +0.000 A 
ATOM     16  C   UNL     1       3.387   2.279  -0.528  0.00  0.00    +0.000 A 
ATOM     17  C   UNL     1       4.009   3.152  -1.425  0.00  0.00    +0.000 A 
ATOM     18  C   UNL     1       4.265   2.737  -2.730  0.00  0.00    +0.000 A 
ATOM     19 CL   UNL     1       5.096   3.783  -3.815  0.00  0.00    +0.000 Cl
ATOM     20  C   UNL     1       3.863   1.476  -3.158  0.00  0.00    +0.000 A 
ATOM     21  C   UNL     1       3.231   0.608  -2.263  0.00  0.00    +0.000 A 
ENDBRANCH  14  15
ENDBRANCH  12  14
ENDBRANCH   1  12
TORSDOF 4
