REMARK  Name = 
REMARK  8 active torsions:
REMARK  status: ('A' for Active; 'I' for Inactive)
REMARK    1  A    between atoms: C_2  and  C_20
REMARK    2  A    between atoms: N_3  and  C_4
REMARK    3  A    between atoms: C_4  and  C_5
REMARK    4  A    between atoms: C_8  and  C_9
REMARK    5  A    between atoms: C_9  and  O_10
REMARK    6  A    between atoms: C_9  and  C_11
REMARK    7  A    between atoms: C_11  and  C_12
REMARK    8  A    between atoms: C_12  and  N_13
REMARK                            x       y       z     vdW  Elec       q    Type
REMARK                         _______ _______ _______ _____ _____    ______ ____
ROOT
ATOM      1  C   UNL     1       2.190   1.902  -1.547  0.00  0.00    +0.000 C 
ENDROOT
BRANCH   1   2
ATOM      2  C   UNL     1       3.100   2.924  -2.157  0.00  0.00    +0.000 A 
ATOM      3  C   UNL     1       2.841   4.293  -2.057  0.00  0.00    +0.000 A 
ATOM      4  C   UNL     1       3.699   5.204  -2.667  0.00  0.00    +0.000 A 
ATOM      5  C   UNL     1       4.808   4.727  -3.361  0.00  0.00    +0.000 A 
ATOM      6  N   UNL     1       5.117   3.407  -3.406  0.00  0.00    +0.000 NA
ATOM      7  C   UNL     1       4.259   2.541  -2.819  0.00  0.00    +0.000 A 
BRANCH   5   8
ATOM      8  C   UNL     1       5.766   5.712  -4.007  0.00  0.00    +0.000 C 
BRANCH   8   9
ATOM      9  O   UNL     1       6.689   6.150  -2.997  0.00  0.00    +0.000 OA
ATOM     10  H   UNL     1       6.968   5.339  -2.530  0.00  0.00    +0.000 HD
ENDBRANCH   8   9
BRANCH   8  11
ATOM     11  C   UNL     1       6.592   5.143  -5.166  0.00  0.00    +0.000 C 
BRANCH  11  12
ATOM     12  C   UNL     1       5.760   4.594  -6.336  0.00  0.00    +0.000 C 
BRANCH  12  13
ATOM     13  N   UNL     1       6.626   4.069  -7.409  0.00  0.00    +0.000 NA
ATOM     14  C   UNL     1       5.852   3.566  -8.556  0.00  0.00    +0.000 C 
ATOM     15  C   UNL     1       5.878   2.054  -8.438  0.00  0.00    +0.000 C 
ATOM     16  C   UNL     1       7.266   1.798  -7.898  0.00  0.00    +0.000 C 
ATOM     17  C   UNL     1       7.472   2.953  -6.935  0.00  0.00    +0.000 C 
ENDBRANCH  12  13
ENDBRANCH  11  12
ENDBRANCH   8  11
ENDBRANCH   5   8
ENDBRANCH   1   2
BRANCH   1  20
ATOM     18  O   UNL     1       3.750  -0.247  -0.624  0.00  0.00    +0.000 OA
ATOM     19  C   UNL     1       3.343   0.578   0.187  0.00  0.00    +0.000 C 
ATOM     20  N   UNL     1       2.543   1.631  -0.179  0.00  0.00    +0.000 N 
ATOM     21  H   UNL     1       2.377   2.380   0.485  0.00  0.00    +0.000 HD
BRANCH  19  22
ATOM     22  C   UNL     1       3.635   0.463   1.622  0.00  0.00    +0.000 A 
ATOM     23  C   UNL     1       3.980  -0.771   2.157  0.00  0.00    +0.000 A 
ATOM     24  S   UNL     1       4.248  -0.732   3.840  0.00  0.00    +0.000 S 
ATOM     25  C   UNL     1       3.965   0.945   3.903  0.00  0.00    +0.000 A 
ATOM     26  N   UNL     1       4.063   1.628   5.076  0.00  0.00    +0.000 NA
ATOM     27  C   UNL     1       3.871   2.899   4.972  0.00  0.00    +0.000 A 
ATOM     28  N   UNL     1       3.577   3.550   3.802  0.00  0.00    +0.000 N 
ATOM     29  C   UNL     1       3.390   2.890   2.612  0.00  0.00    +0.000 A 
ATOM     30  O   UNL     1       2.997   3.486   1.612  0.00  0.00    +0.000 OA
ATOM     31  C   UNL     1       3.644   1.463   2.663  0.00  0.00    +0.000 A 
ATOM     32  H   UNL     1       3.412   4.546   3.792  0.00  0.00    +0.000 HD
ENDBRANCH  19  22
ENDBRANCH   1  20
TORSDOF 8
