REMARK  Name = 
REMARK  9 active torsions:
REMARK  status: ('A' for Active; 'I' for Inactive)
REMARK    1  A    between atoms: C_1  and  O_2
REMARK    2  A    between atoms: O_2  and  C_3
REMARK    3  A    between atoms: C_10  and  C_11
REMARK    4  A    between atoms: N_13  and  C_14
REMARK    5  A    between atoms: C_14  and  C_15
REMARK    6  A    between atoms: C_18  and  C_19
REMARK    7  A    between atoms: C_19  and  O_20
REMARK    8  A    between atoms: O_20  and  C_21
REMARK    9  A    between atoms: C_21  and  C_22
REMARK                            x       y       z     vdW  Elec       q    Type
REMARK                         _______ _______ _______ _____ _____    ______ ____
ROOT
ATOM      1  C   UNL     1       2.752   2.414  -2.197  0.00  0.00    +0.000 C 
ENDROOT
BRANCH   1   2
ATOM      2  C   UNL     1       1.575   1.606  -2.682  0.00  0.00    +0.000 A 
ATOM      3  C   UNL     1       1.670   0.214  -2.822  0.00  0.00    +0.000 A 
ATOM      4  C   UNL     1       0.579  -0.530  -3.278  0.00  0.00    +0.000 A 
ATOM      5  C   UNL     1      -0.628   0.103  -3.607  0.00  0.00    +0.000 A 
ATOM      6  C   UNL     1      -0.714   1.496  -3.502  0.00  0.00    +0.000 A 
ATOM      7  C   UNL     1       0.379   2.240  -3.049  0.00  0.00    +0.000 A 
BRANCH   5   8
ATOM      8  C   UNL     1      -1.828  -0.711  -4.024  0.00  0.00    +0.000 C 
BRANCH   8   9
ATOM      9  O   UNL     1      -2.136  -1.715  -3.057  0.00  0.00    +0.000 OA
BRANCH   9  10
ATOM     10  C   UNL     1      -2.629  -1.160  -1.831  0.00  0.00    +0.000 C 
BRANCH  10  11
ATOM     11  C   UNL     1      -3.018  -2.271  -0.886  0.00  0.00    +0.000 A 
ATOM     12  C   UNL     1      -2.086  -3.248  -0.539  0.00  0.00    +0.000 A 
ATOM     13  C   UNL     1      -2.460  -4.250   0.350  0.00  0.00    +0.000 A 
ATOM     14  C   UNL     1      -3.747  -4.249   0.870  0.00  0.00    +0.000 A 
ATOM     15  C   UNL     1      -4.611  -3.239   0.481  0.00  0.00    +0.000 A 
ATOM     16  N   UNL     1      -4.276  -2.251  -0.377  0.00  0.00    +0.000 NA
ENDBRANCH  10  11
ENDBRANCH   9  10
ENDBRANCH   8   9
ENDBRANCH   5   8
ENDBRANCH   1   2
BRANCH   1  19
ATOM     17  C   UNL     1       4.741   3.524  -3.149  0.00  0.00    +0.000 C 
ATOM     18  O   UNL     1       5.158   3.833  -2.035  0.00  0.00    +0.000 OA
ATOM     19  N   UNL     1       3.570   2.838  -3.305  0.00  0.00    +0.000 N 
ATOM     20  H   UNL     1       3.219   2.648  -4.232  0.00  0.00    +0.000 HD
BRANCH  17  28
ATOM     21  C   UNL     1       4.249   2.833  -6.481  0.00  0.00    +0.000 A 
ATOM     22  N   UNL     1       4.299   2.703  -7.821  0.00  0.00    +0.000 NA
ATOM     23  C   UNL     1       5.320   3.274  -8.466  0.00  0.00    +0.000 A 
ATOM     24  N   UNL     1       6.317   3.974  -7.933  0.00  0.00    +0.000 NA
ATOM     25  C   UNL     1       6.225   4.084  -6.596  0.00  0.00    +0.000 A 
ATOM     26  S   UNL     1       7.410   4.948  -5.741  0.00  0.00    +0.000 S 
ATOM     27  C   UNL     1       6.642   4.634  -4.258  0.00  0.00    +0.000 A 
ATOM     28  C   UNL     1       5.481   3.878  -4.374  0.00  0.00    +0.000 A 
ATOM     29  C   UNL     1       5.232   3.554  -5.779  0.00  0.00    +0.000 A 
BRANCH  21  31
ATOM     30  C   UNL     1       2.517   1.249  -6.529  0.00  0.00    +0.000 C 
ATOM     31  O   UNL     1       3.172   2.292  -5.815  0.00  0.00    +0.000 OA
ENDBRANCH  21  31
ENDBRANCH  17  28
ENDBRANCH   1  19
TORSDOF 8
