REMARK  Name = 
REMARK  8 active torsions:
REMARK  status: ('A' for Active; 'I' for Inactive)
REMARK    1  A    between atoms: C_1  and  O_2
REMARK    2  A    between atoms: O_2  and  C_3
REMARK    3  A    between atoms: C_5  and  C_6
REMARK    4  A    between atoms: C_11  and  N_12
REMARK    5  A    between atoms: N_12  and  C_13
REMARK    6  A    between atoms: C_13  and  C_14
REMARK    7  A    between atoms: C_17  and  C_18
REMARK    8  A    between atoms: C_18  and  N_19
REMARK                            x       y       z     vdW  Elec       q    Type
REMARK                         _______ _______ _______ _____ _____    ______ ____
ROOT
ATOM      1  C   UNL     1       3.338  -0.843   0.832  0.00  0.00    +0.000 A 
ATOM      2  C   UNL     1       2.999  -2.119   1.310  0.00  0.00    +0.000 A 
ATOM      3  C   UNL     1       3.637  -2.672   2.429  0.00  0.00    +0.000 A 
ATOM      4  C   UNL     1       4.642  -1.942   3.060  0.00  0.00    +0.000 A 
ATOM      5  C   UNL     1       4.975  -0.662   2.596  0.00  0.00    +0.000 A 
ATOM      6  C   UNL     1       4.305  -0.065   1.509  0.00  0.00    +0.000 A 
ENDROOT
BRANCH   3   7
ATOM      7  C   UNL     1       3.215  -4.038   2.859  0.00  0.00    +0.000 C 
ATOM      8  N   UNL     1       3.841  -4.611   3.929  0.00  0.00    +0.000 N 
ATOM      9  O   UNL     1       2.326  -4.645   2.276  0.00  0.00    +0.000 OA
ATOM     10  H   UNL     1       4.582  -4.196   4.467  0.00  0.00    +0.000 HD
ATOM     11  H   UNL     1       3.532  -5.541   4.189  0.00  0.00    +0.000 HD
ENDBRANCH   3   7
BRANCH   1  13
ATOM     12  C   UNL     1       1.570  -0.846  -0.779  0.00  0.00    +0.000 C 
ATOM     13  O   UNL     1       2.824  -0.344  -0.339  0.00  0.00    +0.000 OA
ENDBRANCH   1  13
BRANCH   6  14
ATOM     14  N   UNL     1       4.748   1.215   1.116  0.00  0.00    +0.000 N 
ATOM     15  H   UNL     1       5.278   1.670   1.855  0.00  0.00    +0.000 HD
BRANCH  14  16
ATOM     16  C   UNL     1       3.780   2.152   0.548  0.00  0.00    +0.000 C 
BRANCH  16  17
ATOM     17  C   UNL     1       4.463   3.471   0.248  0.00  0.00    +0.000 A 
ATOM     18  C   UNL     1       5.514   3.517  -0.680  0.00  0.00    +0.000 A 
ATOM     19  C   UNL     1       6.130   4.728  -1.004  0.00  0.00    +0.000 A 
ATOM     20  C   UNL     1       5.706   5.923  -0.410  0.00  0.00    +0.000 A 
ATOM     21  C   UNL     1       4.648   5.878   0.510  0.00  0.00    +0.000 A 
ATOM     22  C   UNL     1       4.032   4.665   0.838  0.00  0.00    +0.000 A 
BRANCH  20  23
ATOM     23  C   UNL     1       6.401   7.225  -0.717  0.00  0.00    +0.000 C 
BRANCH  23  24
ATOM     24  N   UNL     1       5.490   8.216  -1.277  0.00  0.00    +0.000 NA
ATOM     25  H   UNL     1       5.109   7.854  -2.150  0.00  0.00    +0.000 HD
ATOM     26  H   UNL     1       6.019   9.052  -1.520  0.00  0.00    +0.000 HD
ENDBRANCH  23  24
ENDBRANCH  20  23
ENDBRANCH  16  17
ENDBRANCH  14  16
ENDBRANCH   6  14
TORSDOF 7
