REMARK  Name = 
REMARK  7 active torsions:
REMARK  status: ('A' for Active; 'I' for Inactive)
REMARK    1  A    between atoms: C_1  and  C_2
REMARK    2  A    between atoms: C_2  and  C_3
REMARK    3  A    between atoms: C_2  and  C_14
REMARK    4  A    between atoms: C_3  and  N_4
REMARK    5  A    between atoms: N_4  and  C_5
REMARK    6  A    between atoms: C_8  and  C_9
REMARK    7  A    between atoms: C_18  and  C_19
REMARK                            x       y       z     vdW  Elec       q    Type
REMARK                         _______ _______ _______ _____ _____    ______ ____
ROOT
ATOM      1  N   UNL     1       2.684  -2.482  -0.422  0.00  0.00    +0.000 N 
ATOM      2  H   UNL     1       1.677  -2.592  -0.328  0.00  0.00    +0.000 HD
ENDROOT
BRANCH   1   3
ATOM      3  C   UNL     1       3.267  -3.608  -1.024  0.00  0.00    +0.000 A 
ATOM      4  C   UNL     1       4.552  -3.591  -1.579  0.00  0.00    +0.000 A 
ATOM      5  C   UNL     1       5.120  -4.744  -2.129  0.00  0.00    +0.000 A 
ATOM      6  C   UNL     1       4.429  -5.956  -2.097  0.00  0.00    +0.000 A 
ATOM      7  C   UNL     1       3.164  -6.006  -1.506  0.00  0.00    +0.000 A 
ATOM      8  C   UNL     1       2.602  -4.843  -0.960  0.00  0.00    +0.000 A 
BRANCH   6   9
ATOM      9  C   UNL     1       5.080  -7.142  -2.713  0.00  0.00    +0.000 C 
ATOM     10  N   UNL     1       4.716  -8.376  -2.255  0.00  0.00    +0.000 N 
ATOM     11  O   UNL     1       5.942  -7.023  -3.575  0.00  0.00    +0.000 OA
ATOM     12  H   UNL     1       4.191  -8.512  -1.404  0.00  0.00    +0.000 HD
ATOM     13  H   UNL     1       5.258  -9.156  -2.606  0.00  0.00    +0.000 HD
ENDBRANCH   6   9
ENDBRANCH   1   3
BRANCH   1  14
ATOM     14  C   UNL     1       3.028  -1.173  -0.971  0.00  0.00    +0.000 C 
BRANCH  14  16
ATOM     15  C   UNL     1       2.595   0.122   1.204  0.00  0.00    +0.000 C 
ATOM     16  C   UNL     1       2.235  -0.145  -0.225  0.00  0.00    +0.000 C 
BRANCH  16  17
ATOM     17  C   UNL     1       1.047   0.489  -0.817  0.00  0.00    +0.000 A 
ATOM     18  C   UNL     1       1.027   0.911  -2.154  0.00  0.00    +0.000 A 
ATOM     19  C   UNL     1      -0.112   1.513  -2.699  0.00  0.00    +0.000 A 
ATOM     20  C   UNL     1      -1.250   1.695  -1.915  0.00  0.00    +0.000 A 
ATOM     21  C   UNL     1      -1.247   1.278  -0.583  0.00  0.00    +0.000 A 
ATOM     22  C   UNL     1      -0.101   0.687  -0.038  0.00  0.00    +0.000 A 
BRANCH  21  23
ATOM     23  C   UNL     1      -2.415   1.443   0.228  0.00  0.00    +0.000 C 
ATOM     24  N   UNL     1      -3.362   1.567   0.890  0.00  0.00    +0.000 NA
ENDBRANCH  21  23
ENDBRANCH  16  17
ENDBRANCH  14  16
ENDBRANCH   1  14
TORSDOF 6
