REMARK  Name = 
REMARK  12 active torsions:
REMARK  status: ('A' for Active; 'I' for Inactive)
REMARK    1  A    between atoms: C_1  and  C_2
REMARK    2  A    between atoms: C_2  and  C_3
REMARK    3  A    between atoms: C_5  and  O_6
REMARK    4  A    between atoms: O_6  and  C_7
REMARK    5  A    between atoms: C_9  and  S_10
REMARK    6  A    between atoms: S_10  and  C_11
REMARK    7  A    between atoms: C_11  and  C_12
REMARK    8  A    between atoms: C_12  and  C_13
REMARK    9  A    between atoms: C_12  and  C_14
REMARK   10  A    between atoms: C_12  and  C_15
REMARK   11  A    between atoms: C_18  and  C_19
REMARK   12  A    between atoms: C_25  and  C_26
REMARK                            x       y       z     vdW  Elec       q    Type
REMARK                         _______ _______ _______ _____ _____    ______ ____
ROOT
ATOM      1  C   UNL     1       6.502  -0.876   0.622  0.00  0.00    +0.000 A 
ATOM      2  C   UNL     1       6.217  -2.244   0.559  0.00  0.00    +0.000 A 
ATOM      3  C   UNL     1       7.249  -3.190   0.619  0.00  0.00    +0.000 A 
ATOM      4  C   UNL     1       8.575  -2.756   0.717  0.00  0.00    +0.000 A 
ATOM      5  C   UNL     1       8.876  -1.387   0.747  0.00  0.00    +0.000 A 
ATOM      6  C   UNL     1       7.828  -0.456   0.710  0.00  0.00    +0.000 A 
ENDROOT
BRANCH   5   7
ATOM      7  C   UNL     1      10.299  -0.889   0.771  0.00  0.00    +0.000 C 
ATOM      8  F   UNL     1      11.226  -1.886   0.765  0.00  0.00    +0.000 F 
ATOM      9  F   UNL     1      10.592  -0.101  -0.300  0.00  0.00    +0.000 F 
ATOM     10  F   UNL     1      10.567  -0.136   1.874  0.00  0.00    +0.000 F 
ENDBRANCH   5   7
BRANCH   1  11
ATOM     11  O   UNL     1       5.432  -0.017   0.521  0.00  0.00    +0.000 OA
BRANCH  11  16
ATOM     12  C   UNL     1       5.559   4.413  -0.135  0.00  0.00    +0.000 C 
ATOM     13  C   UNL     1       5.351   2.911  -0.268  0.00  0.00    +0.000 C 
ATOM     14  C   UNL     1       5.156   2.479  -1.717  0.00  0.00    +0.000 C 
ATOM     15  C   UNL     1       4.394   2.276   0.758  0.00  0.00    +0.000 C 
ATOM     16  C   UNL     1       5.566   1.323   1.053  0.00  0.00    +0.000 C 
ATOM     17  O   UNL     1       6.470   2.196   0.316  0.00  0.00    +0.000 OA
ENDBRANCH  11  16
ENDBRANCH   1  11
BRANCH   3  18
ATOM     18  S   UNL     1       6.911  -4.931   0.416  0.00  0.00    +0.000 S 
BRANCH  18  19
ATOM     19  C   UNL     1       6.779  -5.465   2.174  0.00  0.00    +0.000 C 
BRANCH  19  20
ATOM     20  C   UNL     1       6.584  -7.006   2.422  0.00  0.00    +0.000 C 
ATOM     21  C   UNL     1       5.346  -7.501   1.634  0.00  0.00    +0.000 C 
ATOM     22  C   UNL     1       7.837  -7.764   1.923  0.00  0.00    +0.000 C 
BRANCH  20  23
ATOM     23  C   UNL     1       6.371  -7.350   3.925  0.00  0.00    +0.000 A 
ATOM     24  C   UNL     1       6.401  -6.374   4.935  0.00  0.00    +0.000 A 
ATOM     25  C   UNL     1       6.182  -6.709   6.278  0.00  0.00    +0.000 A 
ATOM     26  C   UNL     1       5.921  -8.029   6.651  0.00  0.00    +0.000 A 
ATOM     27  C   UNL     1       5.913  -9.022   5.672  0.00  0.00    +0.000 A 
ATOM     28  C   UNL     1       6.137  -8.684   4.328  0.00  0.00    +0.000 A 
BRANCH  26  29
ATOM     29  C   UNL     1       5.681  -8.317   8.091  0.00  0.00    +0.000 C 
ATOM     30  N   UNL     1       4.963  -9.437   8.404  0.00  0.00    +0.000 N 
ATOM     31  O   UNL     1       6.071  -7.560   8.971  0.00  0.00    +0.000 OA
ATOM     32  H   UNL     1       4.420  -9.946   7.723  0.00  0.00    +0.000 HD
ATOM     33  H   UNL     1       4.715  -9.545   9.381  0.00  0.00    +0.000 HD
ENDBRANCH  26  29
ENDBRANCH  20  23
ENDBRANCH  19  20
ENDBRANCH  18  19
ENDBRANCH   3  18
TORSDOF 8
