REMARK  Name = 
REMARK  8 active torsions:
REMARK  status: ('A' for Active; 'I' for Inactive)
REMARK    1  A    between atoms: C_1  and  C_2
REMARK    2  A    between atoms: C_2  and  C_3
REMARK    3  A    between atoms: C_2  and  C_4
REMARK    4  A    between atoms: C_2  and  C_5
REMARK    5  A    between atoms: N_7  and  C_8
REMARK    6  A    between atoms: C_8  and  C_9
REMARK    7  A    between atoms: C_12  and  C_13
REMARK    8  A    between atoms: C_13  and  N_14
REMARK                            x       y       z     vdW  Elec       q    Type
REMARK                         _______ _______ _______ _____ _____    ______ ____
ROOT
ATOM      1  C   UNL     1       2.938   0.606  -1.271  0.00  0.00    +0.000 A 
ATOM      2  C   UNL     1       2.756   1.950  -1.612  0.00  0.00    +0.000 A 
ATOM      3  N   UNL     1       3.330   2.188  -2.835  0.00  0.00    +0.000 N 
ATOM      4  C   UNL     1       3.726   0.993  -3.391  0.00  0.00    +0.000 A 
ATOM      5  C   UNL     1       4.246   0.712  -4.672  0.00  0.00    +0.000 A 
ATOM      6  C   UNL     1       4.586  -0.603  -4.980  0.00  0.00    +0.000 A 
ATOM      7  C   UNL     1       4.438  -1.610  -4.040  0.00  0.00    +0.000 A 
ATOM      8  C   UNL     1       3.927  -1.325  -2.769  0.00  0.00    +0.000 A 
ATOM      9  C   UNL     1       3.539  -0.007  -2.426  0.00  0.00    +0.000 A 
ENDROOT
BRANCH   1  11
ATOM     10  C   UNL     1       0.940   0.190   0.172  0.00  0.00    +0.000 C 
ATOM     11  C   UNL     1       2.470   0.024   0.064  0.00  0.00    +0.000 C 
ATOM     12  C   UNL     1       3.138   0.778   1.241  0.00  0.00    +0.000 C 
ATOM     13  C   UNL     1       2.798  -1.467   0.248  0.00  0.00    +0.000 C 
ENDBRANCH   1  11
BRANCH   3  14
ATOM     14  C   UNL     1       3.398   3.498  -3.492  0.00  0.00    +0.000 C 
BRANCH  14  15
ATOM     15  C   UNL     1       4.670   4.250  -3.178  0.00  0.00    +0.000 A 
ATOM     16  C   UNL     1       5.825   4.099  -3.957  0.00  0.00    +0.000 A 
ATOM     17  C   UNL     1       7.038   4.680  -3.565  0.00  0.00    +0.000 A 
ATOM     18  C   UNL     1       7.118   5.468  -2.406  0.00  0.00    +0.000 A 
ATOM     19  C   UNL     1       5.945   5.676  -1.669  0.00  0.00    +0.000 A 
ATOM     20  C   UNL     1       4.738   5.083  -2.052  0.00  0.00    +0.000 A 
BRANCH  18  21
ATOM     21  C   UNL     1       8.470   5.961  -1.942  0.00  0.00    +0.000 C 
BRANCH  21  22
ATOM     22  N   UNL     1       8.425   7.232  -1.224  0.00  0.00    +0.000 NA
ATOM     23  H   UNL     1       8.075   7.950  -1.853  0.00  0.00    +0.000 HD
ATOM     24  H   UNL     1       9.376   7.504  -0.978  0.00  0.00    +0.000 HD
ENDBRANCH  21  22
ENDBRANCH  18  21
ENDBRANCH  14  15
ENDBRANCH   3  14
TORSDOF 5
