REMARK  Name = 
REMARK  4 active torsions:
REMARK  status: ('A' for Active; 'I' for Inactive)
REMARK    1  A    between atoms: C_2  and  C_4
REMARK    2  A    between atoms: C_7  and  N_8
REMARK    3  A    between atoms: N_8  and  C_9
REMARK    4  A    between atoms: C_9  and  C_10
REMARK                            x       y       z     vdW  Elec       q    Type
REMARK                         _______ _______ _______ _____ _____    ______ ____
ROOT
ATOM      1  C   UNL     1       3.569   1.416  -0.164  0.00  0.00    +0.000 A 
ATOM      2  C   UNL     1       3.766   1.080  -1.495  0.00  0.00    +0.000 A 
ATOM      3  C   UNL     1       4.174   2.084  -2.371  0.00  0.00    +0.000 A 
ATOM      4  C   UNL     1       4.352   3.394  -1.919  0.00  0.00    +0.000 A 
ATOM      5  C   UNL     1       4.134   3.616  -0.558  0.00  0.00    +0.000 A 
ATOM      6  N   UNL     1       3.748   2.670   0.335  0.00  0.00    +0.000 NA
ENDROOT
BRANCH   1   8
ATOM      7  N   UNL     1       2.919   0.796   2.087  0.00  0.00    +0.000 N 
ATOM      8  C   UNL     1       3.138   0.361   0.808  0.00  0.00    +0.000 C 
ATOM      9  O   UNL     1       2.988  -0.812   0.490  0.00  0.00    +0.000 OA
ATOM     10  H   UNL     1       2.629   0.137   2.794  0.00  0.00    +0.000 HD
ATOM     11  H   UNL     1       3.047   1.776   2.310  0.00  0.00    +0.000 HD
ENDBRANCH   1   8
BRANCH   4  12
ATOM     12  N   UNL     1       4.748   4.357  -2.847  0.00  0.00    +0.000 N 
ATOM     13  H   UNL     1       5.680   4.162  -3.212  0.00  0.00    +0.000 HD
BRANCH  12  14
ATOM     14  C   UNL     1       4.551   5.771  -2.564  0.00  0.00    +0.000 C 
BRANCH  14  15
ATOM     15  C   UNL     1       4.601   6.547  -3.863  0.00  0.00    +0.000 A 
ATOM     16  C   UNL     1       3.746   6.200  -4.927  0.00  0.00    +0.000 A 
ATOM     17  C   UNL     1       3.756   6.926  -6.116  0.00  0.00    +0.000 A 
ATOM     18  C   UNL     1       4.616   8.008  -6.244  0.00  0.00    +0.000 A 
ATOM     19  F   UNL     1       4.624   8.711  -7.384  0.00  0.00    +0.000 F 
ATOM     20  C   UNL     1       5.467   8.374  -5.208  0.00  0.00    +0.000 A 
ATOM     21  C   UNL     1       5.461   7.645  -4.016  0.00  0.00    +0.000 A 
ENDBRANCH  14  15
ENDBRANCH  12  14
ENDBRANCH   4  12
TORSDOF 4
