REMARK  Name = 
REMARK  8 active torsions:
REMARK  status: ('A' for Active; 'I' for Inactive)
REMARK    1  A    between atoms: C_1  and  C_2
REMARK    2  A    between atoms: C_4  and  C_5
REMARK    3  A    between atoms: C_10  and  O_11
REMARK    4  A    between atoms: O_11  and  C_12
REMARK    5  A    between atoms: C_12  and  C_13
REMARK    6  A    between atoms: C_17  and  C_18
REMARK    7  A    between atoms: C_22  and  O_23
REMARK    8  A    between atoms: O_23  and  C_24
REMARK                            x       y       z     vdW  Elec       q    Type
REMARK                         _______ _______ _______ _____ _____    ______ ____
ROOT
ATOM      1  C   UNL     1       2.863  -3.971  -0.095  0.00  0.00    +0.000 A 
ATOM      2  C   UNL     1       4.239  -4.175  -0.130  0.00  0.00    +0.000 A 
ATOM      3  C   UNL     1       4.721  -5.476  -0.124  0.00  0.00    +0.000 A 
ATOM      4  C   UNL     1       3.821  -6.535  -0.083  0.00  0.00    +0.000 A 
ATOM      5  C   UNL     1       2.452  -6.270  -0.040  0.00  0.00    +0.000 A 
ATOM      6  N   UNL     1       1.976  -4.999  -0.057  0.00  0.00    +0.000 NA
ENDROOT
BRANCH   5   7
ATOM      7  C   UNL     1       1.436  -7.338   0.046  0.00  0.00    +0.000 A 
ATOM      8  C   UNL     1       0.156  -7.161  -0.505  0.00  0.00    +0.000 A 
ATOM      9  C   UNL     1      -0.817  -8.158  -0.412  0.00  0.00    +0.000 A 
ATOM     10  C   UNL     1      -0.527  -9.364   0.223  0.00  0.00    +0.000 A 
ATOM     11  C   UNL     1       0.748  -9.593   0.730  0.00  0.00    +0.000 A 
ATOM     12  C   UNL     1       1.699  -8.567   0.680  0.00  0.00    +0.000 A 
BRANCH  11  13
ATOM     13  O   UNL     1       1.166 -10.735   1.340  0.00  0.00    +0.000 OA
BRANCH  13  14
ATOM     14  C   UNL     1       0.652 -11.984   0.896  0.00  0.00    +0.000 C 
ATOM     15  F   UNL     1      -0.164 -11.910  -0.175  0.00  0.00    +0.000 F 
ATOM     16  F   UNL     1       1.691 -12.784   0.564  0.00  0.00    +0.000 F 
ATOM     17  F   UNL     1      -0.019 -12.569   1.911  0.00  0.00    +0.000 F 
ENDBRANCH  13  14
ENDBRANCH  11  13
ENDBRANCH   5   7
BRANCH   1  18
ATOM     18  C   UNL     1       2.311  -2.567   0.021  0.00  0.00    +0.000 C 
BRANCH  18  19
ATOM     19  O   UNL     1       2.136  -1.947  -1.246  0.00  0.00    +0.000 OA
BRANCH  19  26
ATOM     20  C   UNL     1       1.423  -0.055   1.218  0.00  0.00    +0.000 C 
ATOM     21  C   UNL     1       1.339   0.228  -0.257  0.00  0.00    +0.000 A 
ATOM     22  C   UNL     1       0.888   1.527  -0.595  0.00  0.00    +0.000 A 
ATOM     23  C   UNL     1       0.753   1.962  -1.919  0.00  0.00    +0.000 A 
ATOM     24  C   UNL     1       1.071   1.074  -2.943  0.00  0.00    +0.000 A 
ATOM     25  C   UNL     1       1.519  -0.216  -2.629  0.00  0.00    +0.000 A 
ATOM     26  C   UNL     1       1.665  -0.658  -1.299  0.00  0.00    +0.000 A 
BRANCH  23  27
ATOM     27  C   UNL     1       0.273   3.359  -2.137  0.00  0.00    +0.000 C 
ATOM     28  N   UNL     1       0.133   3.816  -3.415  0.00  0.00    +0.000 N 
ATOM     29  O   UNL     1       0.005   4.100  -1.193  0.00  0.00    +0.000 OA
ATOM     30  H   UNL     1       0.315   3.282  -4.248  0.00  0.00    +0.000 HD
ATOM     31  H   UNL     1      -0.202   4.766  -3.520  0.00  0.00    +0.000 HD
ENDBRANCH  23  27
ENDBRANCH  19  26
ENDBRANCH  18  19
ENDBRANCH   1  18
TORSDOF 7
