REMARK  Name = 
REMARK  5 active torsions:
REMARK  status: ('A' for Active; 'I' for Inactive)
REMARK    1  A    between atoms: N_1  and  C_2
REMARK    2  A    between atoms: C_2  and  C_3
REMARK    3  A    between atoms: N_6  and  C_7
REMARK    4  A    between atoms: C_7  and  C_8
REMARK    5  A    between atoms: C_14  and  C_15
REMARK                            x       y       z     vdW  Elec       q    Type
REMARK                         _______ _______ _______ _____ _____    ______ ____
ROOT
ATOM      1  C   UNL     1       0.275  -4.754  -2.319  0.00  0.00    +0.000 A 
ATOM      2  C   UNL     1       1.121  -5.464  -1.488  0.00  0.00    +0.000 A 
ATOM      3  N   UNL     1       0.990  -6.800  -1.762  0.00  0.00    +0.000 N 
ATOM      4  C   UNL     1       0.032  -6.990  -2.732  0.00  0.00    +0.000 A 
ATOM      5  C   UNL     1      -0.504  -8.173  -3.258  0.00  0.00    +0.000 A 
ATOM      6  C   UNL     1      -1.516  -8.056  -4.218  0.00  0.00    +0.000 A 
ATOM      7  C   UNL     1      -1.935  -6.800  -4.675  0.00  0.00    +0.000 A 
ATOM      8  C   UNL     1      -1.327  -5.635  -4.191  0.00  0.00    +0.000 A 
ATOM      9  C   UNL     1      -0.377  -5.724  -3.152  0.00  0.00    +0.000 A 
ATOM     10  H   UNL     1       1.476  -7.544  -1.281  0.00  0.00    +0.000 HD
ENDROOT
BRANCH   7  11
ATOM     11  C   UNL     1      -3.064  -6.733  -5.645  0.00  0.00    +0.000 C 
ATOM     12  N   UNL     1      -3.809  -5.583  -5.642  0.00  0.00    +0.000 N 
ATOM     13  O   UNL     1      -3.360  -7.671  -6.364  0.00  0.00    +0.000 OA
ATOM     14  H   UNL     1      -3.752  -4.902  -4.898  0.00  0.00    +0.000 HD
ATOM     15  H   UNL     1      -4.657  -5.601  -6.196  0.00  0.00    +0.000 HD
ENDBRANCH   7  11
BRANCH   1  16
ATOM     16  C   UNL     1      -0.007  -3.276  -2.292  0.00  0.00    +0.000 C 
BRANCH  16  20
ATOM     17  C   UNL     1       2.416  -0.269  -4.203  0.00  0.00    +0.000 C 
ATOM     18  C   UNL     1       2.805  -1.746  -4.359  0.00  0.00    +0.000 C 
ATOM     19  C   UNL     1       1.711  -2.718  -3.909  0.00  0.00    +0.000 C 
ATOM     20  N   UNL     1       1.190  -2.451  -2.561  0.00  0.00    +0.000 NA
ATOM     21  C   UNL     1       0.828  -1.032  -2.372  0.00  0.00    +0.000 C 
ATOM     22  C   UNL     1       1.946  -0.062  -2.758  0.00  0.00    +0.000 C 
BRANCH  17  23
ATOM     23  C   UNL     1       1.381   0.172  -5.258  0.00  0.00    +0.000 C 
BRANCH  23  24
ATOM     24  N   UNL     1       1.025   1.585  -5.127  0.00  0.00    +0.000 NA
ATOM     25  H   UNL     1       0.339   1.831  -5.840  0.00  0.00    +0.000 HD
ATOM     26  H   UNL     1       1.843   2.165  -5.314  0.00  0.00    +0.000 HD
ENDBRANCH  23  24
ENDBRANCH  17  23
ENDBRANCH  16  20
ENDBRANCH   1  16
TORSDOF 5
