REMARK  Name = 
REMARK  4 active torsions:
REMARK  status: ('A' for Active; 'I' for Inactive)
REMARK    1  A    between atoms: C_2  and  C_4
REMARK    2  A    between atoms: N_8  and  C_9
REMARK    3  A    between atoms: C_9  and  C_10
REMARK    4  A    between atoms: C_14  and  C_15
REMARK                            x       y       z     vdW  Elec       q    Type
REMARK                         _______ _______ _______ _____ _____    ______ ____
ROOT
ATOM      1  C   UNL     1       5.456  -4.458   3.811  0.00  0.00    +0.000 C 
ATOM      2  C   UNL     1       4.578  -3.238   3.553  0.00  0.00    +0.000 C 
ATOM      3  C   UNL     1       5.699  -3.543   2.619  0.00  0.00    +0.000 C 
ENDROOT
BRANCH   1   8
ATOM      4  C   UNL     1       1.530  -7.430   5.439  0.00  0.00    +0.000 A 
ATOM      5  C   UNL     1       2.156  -6.339   6.028  0.00  0.00    +0.000 A 
ATOM      6  C   UNL     1       3.276  -5.788   5.412  0.00  0.00    +0.000 A 
ATOM      7  C   UNL     1       3.759  -6.309   4.214  0.00  0.00    +0.000 A 
ATOM      8  N   UNL     1       4.891  -5.794   3.570  0.00  0.00    +0.000 N 
ATOM      9  N   UNL     1       3.158  -7.367   3.629  0.00  0.00    +0.000 NA
ATOM     10  C   UNL     1       2.074  -7.910   4.253  0.00  0.00    +0.000 A 
ATOM     11  H   UNL     1       5.007  -6.251   2.673  0.00  0.00    +0.000 HD
BRANCH   4  13
ATOM     12  N   UNL     1      -0.414  -7.347   6.890  0.00  0.00    +0.000 N 
ATOM     13  C   UNL     1       0.373  -8.093   6.057  0.00  0.00    +0.000 C 
ATOM     14  O   UNL     1       0.116  -9.272   5.830  0.00  0.00    +0.000 OA
ATOM     15  H   UNL     1      -1.229  -7.803   7.288  0.00  0.00    +0.000 HD
ATOM     16  H   UNL     1      -0.366  -6.335   6.955  0.00  0.00    +0.000 HD
ENDBRANCH   4  13
ENDBRANCH   1   8
BRANCH   1  17
ATOM     17  C   UNL     1       6.478  -4.372   4.946  0.00  0.00    +0.000 A 
ATOM     18  C   UNL     1       7.818  -4.760   4.804  0.00  0.00    +0.000 A 
ATOM     19  C   UNL     1       8.740  -4.564   5.843  0.00  0.00    +0.000 A 
ATOM     20  C   UNL     1       8.340  -3.984   7.050  0.00  0.00    +0.000 A 
ATOM     21  C   UNL     1       7.011  -3.602   7.234  0.00  0.00    +0.000 A 
ATOM     22  C   UNL     1       6.114  -3.811   6.181  0.00  0.00    +0.000 A 
BRANCH  21  23
ATOM     23  C   UNL     1       6.534  -2.915   8.498  0.00  0.00    +0.000 C 
ATOM     24  C   UNL     1       5.488  -3.751   9.257  0.00  0.00    +0.000 C 
ATOM     25  C   UNL     1       4.938  -2.966  10.441  0.00  0.00    +0.000 C 
ATOM     26  O   UNL     1       4.401  -1.715  10.015  0.00  0.00    +0.000 OA
ATOM     27  C   UNL     1       5.394  -0.874   9.428  0.00  0.00    +0.000 C 
ATOM     28  C   UNL     1       5.965  -1.519   8.180  0.00  0.00    +0.000 C 
ENDBRANCH  21  23
ENDBRANCH   1  17
TORSDOF 4
