REMARK  Name = 
REMARK  7 active torsions:
REMARK  status: ('A' for Active; 'I' for Inactive)
REMARK    1  A    between atoms: C_1  and  C_2
REMARK    2  A    between atoms: C_2  and  N_3
REMARK    3  A    between atoms: C_2  and  C_16
REMARK    4  A    between atoms: C_4  and  C_6
REMARK    5  A    between atoms: C_19  and  O_20
REMARK    6  A    between atoms: O_20  and  C_21
REMARK    7  A    between atoms: C_21  and  C_22
REMARK                            x       y       z     vdW  Elec       q    Type
REMARK                         _______ _______ _______ _____ _____    ______ ____
ROOT
ATOM      1  C   UNL     1       1.686  -0.932   0.850  0.00  0.00    +0.000 C 
ATOM      2  C   UNL     1       2.430   0.085  -0.025  0.00  0.00    +0.000 C 
ENDROOT
BRANCH   2   3
ATOM      3  C   UNL     1       2.885   1.314   0.755  0.00  0.00    +0.000 A 
ATOM      4  C   UNL     1       2.816   2.571   0.142  0.00  0.00    +0.000 A 
ATOM      5  C   UNL     1       3.035   3.738   0.871  0.00  0.00    +0.000 A 
ATOM      6  C   UNL     1       3.388   3.681   2.219  0.00  0.00    +0.000 A 
ATOM      7  C   UNL     1       3.555   2.432   2.819  0.00  0.00    +0.000 A 
ATOM      8  C   UNL     1       3.308   1.257   2.092  0.00  0.00    +0.000 A 
BRANCH   6   9
ATOM      9  O   UNL     1       3.579   4.776   3.023  0.00  0.00    +0.000 OA
BRANCH   9  10
ATOM     10  C   UNL     1       3.362   6.039   2.379  0.00  0.00    +0.000 C 
BRANCH  10  11
ATOM     11  C   UNL     1       3.582   7.180   3.372  0.00  0.00    +0.000 C 
ATOM     12  C   UNL     1       2.640   7.108   4.557  0.00  0.00    +0.000 C 
ATOM     13  C   UNL     1       1.398   7.818   4.059  0.00  0.00    +0.000 C 
ATOM     14  O   UNL     1       1.808   8.722   3.025  0.00  0.00    +0.000 OA
ATOM     15  C   UNL     1       3.201   8.515   2.754  0.00  0.00    +0.000 C 
ENDBRANCH  10  11
ENDBRANCH   9  10
ENDBRANCH   6   9
ENDBRANCH   2   3
BRANCH   2  16
ATOM     16  N   UNL     1       3.540  -0.515  -0.748  0.00  0.00    +0.000 N 
ATOM     17  C   UNL     1       3.367  -1.169  -1.949  0.00  0.00    +0.000 C 
ATOM     18  O   UNL     1       2.268  -1.315  -2.465  0.00  0.00    +0.000 OA
ATOM     19  H   UNL     1       4.399  -0.667  -0.234  0.00  0.00    +0.000 HD
BRANCH  17  20
ATOM     20  C   UNL     1       4.583  -1.631  -2.639  0.00  0.00    +0.000 A 
ATOM     21  C   UNL     1       4.574  -1.728  -4.025  0.00  0.00    +0.000 A 
ATOM     22  S   UNL     1       6.043  -2.285  -4.684  0.00  0.00    +0.000 S 
ATOM     23  C   UNL     1       6.726  -2.466  -3.142  0.00  0.00    +0.000 A 
ATOM     24  N   UNL     1       7.996  -2.943  -2.997  0.00  0.00    +0.000 NA
ATOM     25  C   UNL     1       8.371  -3.068  -1.774  0.00  0.00    +0.000 A 
ATOM     26  N   UNL     1       7.607  -2.749  -0.678  0.00  0.00    +0.000 N 
ATOM     27  C   UNL     1       6.349  -2.196  -0.777  0.00  0.00    +0.000 A 
ATOM     28  O   UNL     1       5.721  -1.833   0.211  0.00  0.00    +0.000 OA
ATOM     29  C   UNL     1       5.865  -2.069  -2.138  0.00  0.00    +0.000 A 
ATOM     30  H   UNL     1       7.979  -2.859   0.254  0.00  0.00    +0.000 HD
ENDBRANCH  17  20
ENDBRANCH   2  16
TORSDOF 6
