REMARK  Name = 
REMARK  7 active torsions:
REMARK  status: ('A' for Active; 'I' for Inactive)
REMARK    1  A    between atoms: C_1  and  C_2
REMARK    2  A    between atoms: C_2  and  C_3
REMARK    3  A    between atoms: C_2  and  C_15
REMARK    4  A    between atoms: C_3  and  N_4
REMARK    5  A    between atoms: N_4  and  C_5
REMARK    6  A    between atoms: C_8  and  C_9
REMARK    7  A    between atoms: C_19  and  C_20
REMARK                            x       y       z     vdW  Elec       q    Type
REMARK                         _______ _______ _______ _____ _____    ______ ____
ROOT
ATOM      1  N   UNL     1       2.785  -0.395  -2.500  0.00  0.00    +0.000 N 
ATOM      2  H   UNL     1       1.782  -0.549  -2.580  0.00  0.00    +0.000 HD
ENDROOT
BRANCH   1   3
ATOM      3  C   UNL     1       3.350  -0.064  -3.739  0.00  0.00    +0.000 A 
ATOM      4  C   UNL     1       2.701  -0.450  -4.920  0.00  0.00    +0.000 A 
ATOM      5  C   UNL     1       3.255  -0.167  -6.178  0.00  0.00    +0.000 A 
ATOM      6  C   UNL     1       4.493   0.479  -6.274  0.00  0.00    +0.000 A 
ATOM      7  C   UNL     1       5.163   0.809  -5.098  0.00  0.00    +0.000 A 
ATOM      8  F   UNL     1       6.364   1.408  -5.121  0.00  0.00    +0.000 F 
ATOM      9  C   UNL     1       4.611   0.527  -3.852  0.00  0.00    +0.000 A 
BRANCH   6  10
ATOM     10  C   UNL     1       5.050   0.783  -7.614  0.00  0.00    +0.000 C 
ATOM     11  N   UNL     1       6.258   1.416  -7.680  0.00  0.00    +0.000 N 
ATOM     12  O   UNL     1       4.444   0.483  -8.636  0.00  0.00    +0.000 OA
ATOM     13  H   UNL     1       6.790   1.672  -6.857  0.00  0.00    +0.000 HD
ATOM     14  H   UNL     1       6.643   1.622  -8.591  0.00  0.00    +0.000 HD
ENDBRANCH   6  10
ENDBRANCH   1   3
BRANCH   1  15
ATOM     15  C   UNL     1       3.108   0.473  -1.370  0.00  0.00    +0.000 C 
BRANCH  15  17
ATOM     16  C   UNL     1       2.814  -1.270   0.491  0.00  0.00    +0.000 C 
ATOM     17  C   UNL     1       2.339  -0.022  -0.185  0.00  0.00    +0.000 C 
BRANCH  17  18
ATOM     18  C   UNL     1       0.955   0.432  -0.014  0.00  0.00    +0.000 A 
ATOM     19  C   UNL     1       0.651   1.796   0.077  0.00  0.00    +0.000 A 
ATOM     20  C   UNL     1      -0.676   2.224   0.162  0.00  0.00    +0.000 A 
ATOM     21  C   UNL     1      -1.710   1.289   0.146  0.00  0.00    +0.000 A 
ATOM     22  C   UNL     1      -1.417  -0.074   0.066  0.00  0.00    +0.000 A 
ATOM     23  C   UNL     1      -0.088  -0.497  -0.003  0.00  0.00    +0.000 A 
BRANCH  22  24
ATOM     24  C   UNL     1      -2.471  -1.042   0.027  0.00  0.00    +0.000 C 
ATOM     25  N   UNL     1      -3.314  -1.839  -0.024  0.00  0.00    +0.000 NA
ENDBRANCH  22  24
ENDBRANCH  17  18
ENDBRANCH  15  17
ENDBRANCH   1  15
TORSDOF 6
