REMARK  Name = 
REMARK  7 active torsions:
REMARK  status: ('A' for Active; 'I' for Inactive)
REMARK    1  A    between atoms: C_2  and  C_4
REMARK    2  A    between atoms: C_7  and  N_8
REMARK    3  A    between atoms: N_8  and  C_9
REMARK    4  A    between atoms: C_9  and  C_10
REMARK    5  A    between atoms: C_10  and  C_11
REMARK    6  A    between atoms: C_15  and  O_16
REMARK    7  A    between atoms: O_16  and  C_17
REMARK                            x       y       z     vdW  Elec       q    Type
REMARK                         _______ _______ _______ _____ _____    ______ ____
ROOT
ATOM      1  N   UNL     1       5.056   4.289  -2.655  0.00  0.00    +0.000 N 
ATOM      2  H   UNL     1       5.304   3.965  -3.587  0.00  0.00    +0.000 HD
ENDROOT
BRANCH   1   6
ATOM      3  C   UNL     1       3.337   1.224  -0.296  0.00  0.00    +0.000 A 
ATOM      4  C   UNL     1       2.809   2.513  -0.243  0.00  0.00    +0.000 A 
ATOM      5  C   UNL     1       3.362   3.527  -1.029  0.00  0.00    +0.000 A 
ATOM      6  C   UNL     1       4.431   3.282  -1.903  0.00  0.00    +0.000 A 
ATOM      7  C   UNL     1       4.968   1.986  -1.921  0.00  0.00    +0.000 A 
ATOM      8  C   UNL     1       4.432   0.966  -1.124  0.00  0.00    +0.000 A 
BRANCH   3  10
ATOM      9  N   UNL     1       1.457   0.224   0.879  0.00  0.00    +0.000 N 
ATOM     10  C   UNL     1       2.779   0.129   0.538  0.00  0.00    +0.000 C 
ATOM     11  O   UNL     1       3.454  -0.828   0.884  0.00  0.00    +0.000 OA
ATOM     12  H   UNL     1       1.058  -0.567   1.368  0.00  0.00    +0.000 HD
ATOM     13  H   UNL     1       0.821   0.862   0.419  0.00  0.00    +0.000 HD
ENDBRANCH   3  10
ENDBRANCH   1   6
BRANCH   1  14
ATOM     14  C   UNL     1       4.493   5.639  -2.604  0.00  0.00    +0.000 C 
BRANCH  14  15
ATOM     15  C   UNL     1       5.270   6.628  -3.471  0.00  0.00    +0.000 C 
BRANCH  15  16
ATOM     16  C   UNL     1       4.698   8.022  -3.322  0.00  0.00    +0.000 A 
ATOM     17  C   UNL     1       5.174   8.882  -2.325  0.00  0.00    +0.000 A 
ATOM     18  C   UNL     1       4.627  10.158  -2.172  0.00  0.00    +0.000 A 
ATOM     19  C   UNL     1       3.588  10.585  -3.003  0.00  0.00    +0.000 A 
ATOM     20  C   UNL     1       3.087   9.729  -3.980  0.00  0.00    +0.000 A 
ATOM     21  C   UNL     1       3.645   8.456  -4.140  0.00  0.00    +0.000 A 
BRANCH  20  22
ATOM     22  O   UNL     1       2.077  10.043  -4.855  0.00  0.00    +0.000 OA
BRANCH  22  23
ATOM     23  C   UNL     1       1.162  11.110  -4.520  0.00  0.00    +0.000 C 
ATOM     24  C   UNL     1       0.159  10.841  -3.371  0.00  0.00    +0.000 C 
ATOM     25  C   UNL     1      -0.950  11.457  -4.239  0.00  0.00    +0.000 C 
ATOM     26  C   UNL     1      -0.061  11.215  -5.467  0.00  0.00    +0.000 C 
ENDBRANCH  22  23
ENDBRANCH  20  22
ENDBRANCH  15  16
ENDBRANCH  14  15
ENDBRANCH   1  14
TORSDOF 7
