REMARK  Name = 
REMARK  5 active torsions:
REMARK  status: ('A' for Active; 'I' for Inactive)
REMARK    1  A    between atoms: N_1  and  C_2
REMARK    2  A    between atoms: C_2  and  C_3
REMARK    3  A    between atoms: C_3  and  C_4
REMARK    4  A    between atoms: N_7  and  C_8
REMARK    5  A    between atoms: C_8  and  N_9
REMARK                            x       y       z     vdW  Elec       q    Type
REMARK                         _______ _______ _______ _____ _____    ______ ____
ROOT
ATOM      1  C   UNL     1       4.480   1.076  -0.681  0.00  0.00    +0.000 C 
ATOM      2  C   UNL     1       4.968   1.887   0.528  0.00  0.00    +0.000 C 
ATOM      3  C   UNL     1       4.719   3.394   0.367  0.00  0.00    +0.000 C 
ATOM      4  N   UNL     1       5.246   3.961  -0.891  0.00  0.00    +0.000 NA
ATOM      5  C   UNL     1       4.828   3.177  -2.065  0.00  0.00    +0.000 C 
ATOM      6  C   UNL     1       5.138   1.682  -1.924  0.00  0.00    +0.000 C 
ENDROOT
BRANCH   1   7
ATOM      7  C   UNL     1       2.936   1.023  -0.772  0.00  0.00    +0.000 C 
BRANCH   7   8
ATOM      8  C   UNL     1       2.439   0.185  -1.957  0.00  0.00    +0.000 C 
BRANCH   8   9
ATOM      9  N   UNL     1       0.982   0.166  -2.004  0.00  0.00    +0.000 NA
ATOM     10  H   UNL     1       0.686  -0.357  -2.829  0.00  0.00    +0.000 HD
ATOM     11  H   UNL     1       0.632   1.115  -2.139  0.00  0.00    +0.000 HD
ENDBRANCH   8   9
ENDBRANCH   7   8
ENDBRANCH   1   7
BRANCH   4  12
ATOM     12  C   UNL     1       4.806   5.375  -0.986  0.00  0.00    +0.000 C 
BRANCH  12  13
ATOM     13  N   UNL     1       5.323   6.008  -2.196  0.00  0.00    +0.000 N 
ATOM     14  C   UNL     1       6.645   6.160  -2.502  0.00  0.00    +0.000 A 
ATOM     15  N   UNL     1       6.813   6.699  -3.691  0.00  0.00    +0.000 NA
ATOM     16  C   UNL     1       5.543   6.915  -4.167  0.00  0.00    +0.000 A 
ATOM     17  C   UNL     1       5.138   7.432  -5.409  0.00  0.00    +0.000 A 
ATOM     18  C   UNL     1       3.771   7.558  -5.675  0.00  0.00    +0.000 A 
ATOM     19  C   UNL     1       2.825   7.225  -4.704  0.00  0.00    +0.000 A 
ATOM     20  C   UNL     1       3.211   6.728  -3.452  0.00  0.00    +0.000 A 
ATOM     21  C   UNL     1       4.582   6.547  -3.227  0.00  0.00    +0.000 A 
ENDBRANCH  12  13
ENDBRANCH   4  12
TORSDOF 5
