REMARK  Name = 
REMARK  7 active torsions:
REMARK  status: ('A' for Active; 'I' for Inactive)
REMARK    1  A    between atoms: C_1  and  C_2
REMARK    2  A    between atoms: C_2  and  C_3
REMARK    3  A    between atoms: C_7  and  C_8
REMARK    4  A    between atoms: C_8  and  C_9
REMARK    5  A    between atoms: C_9  and  N_10
REMARK    6  A    between atoms: C_14  and  C_15
REMARK    7  A    between atoms: C_23  and  O_24
REMARK                            x       y       z     vdW  Elec       q    Type
REMARK                         _______ _______ _______ _____ _____    ______ ____
ROOT
ATOM      1  C   UNL     1       4.212   2.654  -3.898  0.00  0.00    +0.000 C 
ENDROOT
BRANCH   1   6
ATOM      2  C   UNL     1       2.856   0.064  -1.418  0.00  0.00    +0.000 A 
ATOM      3  C   UNL     1       2.594  -1.006  -2.293  0.00  0.00    +0.000 A 
ATOM      4  C   UNL     1       2.872  -0.913  -3.658  0.00  0.00    +0.000 A 
ATOM      5  C   UNL     1       3.416   0.256  -4.185  0.00  0.00    +0.000 A 
ATOM      6  C   UNL     1       3.680   1.346  -3.351  0.00  0.00    +0.000 A 
ATOM      7  C   UNL     1       3.392   1.235  -1.981  0.00  0.00    +0.000 A 
BRANCH   2   9
ATOM      8  C   UNL     1       0.941  -0.191   0.148  0.00  0.00    +0.000 C 
ATOM      9  C   UNL     1       2.476  -0.050   0.070  0.00  0.00    +0.000 C 
ATOM     10  C   UNL     1       3.176  -1.255   0.755  0.00  0.00    +0.000 C 
ATOM     11  C   UNL     1       4.377  -0.712   1.545  0.00  0.00    +0.000 C 
ATOM     12  C   UNL     1       4.354   0.802   1.386  0.00  0.00    +0.000 C 
ATOM     13  C   UNL     1       2.918   1.121   0.984  0.00  0.00    +0.000 C 
BRANCH  12  14
ATOM     14  O   UNL     1       5.293   1.219   0.405  0.00  0.00    +0.000 OA
ATOM     15  H   UNL     1       5.274   0.586  -0.335  0.00  0.00    +0.000 HD
ENDBRANCH  12  14
ENDBRANCH   2   9
ENDBRANCH   1   6
BRANCH   1  16
ATOM     16  C   UNL     1       5.570   2.507  -4.583  0.00  0.00    +0.000 C 
BRANCH  16  17
ATOM     17  N   UNL     1       6.057   3.804  -5.074  0.00  0.00    +0.000 N 
ATOM     18  C   UNL     1       7.297   3.685  -5.731  0.00  0.00    +0.000 A 
ATOM     19  C   UNL     1       7.900   4.821  -6.264  0.00  0.00    +0.000 A 
ATOM     20  C   UNL     1       9.124   4.694  -6.930  0.00  0.00    +0.000 A 
ATOM     21  C   UNL     1       9.726   3.438  -7.050  0.00  0.00    +0.000 A 
ATOM     22  C   UNL     1       9.048   2.367  -6.497  0.00  0.00    +0.000 A 
ATOM     23  N   UNL     1       7.862   2.469  -5.856  0.00  0.00    +0.000 NA
ATOM     24  H   UNL     1       6.151   4.490  -4.328  0.00  0.00    +0.000 HD
BRANCH  21  25
ATOM     25  C   UNL     1      11.025   3.296  -7.742  0.00  0.00    +0.000 C 
ATOM     26  N   UNL     1      11.601   2.059  -7.835  0.00  0.00    +0.000 N 
ATOM     27  O   UNL     1      11.587   4.272  -8.231  0.00  0.00    +0.000 OA
ATOM     28  H   UNL     1      11.227   1.195  -7.472  0.00  0.00    +0.000 HD
ATOM     29  H   UNL     1      12.492   2.010  -8.314  0.00  0.00    +0.000 HD
ENDBRANCH  21  25
ENDBRANCH  16  17
ENDBRANCH   1  16
TORSDOF 6
