REMARK  Name = 
REMARK  9 active torsions:
REMARK  status: ('A' for Active; 'I' for Inactive)
REMARK    1  A    between atoms: C_2  and  C_4
REMARK    2  A    between atoms: C_7  and  N_8
REMARK    3  A    between atoms: N_8  and  C_9
REMARK    4  A    between atoms: C_9  and  C_10
REMARK    5  A    between atoms: C_9  and  C_14
REMARK    6  A    between atoms: C_10  and  C_11
REMARK    7  A    between atoms: C_11  and  C_12
REMARK    8  A    between atoms: C_12  and  O_13
REMARK    9  A    between atoms: C_18  and  C_19
REMARK                            x       y       z     vdW  Elec       q    Type
REMARK                         _______ _______ _______ _____ _____    ______ ____
ROOT
ATOM      1  C   UNL     1       5.098   2.603   5.492  0.00  0.00    +0.000 C 
ENDROOT
BRANCH   1   2
ATOM      2  C   UNL     1       5.739   3.812   6.215  0.00  0.00    +0.000 A 
ATOM      3  C   UNL     1       5.292   5.112   5.892  0.00  0.00    +0.000 A 
ATOM      4  C   UNL     1       5.714   6.240   6.604  0.00  0.00    +0.000 A 
ATOM      5  C   UNL     1       6.521   6.092   7.725  0.00  0.00    +0.000 A 
ATOM      6  C   UNL     1       6.961   4.819   8.099  0.00  0.00    +0.000 A 
ATOM      7  C   UNL     1       6.649   3.717   7.281  0.00  0.00    +0.000 A 
BRANCH   6   8
ATOM      8  C   UNL     1       7.664   4.609   9.420  0.00  0.00    +0.000 C 
ATOM      9  F   UNL     1       7.696   5.725  10.202  0.00  0.00    +0.000 F 
ATOM     10  F   UNL     1       7.063   3.650  10.180  0.00  0.00    +0.000 F 
ATOM     11  F   UNL     1       8.961   4.215   9.277  0.00  0.00    +0.000 F 
ENDBRANCH   6   8
ENDBRANCH   1   2
BRANCH   1  12
ATOM     12  N   UNL     1       5.606   1.260   5.834  0.00  0.00    +0.000 N 
ATOM     13  H   UNL     1       5.201   0.558   5.225  0.00  0.00    +0.000 HD
BRANCH  12  17
ATOM     14  C   UNL     1       6.174  -0.173   9.591  0.00  0.00    +0.000 A 
ATOM     15  C   UNL     1       5.464   0.999   9.400  0.00  0.00    +0.000 A 
ATOM     16  N   UNL     1       5.102   1.443   8.168  0.00  0.00    +0.000 NA
ATOM     17  C   UNL     1       5.540   0.721   7.122  0.00  0.00    +0.000 A 
ATOM     18  C   UNL     1       6.154  -0.525   7.344  0.00  0.00    +0.000 A 
ATOM     19  N   UNL     1       6.488  -1.009   8.566  0.00  0.00    +0.000 NA
BRANCH  14  21
ATOM     20  N   UNL     1       7.490  -1.623  11.019  0.00  0.00    +0.000 N 
ATOM     21  C   UNL     1       6.753  -0.475  10.929  0.00  0.00    +0.000 C 
ATOM     22  O   UNL     1       6.617   0.279  11.885  0.00  0.00    +0.000 OA
ATOM     23  H   UNL     1       8.004  -1.806  11.870  0.00  0.00    +0.000 HD
ATOM     24  H   UNL     1       7.659  -2.184  10.192  0.00  0.00    +0.000 HD
ENDBRANCH  14  21
ENDBRANCH  12  17
ENDBRANCH   1  12
BRANCH   1  25
ATOM     25  C   UNL     1       5.283   2.769   3.948  0.00  0.00    +0.000 C 
BRANCH  25  26
ATOM     26  C   UNL     1       4.586   1.701   3.095  0.00  0.00    +0.000 C 
BRANCH  26  27
ATOM     27  C   UNL     1       4.766   1.962   1.605  0.00  0.00    +0.000 C 
BRANCH  27  28
ATOM     28  O   UNL     1       4.136   0.924   0.867  0.00  0.00    +0.000 OA
ATOM     29  H   UNL     1       4.631   0.102   1.031  0.00  0.00    +0.000 HD
ENDBRANCH  27  28
ENDBRANCH  26  27
ENDBRANCH  25  26
ENDBRANCH   1  25
TORSDOF 9
