REMARK  Name = 
REMARK  5 active torsions:
REMARK  status: ('A' for Active; 'I' for Inactive)
REMARK    1  A    between atoms: C_2  and  C_4
REMARK    2  A    between atoms: C_7  and  O_8
REMARK    3  A    between atoms: O_8  and  C_9
REMARK    4  A    between atoms: C_9  and  C_10
REMARK    5  A    between atoms: C_15  and  C_16
REMARK                            x       y       z     vdW  Elec       q    Type
REMARK                         _______ _______ _______ _____ _____    ______ ____
ROOT
ATOM      1  C   UNL     1       5.122   3.501   4.816  0.00  0.00    +0.000 C 
ENDROOT
BRANCH   1   2
ATOM      2  C   UNL     1       6.090   4.400   5.558  0.00  0.00    +0.000 A 
ATOM      3  C   UNL     1       5.884   5.785   5.547  0.00  0.00    +0.000 A 
ATOM      4  C   UNL     1       6.731   6.623   6.265  0.00  0.00    +0.000 A 
ATOM      5  C   UNL     1       7.786   6.083   6.998  0.00  0.00    +0.000 A 
ATOM      6  F   UNL     1       8.582   6.944   7.651  0.00  0.00    +0.000 F 
ATOM      7  C   UNL     1       8.026   4.700   7.057  0.00  0.00    +0.000 A 
ATOM      8  C   UNL     1       7.143   3.874   6.329  0.00  0.00    +0.000 A 
BRANCH   7   9
ATOM      9  C   UNL     1       9.139   4.120   7.842  0.00  0.00    +0.000 A 
ATOM     10  C   UNL     1       9.812   2.956   7.438  0.00  0.00    +0.000 A 
ATOM     11  C   UNL     1      10.854   2.428   8.199  0.00  0.00    +0.000 A 
ATOM     12  C   UNL     1      11.216   3.084   9.360  0.00  0.00    +0.000 A 
ATOM     13  N   UNL     1      10.609   4.201   9.801  0.00  0.00    +0.000 NA
ATOM     14  C   UNL     1       9.594   4.686   9.038  0.00  0.00    +0.000 A 
ENDBRANCH   7   9
ENDBRANCH   1   2
BRANCH   1  15
ATOM     15  O   UNL     1       5.770   2.309   4.359  0.00  0.00    +0.000 OA
BRANCH  15  19
ATOM     16  C   UNL     1       3.231  -0.179   2.277  0.00  0.00    +0.000 A 
ATOM     17  C   UNL     1       4.565  -0.550   2.464  0.00  0.00    +0.000 A 
ATOM     18  C   UNL     1       5.416   0.299   3.172  0.00  0.00    +0.000 A 
ATOM     19  C   UNL     1       4.901   1.486   3.670  0.00  0.00    +0.000 A 
ATOM     20  N   UNL     1       3.617   1.869   3.507  0.00  0.00    +0.000 NA
ATOM     21  C   UNL     1       2.813   1.036   2.805  0.00  0.00    +0.000 A 
BRANCH  16  23
ATOM     22  N   UNL     1       2.457  -2.336   1.465  0.00  0.00    +0.000 N 
ATOM     23  C   UNL     1       2.252  -0.986   1.522  0.00  0.00    +0.000 C 
ATOM     24  O   UNL     1       1.274  -0.472   0.996  0.00  0.00    +0.000 OA
ATOM     25  H   UNL     1       1.718  -2.879   1.033  0.00  0.00    +0.000 HD
ATOM     26  H   UNL     1       3.089  -2.820   2.085  0.00  0.00    +0.000 HD
ENDBRANCH  16  23
ENDBRANCH  15  19
ENDBRANCH   1  15
TORSDOF 5
