REMARK  Name = 
REMARK  8 active torsions:
REMARK  status: ('A' for Active; 'I' for Inactive)
REMARK    1  A    between atoms: C_1  and  C_2
REMARK    2  A    between atoms: C_2  and  C_3
REMARK    3  A    between atoms: C_3  and  N_4
REMARK    4  A    between atoms: C_3  and  C_17
REMARK    5  A    between atoms: C_5  and  C_7
REMARK    6  A    between atoms: C_20  and  C_21
REMARK    7  A    between atoms: C_21  and  N_22
REMARK    8  A    between atoms: C_23  and  C_25
REMARK                            x       y       z     vdW  Elec       q    Type
REMARK                         _______ _______ _______ _____ _____    ______ ____
ROOT
ATOM      1  C   UNL     1       2.874  -0.780   1.048  0.00  0.00    +0.000 C 
ENDROOT
BRANCH   1   2
ATOM      2  C   UNL     1       4.398  -0.872   1.133  0.00  0.00    +0.000 A 
ATOM      3  C   UNL     1       5.082  -0.431   2.277  0.00  0.00    +0.000 A 
ATOM      4  C   UNL     1       6.480  -0.512   2.358  0.00  0.00    +0.000 A 
ATOM      5  C   UNL     1       7.232  -1.033   1.296  0.00  0.00    +0.000 A 
ATOM      6  C   UNL     1       6.551  -1.509   0.169  0.00  0.00    +0.000 A 
ATOM      7  C   UNL     1       5.155  -1.426   0.087  0.00  0.00    +0.000 A 
BRANCH   5   8
ATOM      8  C   UNL     1       8.738  -1.055   1.345  0.00  0.00    +0.000 C 
BRANCH   8   9
ATOM      9  N   UNL     1       9.281  -2.267   1.899  0.00  0.00    +0.000 N 
ATOM     10  C   UNL     1      10.643  -2.486   1.916  0.00  0.00    +0.000 C 
ATOM     11  O   UNL     1      11.455  -1.696   1.441  0.00  0.00    +0.000 OA
ATOM     12  H   UNL     1       8.699  -2.945   2.381  0.00  0.00    +0.000 HD
BRANCH  10  13
ATOM     13  C   UNL     1      11.050  -3.750   2.553  0.00  0.00    +0.000 A 
ATOM     14  C   UNL     1      12.383  -4.213   2.733  0.00  0.00    +0.000 A 
ATOM     15  C   UNL     1      12.268  -5.430   3.360  0.00  0.00    +0.000 A 
ATOM     16  N   UNL     1      10.931  -5.640   3.517  0.00  0.00    +0.000 N 
ATOM     17  N   UNL     1      10.164  -4.639   3.054  0.00  0.00    +0.000 NA
ATOM     18  H   UNL     1      10.475  -6.445   3.934  0.00  0.00    +0.000 HD
ENDBRANCH  10  13
ENDBRANCH   8   9
ENDBRANCH   5   8
ENDBRANCH   1   2
BRANCH   1  19
ATOM     19  N   UNL     1       2.333  -2.133   1.002  0.00  0.00    +0.000 N 
ATOM     20  C   UNL     1       0.994  -2.427   1.067  0.00  0.00    +0.000 C 
ATOM     21  O   UNL     1       0.117  -1.570   1.081  0.00  0.00    +0.000 OA
ATOM     22  H   UNL     1       2.989  -2.867   1.246  0.00  0.00    +0.000 HD
BRANCH  20  23
ATOM     23  C   UNL     1       0.655  -3.853   1.068  0.00  0.00    +0.000 A 
ATOM     24  C   UNL     1      -0.539  -4.292   0.512  0.00  0.00    +0.000 A 
ATOM     25  S   UNL     1      -0.760  -5.981   0.626  0.00  0.00    +0.000 S 
ATOM     26  C   UNL     1       0.711  -6.172   1.461  0.00  0.00    +0.000 A 
ATOM     27  N   UNL     1       1.112  -7.392   1.910  0.00  0.00    +0.000 NA
ATOM     28  C   UNL     1       2.231  -7.381   2.555  0.00  0.00    +0.000 A 
ATOM     29  N   UNL     1       2.994  -6.264   2.780  0.00  0.00    +0.000 N 
ATOM     30  C   UNL     1       2.653  -5.022   2.305  0.00  0.00    +0.000 A 
ATOM     31  O   UNL     1       3.398  -4.059   2.447  0.00  0.00    +0.000 OA
ATOM     32  C   UNL     1       1.382  -4.973   1.610  0.00  0.00    +0.000 A 
ATOM     33  H   UNL     1       3.876  -6.324   3.265  0.00  0.00    +0.000 HD
ENDBRANCH  20  23
ENDBRANCH   1  19
BRANCH   1  35
ATOM     34  C   UNL     1       2.868   1.497  -0.151  0.00  0.00    +0.000 C 
ATOM     35  C   UNL     1       2.391   0.052  -0.161  0.00  0.00    +0.000 C 
ENDBRANCH   1  35
TORSDOF 7
