REMARK  Name = 
REMARK  8 active torsions:
REMARK  status: ('A' for Active; 'I' for Inactive)
REMARK    1  A    between atoms: C_1  and  N_2
REMARK    2  A    between atoms: N_2  and  C_3
REMARK    3  A    between atoms: C_3  and  C_4
REMARK    4  A    between atoms: C_7  and  C_8
REMARK    5  A    between atoms: C_8  and  C_9
REMARK    6  A    between atoms: C_12  and  C_13
REMARK    7  A    between atoms: C_13  and  N_14
REMARK    8  A    between atoms: C_15  and  C_17
REMARK                            x       y       z     vdW  Elec       q    Type
REMARK                         _______ _______ _______ _____ _____    ______ ____
ROOT
ATOM      1  C   UNL     1       9.431  -2.116  -0.517  0.00  0.00    +0.000 A 
ATOM      2  C   UNL     1       9.225  -3.351  -1.137  0.00  0.00    +0.000 A 
ATOM      3  C   UNL     1       9.845  -4.493  -0.635  0.00  0.00    +0.000 A 
ATOM      4  C   UNL     1      10.686  -4.373   0.466  0.00  0.00    +0.000 A 
ATOM      5  N   UNL     1      10.912  -3.184   1.082  0.00  0.00    +0.000 NA
ATOM      6  C   UNL     1      10.288  -2.094   0.579  0.00  0.00    +0.000 A 
ENDROOT
BRANCH   1   7
ATOM      7  C   UNL     1       8.731  -0.870  -0.986  0.00  0.00    +0.000 C 
BRANCH   7  11
ATOM      8  C   UNL     1      10.680   1.305  -4.094  0.00  0.00    +0.000 A 
ATOM      9  C   UNL     1      10.934   1.666  -2.772  0.00  0.00    +0.000 A 
ATOM     10  C   UNL     1      10.317   0.954  -1.746  0.00  0.00    +0.000 A 
ATOM     11  C   UNL     1       9.449  -0.095  -2.056  0.00  0.00    +0.000 A 
ATOM     12  C   UNL     1       9.257  -0.383  -3.403  0.00  0.00    +0.000 A 
ATOM     13  N   UNL     1       9.844   0.288  -4.421  0.00  0.00    +0.000 NA
BRANCH   8  14
ATOM     14  C   UNL     1      11.405   2.004  -5.229  0.00  0.00    +0.000 C 
BRANCH  14  16
ATOM     15  C   UNL     1      13.304   0.500  -5.270  0.00  0.00    +0.000 C 
ATOM     16  N   UNL     1      12.875   1.893  -5.163  0.00  0.00    +0.000 NA
ATOM     17  H   UNL     1      13.265   2.411  -5.948  0.00  0.00    +0.000 HD
ENDBRANCH  14  16
ENDBRANCH   8  14
ENDBRANCH   7  11
ENDBRANCH   1   7
BRANCH   4  18
ATOM     18  C   UNL     1      11.357  -5.594   1.048  0.00  0.00    +0.000 C 
BRANCH  18  19
ATOM     19  N   UNL     1      10.566  -6.205   2.093  0.00  0.00    +0.000 N 
ATOM     20  C   UNL     1       9.784  -7.309   1.893  0.00  0.00    +0.000 C 
ATOM     21  O   UNL     1       9.693  -7.857   0.796  0.00  0.00    +0.000 OA
ATOM     22  H   UNL     1      10.432  -5.635   2.922  0.00  0.00    +0.000 HD
BRANCH  20  23
ATOM     23  C   UNL     1       9.117  -7.860   3.082  0.00  0.00    +0.000 A 
ATOM     24  C   UNL     1       8.714  -9.189   3.097  0.00  0.00    +0.000 A 
ATOM     25  S   UNL     1       8.040  -9.685   4.583  0.00  0.00    +0.000 S 
ATOM     26  C   UNL     1       8.209  -8.125   5.243  0.00  0.00    +0.000 A 
ATOM     27  N   UNL     1       7.804  -7.854   6.513  0.00  0.00    +0.000 NA
ATOM     28  C   UNL     1       7.961  -6.623   6.872  0.00  0.00    +0.000 A 
ATOM     29  N   UNL     1       8.487  -5.640   6.076  0.00  0.00    +0.000 N 
ATOM     30  C   UNL     1       8.947  -5.876   4.804  0.00  0.00    +0.000 A 
ATOM     31  O   UNL     1       9.470  -4.985   4.145  0.00  0.00    +0.000 OA
ATOM     32  C   UNL     1       8.783  -7.242   4.345  0.00  0.00    +0.000 A 
ATOM     33  H   UNL     1       8.593  -4.695   6.416  0.00  0.00    +0.000 HD
ENDBRANCH  20  23
ENDBRANCH  18  19
ENDBRANCH   4  18
TORSDOF 7
