REMARK  Name = 
REMARK  9 active torsions:
REMARK  status: ('A' for Active; 'I' for Inactive)
REMARK    1  A    between atoms: C_1  and  C_2
REMARK    2  A    between atoms: C_6  and  C_7
REMARK    3  A    between atoms: C_7  and  O_8
REMARK    4  A    between atoms: O_8  and  C_9
REMARK    5  A    between atoms: C_9  and  C_10
REMARK    6  A    between atoms: C_9  and  C_11
REMARK    7  A    between atoms: C_14  and  C_15
REMARK    8  A    between atoms: C_15  and  N_16
REMARK    9  A    between atoms: C_17  and  C_19
REMARK                            x       y       z     vdW  Elec       q    Type
REMARK                         _______ _______ _______ _____ _____    ______ ____
ROOT
ATOM      1  C   UNL     1       5.401  -3.238   0.089  0.00  0.00    +0.000 A 
ATOM      2  C   UNL     1       5.838  -1.914   0.085  0.00  0.00    +0.000 A 
ATOM      3  C   UNL     1       7.209  -1.635   0.088  0.00  0.00    +0.000 A 
ATOM      4  C   UNL     1       8.130  -2.682   0.086  0.00  0.00    +0.000 A 
ATOM      5  C   UNL     1       7.606  -3.971   0.110  0.00  0.00    +0.000 A 
ATOM      6  N   UNL     1       6.280  -4.273   0.101  0.00  0.00    +0.000 NA
ENDROOT
BRANCH   1   7
ATOM      7  C   UNL     1       3.909  -3.564   0.013  0.00  0.00    +0.000 C 
ATOM      8  C   UNL     1       3.502  -3.728  -1.454  0.00  0.00    +0.000 C 
BRANCH   7   9
ATOM      9  O   UNL     1       3.174  -2.506   0.650  0.00  0.00    +0.000 OA
BRANCH   9  10
ATOM     10  C   UNL     1       1.759  -2.687   0.673  0.00  0.00    +0.000 C 
BRANCH  10  16
ATOM     11  C   UNL     1      -2.123   0.218   0.953  0.00  0.00    +0.000 C 
ATOM     12  C   UNL     1      -0.765  -0.142   1.465  0.00  0.00    +0.000 A 
ATOM     13  N   UNL     1      -0.237   0.612   2.445  0.00  0.00    +0.000 NA
ATOM     14  C   UNL     1       0.987   0.256   2.873  0.00  0.00    +0.000 A 
ATOM     15  C   UNL     1       1.694  -0.808   2.363  0.00  0.00    +0.000 A 
ATOM     16  C   UNL     1       1.083  -1.516   1.346  0.00  0.00    +0.000 A 
ATOM     17  N   UNL     1      -0.156  -1.200   0.900  0.00  0.00    +0.000 NA
ENDBRANCH  10  16
ENDBRANCH   9  10
ENDBRANCH   7   9
ENDBRANCH   1   7
BRANCH   4  18
ATOM     18  C   UNL     1       9.620  -2.460   0.058  0.00  0.00    +0.000 C 
BRANCH  18  19
ATOM     19  N   UNL     1      10.193  -2.369   1.379  0.00  0.00    +0.000 N 
ATOM     20  C   UNL     1      11.539  -2.158   1.574  0.00  0.00    +0.000 C 
ATOM     21  O   UNL     1      12.327  -2.013   0.653  0.00  0.00    +0.000 OA
ATOM     22  H   UNL     1       9.676  -2.822   2.124  0.00  0.00    +0.000 HD
BRANCH  20  23
ATOM     23  C   UNL     1      11.954  -2.051   2.979  0.00  0.00    +0.000 A 
ATOM     24  C   UNL     1      13.059  -1.285   3.327  0.00  0.00    +0.000 A 
ATOM     25  S   UNL     1      13.366  -1.259   5.007  0.00  0.00    +0.000 S 
ATOM     26  C   UNL     1      12.058  -2.303   5.320  0.00  0.00    +0.000 A 
ATOM     27  N   UNL     1      11.774  -2.717   6.585  0.00  0.00    +0.000 NA
ATOM     28  C   UNL     1      10.771  -3.526   6.668  0.00  0.00    +0.000 A 
ATOM     29  N   UNL     1      10.017  -3.949   5.606  0.00  0.00    +0.000 N 
ATOM     30  C   UNL     1      10.234  -3.521   4.320  0.00  0.00    +0.000 A 
ATOM     31  O   UNL     1       9.492  -3.853   3.404  0.00  0.00    +0.000 OA
ATOM     32  C   UNL     1      11.377  -2.638   4.165  0.00  0.00    +0.000 A 
ATOM     33  H   UNL     1       9.227  -4.565   5.741  0.00  0.00    +0.000 HD
ENDBRANCH  20  23
ENDBRANCH  18  19
ENDBRANCH   4  18
TORSDOF 7
