REMARK  Name = 
REMARK  4 active torsions:
REMARK  status: ('A' for Active; 'I' for Inactive)
REMARK    1  A    between atoms: C_2  and  O_3
REMARK    2  A    between atoms: C_2  and  C_11
REMARK    3  A    between atoms: O_3  and  C_4
REMARK    4  A    between atoms: C_4  and  C_5
REMARK                            x       y       z     vdW  Elec       q    Type
REMARK                         _______ _______ _______ _____ _____    ______ ____
ROOT
ATOM      1  O   UNL     1       2.503   1.339   1.653  0.00  0.00    +0.000 OA
ATOM      2  C   UNL     1       2.183   0.374   0.994  0.00  0.00    +0.000 C 
ENDROOT
BRANCH   2   3
ATOM      3  C   UNL     1       0.891   0.325   0.277  0.00  0.00    +0.000 A 
ATOM      4  C   UNL     1      -0.257   0.964   0.733  0.00  0.00    +0.000 A 
ATOM      5  S   UNL     1      -1.604   0.785  -0.316  0.00  0.00    +0.000 S 
ATOM      6  C   UNL     1      -0.657  -0.031  -1.469  0.00  0.00    +0.000 A 
ATOM      7  N   UNL     1      -1.174  -0.410  -2.669  0.00  0.00    +0.000 NA
ATOM      8  C   UNL     1      -0.315  -0.958  -3.464  0.00  0.00    +0.000 A 
ATOM      9  N   UNL     1       1.004  -1.180  -3.162  0.00  0.00    +0.000 N 
ATOM     10  C   UNL     1       1.540  -0.916  -1.924  0.00  0.00    +0.000 A 
ATOM     11  O   UNL     1       2.677  -1.273  -1.642  0.00  0.00    +0.000 OA
ATOM     12  C   UNL     1       0.638  -0.231  -1.027  0.00  0.00    +0.000 A 
ATOM     13  H   UNL     1       1.612  -1.657  -3.811  0.00  0.00    +0.000 HD
ENDBRANCH   2   3
BRANCH   2  14
ATOM     14  O   UNL     1       2.975  -0.739   0.834  0.00  0.00    +0.000 OA
BRANCH  14  15
ATOM     15  C   UNL     1       4.416  -0.606   0.972  0.00  0.00    +0.000 C 
BRANCH  15  16
ATOM     16  C   UNL     1       4.975  -1.439   2.140  0.00  0.00    +0.000 C 
ATOM     17  C   UNL     1       6.507  -1.303   2.213  0.00  0.00    +0.000 C 
ATOM     18  C   UNL     1       7.205  -2.037   1.062  0.00  0.00    +0.000 C 
ATOM     19  N   UNL     1       6.821  -3.447   0.997  0.00  0.00    +0.000 NA
ATOM     20  C   UNL     1       5.369  -3.618   0.882  0.00  0.00    +0.000 C 
ATOM     21  C   UNL     1       4.619  -2.930   2.024  0.00  0.00    +0.000 C 
ATOM     22  H   UNL     1       7.138  -3.915   1.846  0.00  0.00    +0.000 HD
ENDBRANCH  15  16
ENDBRANCH  14  15
ENDBRANCH   2  14
TORSDOF 4
