REMARK  Name = 
REMARK  4 active torsions:
REMARK  status: ('A' for Active; 'I' for Inactive)
REMARK    1  A    between atoms: C_2  and  C_4
REMARK    2  A    between atoms: N_8  and  C_9
REMARK    3  A    between atoms: C_9  and  C_10
REMARK    4  A    between atoms: C_14  and  N_15
REMARK                            x       y       z     vdW  Elec       q    Type
REMARK                         _______ _______ _______ _____ _____    ______ ____
ROOT
ATOM      1  C   UNL     1       1.072  -2.888  -8.088  0.00  0.00    +0.000 A 
ATOM      2  C   UNL     1       1.381  -3.930  -7.221  0.00  0.00    +0.000 A 
ATOM      3  C   UNL     1       2.555  -3.865  -6.471  0.00  0.00    +0.000 A 
ATOM      4  C   UNL     1       3.401  -2.769  -6.599  0.00  0.00    +0.000 A 
ATOM      5  N   UNL     1       4.526  -2.585  -5.846  0.00  0.00    +0.000 N 
ATOM      6  N   UNL     1       3.128  -1.773  -7.466  0.00  0.00    +0.000 NA
ATOM      7  C   UNL     1       1.984  -1.852  -8.196  0.00  0.00    +0.000 A 
ATOM      8  H   UNL     1       5.067  -1.781  -6.132  0.00  0.00    +0.000 HD
ENDROOT
BRANCH   1  10
ATOM      9  N   UNL     1      -1.254  -3.516  -8.364  0.00  0.00    +0.000 N 
ATOM     10  C   UNL     1      -0.172  -2.851  -8.879  0.00  0.00    +0.000 C 
ATOM     11  O   UNL     1      -0.254  -2.223  -9.925  0.00  0.00    +0.000 OA
ATOM     12  H   UNL     1      -2.132  -3.393  -8.854  0.00  0.00    +0.000 HD
ATOM     13  H   UNL     1      -1.297  -3.814  -7.400  0.00  0.00    +0.000 HD
ENDBRANCH   1  10
BRANCH   5  14
ATOM     14  C   UNL     1       5.067  -3.486  -4.861  0.00  0.00    +0.000 C 
BRANCH  14  15
ATOM     15  C   UNL     1       5.986  -4.515  -5.473  0.00  0.00    +0.000 A 
ATOM     16  C   UNL     1       7.143  -4.123  -6.154  0.00  0.00    +0.000 A 
ATOM     17  C   UNL     1       7.999  -5.086  -6.678  0.00  0.00    +0.000 A 
ATOM     18  C   UNL     1       7.712  -6.441  -6.512  0.00  0.00    +0.000 A 
ATOM     19  C   UNL     1       6.574  -6.883  -5.818  0.00  0.00    +0.000 A 
ATOM     20  C   UNL     1       5.716  -5.889  -5.322  0.00  0.00    +0.000 A 
BRANCH  19  21
ATOM     21  N   UNL     1       6.311  -8.237  -5.684  0.00  0.00    +0.000 N 
ATOM     22  C   UNL     1       7.395  -9.156  -5.318  0.00  0.00    +0.000 C 
ATOM     23  C   UNL     1       7.245 -10.444  -6.127  0.00  0.00    +0.000 C 
ATOM     24  C   UNL     1       5.847 -11.045  -5.976  0.00  0.00    +0.000 C 
ATOM     25  C   UNL     1       4.762 -10.007  -6.258  0.00  0.00    +0.000 C 
ATOM     26  C   UNL     1       4.965  -8.745  -5.421  0.00  0.00    +0.000 C 
ENDBRANCH  19  21
ENDBRANCH  14  15
ENDBRANCH   5  14
TORSDOF 4
