REMARK  Name = 
REMARK  7 active torsions:
REMARK  status: ('A' for Active; 'I' for Inactive)
REMARK    1  A    between atoms: C_1  and  N_2
REMARK    2  A    between atoms: N_2  and  C_3
REMARK    3  A    between atoms: C_4  and  C_6
REMARK    4  A    between atoms: N_10  and  C_11
REMARK    5  A    between atoms: N_10  and  C_12
REMARK    6  A    between atoms: C_12  and  C_13
REMARK    7  A    between atoms: C_13  and  C_14
REMARK                            x       y       z     vdW  Elec       q    Type
REMARK                         _______ _______ _______ _____ _____    ______ ____
ROOT
ATOM      1  C   UNL     1       4.727   0.701   0.932  0.00  0.00    +0.000 A 
ATOM      2  C   UNL     1       5.342   0.912   2.160  0.00  0.00    +0.000 A 
ATOM      3  C   UNL     1       6.733   0.865   2.252  0.00  0.00    +0.000 A 
ATOM      4  C   UNL     1       7.520   0.560   1.140  0.00  0.00    +0.000 A 
ATOM      5  N   UNL     1       8.898   0.391   1.218  0.00  0.00    +0.000 N 
ATOM      6  C   UNL     1       9.566   0.275   2.505  0.00  0.00    +0.000 C 
ATOM      7  N   UNL     1       6.919   0.345  -0.054  0.00  0.00    +0.000 NA
ATOM      8  C   UNL     1       5.560   0.397  -0.132  0.00  0.00    +0.000 A 
ENDROOT
BRANCH   1  12
ATOM      9  C   UNL     1       1.012   1.527   1.141  0.00  0.00    +0.000 C 
ATOM     10  N   UNL     1       2.439   1.611   1.407  0.00  0.00    +0.000 N 
ATOM     11  C   UNL     1       2.898   2.764   2.170  0.00  0.00    +0.000 C 
ATOM     12  C   UNL     1       3.262   0.711   0.721  0.00  0.00    +0.000 C 
ATOM     13  O   UNL     1       2.808  -0.103  -0.086  0.00  0.00    +0.000 OA
ENDBRANCH   1  12
BRANCH   5  14
ATOM     14  C   UNL     1       9.671   0.893   0.064  0.00  0.00    +0.000 C 
BRANCH  14  15
ATOM     15  C   UNL     1      11.050   0.227  -0.044  0.00  0.00    +0.000 C 
BRANCH  15  16
ATOM     16  C   UNL     1      11.832   0.684  -1.244  0.00  0.00    +0.000 A 
ATOM     17  C   UNL     1      11.720   0.036  -2.478  0.00  0.00    +0.000 A 
ATOM     18  C   UNL     1      12.469   0.481  -3.558  0.00  0.00    +0.000 A 
ATOM     19  C   UNL     1      13.309   1.567  -3.377  0.00  0.00    +0.000 A 
ATOM     20  N   UNL     1      13.439   2.225  -2.205  0.00  0.00    +0.000 NA
ATOM     21  C   UNL     1      12.700   1.772  -1.168  0.00  0.00    +0.000 A 
ENDBRANCH  15  16
ENDBRANCH  14  15
ENDBRANCH   5  14
TORSDOF 4
