REMARK  Name = 
REMARK  9 active torsions:
REMARK  status: ('A' for Active; 'I' for Inactive)
REMARK    1  A    between atoms: C_2  and  C_3
REMARK    2  A    between atoms: C_6  and  N_7
REMARK    3  A    between atoms: N_7  and  C_8
REMARK    4  A    between atoms: C_8  and  C_9
REMARK    5  A    between atoms: C_9  and  C_10
REMARK    6  A    between atoms: C_9  and  C_12
REMARK    7  A    between atoms: C_10  and  O_11
REMARK    8  A    between atoms: C_16  and  O_17
REMARK    9  A    between atoms: O_17  and  C_18
REMARK                            x       y       z     vdW  Elec       q    Type
REMARK                         _______ _______ _______ _____ _____    ______ ____
ROOT
ATOM      1  C   UNL     1       6.140  -1.435  -0.093  0.00  0.00    +0.000 C 
ENDROOT
BRANCH   1   2
ATOM      2  C   UNL     1       7.430  -0.617   0.031  0.00  0.00    +0.000 A 
ATOM      3  C   UNL     1       7.429   0.777   0.167  0.00  0.00    +0.000 A 
ATOM      4  C   UNL     1       8.626   1.490   0.277  0.00  0.00    +0.000 A 
ATOM      5  C   UNL     1       9.851   0.825   0.248  0.00  0.00    +0.000 A 
ATOM      6  C   UNL     1       9.878  -0.558   0.116  0.00  0.00    +0.000 A 
ATOM      7  C   UNL     1       8.679  -1.272   0.032  0.00  0.00    +0.000 A 
BRANCH   6   8
ATOM      8  O   UNL     1      11.025  -1.315   0.082  0.00  0.00    +0.000 OA
BRANCH   8   9
ATOM      9  C   UNL     1      12.260  -0.673  -0.316  0.00  0.00    +0.000 C 
ATOM     10  C   UNL     1      12.411  -0.259  -1.787  0.00  0.00    +0.000 C 
ATOM     11  O   UNL     1      13.628  -1.027  -1.933  0.00  0.00    +0.000 OA
ATOM     12  C   UNL     1      13.432  -1.614  -0.625  0.00  0.00    +0.000 C 
ENDBRANCH   8   9
ENDBRANCH   6   8
ENDBRANCH   1   2
BRANCH   1  13
ATOM     13  C   UNL     1       6.151  -2.381  -1.320  0.00  0.00    +0.000 C 
BRANCH  13  14
ATOM     14  N   UNL     1       6.212  -1.641  -2.585  0.00  0.00    +0.000 N 
ATOM     15  H   UNL     1       6.883  -0.867  -2.556  0.00  0.00    +0.000 HD
BRANCH  14  19
ATOM     16  C   UNL     1       6.278  -3.615  -6.325  0.00  0.00    +0.000 A 
ATOM     17  C   UNL     1       6.216  -4.368  -5.147  0.00  0.00    +0.000 A 
ATOM     18  C   UNL     1       6.217  -3.733  -3.900  0.00  0.00    +0.000 A 
ATOM     19  C   UNL     1       6.308  -2.341  -3.793  0.00  0.00    +0.000 A 
ATOM     20  C   UNL     1       6.377  -1.600  -4.982  0.00  0.00    +0.000 A 
ATOM     21  C   UNL     1       6.359  -2.225  -6.235  0.00  0.00    +0.000 A 
ATOM     22 CL   UNL     1       6.411  -1.218  -7.641  0.00  0.00    +0.000 Cl
BRANCH  16  24
ATOM     23  N   UNL     1       6.184  -4.888  -8.583  0.00  0.00    +0.000 NA
ATOM     24  C   UNL     1       6.233  -4.298  -7.582  0.00  0.00    +0.000 C 
ENDBRANCH  16  24
ENDBRANCH  14  19
ENDBRANCH  13  14
ENDBRANCH   1  13
BRANCH   1  25
ATOM     25  C   UNL     1       4.813  -0.639  -0.044  0.00  0.00    +0.000 C 
BRANCH  25  26
ATOM     26  O   UNL     1       4.649   0.260  -1.137  0.00  0.00    +0.000 OA
ATOM     27  H   UNL     1       4.806  -0.255  -1.955  0.00  0.00    +0.000 HD
ENDBRANCH  25  26
ENDBRANCH   1  25
TORSDOF 9
