REMARK  Name = 
REMARK  5 active torsions:
REMARK  status: ('A' for Active; 'I' for Inactive)
REMARK    1  A    between atoms: N_1  and  C_2
REMARK    2  A    between atoms: C_2  and  C_3
REMARK    3  A    between atoms: C_3  and  C_4
REMARK    4  A    between atoms: C_7  and  C_8
REMARK    5  A    between atoms: C_8  and  N_9
REMARK                            x       y       z     vdW  Elec       q    Type
REMARK                         _______ _______ _______ _____ _____    ______ ____
ROOT
ATOM      1  C   UNL     1       4.539   0.514  -1.207  0.00  0.00    +0.000 A 
ATOM      2  C   UNL     1       5.271   0.727  -2.373  0.00  0.00    +0.000 A 
ATOM      3  C   UNL     1       6.668   0.857  -2.340  0.00  0.00    +0.000 A 
ATOM      4  C   UNL     1       7.365   0.760  -1.120  0.00  0.00    +0.000 A 
ATOM      5  C   UNL     1       6.628   0.521   0.045  0.00  0.00    +0.000 A 
ATOM      6  C   UNL     1       5.232   0.391   0.007  0.00  0.00    +0.000 A 
ENDROOT
BRANCH   1   7
ATOM      7  C   UNL     1       3.024   0.465  -1.235  0.00  0.00    +0.000 C 
BRANCH   7   8
ATOM      8  C   UNL     1       2.463  -0.934  -1.493  0.00  0.00    +0.000 C 
BRANCH   8   9
ATOM      9  N   UNL     1       0.995  -0.912  -1.531  0.00  0.00    +0.000 NA
ATOM     10  H   UNL     1       0.648  -1.856  -1.708  0.00  0.00    +0.000 HD
ATOM     11  H   UNL     1       0.678  -0.342  -2.316  0.00  0.00    +0.000 HD
ENDBRANCH   8   9
ENDBRANCH   7   8
ENDBRANCH   1   7
BRANCH   4  12
ATOM     12  C   UNL     1       8.862   1.006  -1.049  0.00  0.00    +0.000 C 
BRANCH  12  13
ATOM     13  N   UNL     1       9.141   2.396  -0.699  0.00  0.00    +0.000 N 
ATOM     14  N   UNL     1       9.274   2.742   0.605  0.00  0.00    +0.000 NA
ATOM     15  C   UNL     1       8.924   4.032   0.606  0.00  0.00    +0.000 A 
ATOM     16  C   UNL     1       8.654   4.524  -0.691  0.00  0.00    +0.000 A 
ATOM     17  C   UNL     1       8.166   5.719  -1.244  0.00  0.00    +0.000 A 
ATOM     18  C   UNL     1       8.143   5.854  -2.637  0.00  0.00    +0.000 A 
ATOM     19  C   UNL     1       8.640   4.844  -3.462  0.00  0.00    +0.000 A 
ATOM     20  C   UNL     1       9.074   3.625  -2.930  0.00  0.00    +0.000 A 
ATOM     21  C   UNL     1       9.014   3.481  -1.539  0.00  0.00    +0.000 A 
ENDBRANCH  12  13
ENDBRANCH   4  12
TORSDOF 5
