REMARK  Name = 
REMARK  8 active torsions:
REMARK  status: ('A' for Active; 'I' for Inactive)
REMARK    1  A    between atoms: C_1  and  O_2
REMARK    2  A    between atoms: O_2  and  C_3
REMARK    3  A    between atoms: C_10  and  C_11
REMARK    4  A    between atoms: N_13  and  C_14
REMARK    5  A    between atoms: C_14  and  C_15
REMARK    6  A    between atoms: N_19  and  C_20
REMARK    7  A    between atoms: N_19  and  C_21
REMARK    8  A    between atoms: C_21  and  C_22
REMARK                            x       y       z     vdW  Elec       q    Type
REMARK                         _______ _______ _______ _____ _____    ______ ____
ROOT
ATOM      1  C   UNL     1       3.398  -3.417   0.064  0.00  0.00    +0.000 C 
ENDROOT
BRANCH   1   2
ATOM      2  C   UNL     1       2.372  -3.406   1.159  0.00  0.00    +0.000 A 
ATOM      3  C   UNL     1       1.609  -4.525   1.490  0.00  0.00    +0.000 A 
ATOM      4  C   UNL     1       0.540  -4.408   2.392  0.00  0.00    +0.000 A 
ATOM      5  C   UNL     1       0.237  -3.167   2.955  0.00  0.00    +0.000 A 
ATOM      6  N   UNL     1      -1.001  -2.978   3.626  0.00  0.00    +0.000 N 
ATOM      7  C   UNL     1      -1.348  -1.555   3.676  0.00  0.00    +0.000 C 
ATOM      8  N   UNL     1       1.048  -2.107   2.727  0.00  0.00    +0.000 NA
ATOM      9  C   UNL     1       2.079  -2.242   1.853  0.00  0.00    +0.000 A 
BRANCH   6  10
ATOM     10  C   UNL     1      -1.127  -3.755   4.887  0.00  0.00    +0.000 C 
BRANCH  10  11
ATOM     11  C   UNL     1      -2.479  -3.527   5.654  0.00  0.00    +0.000 C 
ATOM     12  C   UNL     1      -2.523  -4.382   6.938  0.00  0.00    +0.000 C 
ATOM     13  C   UNL     1      -3.862  -4.269   7.672  0.00  0.00    +0.000 C 
ATOM     14  C   UNL     1      -5.027  -4.509   6.722  0.00  0.00    +0.000 C 
ATOM     15  C   UNL     1      -4.913  -3.609   5.494  0.00  0.00    +0.000 C 
ATOM     16  N   UNL     1      -3.646  -3.845   4.806  0.00  0.00    +0.000 NA
ATOM     17  H   UNL     1      -3.589  -3.289   3.952  0.00  0.00    +0.000 HD
ENDBRANCH  10  11
ENDBRANCH   6  10
ENDBRANCH   1   2
BRANCH   1  20
ATOM     18  C   UNL     1       5.756  -3.890  -0.368  0.00  0.00    +0.000 C 
ATOM     19  O   UNL     1       5.597  -3.731  -1.578  0.00  0.00    +0.000 OA
ATOM     20  N   UNL     1       4.715  -3.785   0.521  0.00  0.00    +0.000 N 
ATOM     21  H   UNL     1       4.903  -3.797   1.513  0.00  0.00    +0.000 HD
BRANCH  18  29
ATOM     22  C   UNL     1       7.197  -3.404   2.661  0.00  0.00    +0.000 A 
ATOM     23  N   UNL     1       7.930  -3.442   3.792  0.00  0.00    +0.000 NA
ATOM     24  C   UNL     1       9.079  -4.126   3.771  0.00  0.00    +0.000 A 
ATOM     25  N   UNL     1       9.611  -4.773   2.736  0.00  0.00    +0.000 NA
ATOM     26  C   UNL     1       8.844  -4.716   1.634  0.00  0.00    +0.000 A 
ATOM     27  S   UNL     1       9.370  -5.447   0.194  0.00  0.00    +0.000 S 
ATOM     28  C   UNL     1       7.959  -4.965  -0.626  0.00  0.00    +0.000 A 
ATOM     29  C   UNL     1       7.054  -4.292   0.183  0.00  0.00    +0.000 A 
ATOM     30  C   UNL     1       7.609  -4.091   1.511  0.00  0.00    +0.000 A 
BRANCH  22  32
ATOM     31  C   UNL     1       6.023  -1.634   3.621  0.00  0.00    +0.000 C 
ATOM     32  O   UNL     1       6.010  -2.696   2.668  0.00  0.00    +0.000 OA
ENDBRANCH  22  32
ENDBRANCH  18  29
ENDBRANCH   1  20
TORSDOF 6
