REMARK  Name = 
REMARK  4 active torsions:
REMARK  status: ('A' for Active; 'I' for Inactive)
REMARK    1  A    between atoms: C_2  and  C_4
REMARK    2  A    between atoms: C_7  and  C_8
REMARK    3  A    between atoms: C_8  and  N_9
REMARK    4  A    between atoms: C_14  and  C_15
REMARK                            x       y       z     vdW  Elec       q    Type
REMARK                         _______ _______ _______ _____ _____    ______ ____
ROOT
ATOM      1  N   UNL     1       4.531  -2.074  -5.739  0.00  0.00    +0.000 N 
ATOM      2  C   UNL     1       5.256  -2.566  -6.843  0.00  0.00    +0.000 A 
ATOM      3  C   UNL     1       4.551  -2.898  -7.993  0.00  0.00    +0.000 A 
ATOM      4  C   UNL     1       5.240  -3.355  -9.109  0.00  0.00    +0.000 A 
ATOM      5  C   UNL     1       6.628  -3.409  -9.068  0.00  0.00    +0.000 A 
ATOM      6  C   UNL     1       7.289  -3.014  -7.911  0.00  0.00    +0.000 A 
ATOM      7  N   UNL     1       6.604  -2.610  -6.804  0.00  0.00    +0.000 NA
ATOM      8  H   UNL     1       4.382  -1.081  -5.908  0.00  0.00    +0.000 HD
ENDROOT
BRANCH   6   9
ATOM      9  C   UNL     1       8.763  -2.926  -7.822  0.00  0.00    +0.000 A 
ATOM     10  C   UNL     1       9.378  -1.972  -6.983  0.00  0.00    +0.000 A 
ATOM     11  C   UNL     1      10.767  -1.827  -6.938  0.00  0.00    +0.000 A 
ATOM     12  C   UNL     1      11.563  -2.641  -7.730  0.00  0.00    +0.000 A 
ATOM     13  F   UNL     1      12.894  -2.493  -7.704  0.00  0.00    +0.000 F 
ATOM     14  C   UNL     1      10.999  -3.606  -8.550  0.00  0.00    +0.000 A 
ATOM     15  C   UNL     1       9.608  -3.750  -8.590  0.00  0.00    +0.000 A 
ENDBRANCH   6   9
BRANCH   1  16
ATOM     16  C   UNL     1       5.223  -2.287  -4.473  0.00  0.00    +0.000 C 
BRANCH  16  20
ATOM     17  C   UNL     1       3.078  -0.592  -1.112  0.00  0.00    +0.000 A 
ATOM     18  C   UNL     1       2.444  -1.522  -1.946  0.00  0.00    +0.000 A 
ATOM     19  C   UNL     1       3.127  -2.056  -3.045  0.00  0.00    +0.000 A 
ATOM     20  C   UNL     1       4.445  -1.666  -3.328  0.00  0.00    +0.000 A 
ATOM     21  C   UNL     1       5.062  -0.718  -2.497  0.00  0.00    +0.000 A 
ATOM     22  C   UNL     1       4.382  -0.180  -1.402  0.00  0.00    +0.000 A 
BRANCH  17  24
ATOM     23  N   UNL     1       1.457  -0.786   0.695  0.00  0.00    +0.000 N 
ATOM     24  C   UNL     1       2.404  -0.014   0.080  0.00  0.00    +0.000 C 
ATOM     25  O   UNL     1       2.711   1.083   0.526  0.00  0.00    +0.000 OA
ATOM     26  H   UNL     1       1.096  -0.433   1.572  0.00  0.00    +0.000 HD
ATOM     27  H   UNL     1       1.378  -1.777   0.521  0.00  0.00    +0.000 HD
ENDBRANCH  17  24
ENDBRANCH  16  20
ENDBRANCH   1  16
TORSDOF 4
