REMARK  Name = 
REMARK  5 active torsions:
REMARK  status: ('A' for Active; 'I' for Inactive)
REMARK    1  A    between atoms: N_1  and  C_2
REMARK    2  A    between atoms: C_2  and  C_3
REMARK    3  A    between atoms: C_3  and  C_4
REMARK    4  A    between atoms: C_7  and  C_8
REMARK    5  A    between atoms: C_8  and  C_9
REMARK                            x       y       z     vdW  Elec       q    Type
REMARK                         _______ _______ _______ _____ _____    ______ ____
ROOT
ATOM      1  C   UNL     1       4.547  -1.013   1.128  0.00  0.00    +0.000 A 
ATOM      2  C   UNL     1       5.218   0.215   1.038  0.00  0.00    +0.000 A 
ATOM      3  C   UNL     1       6.617   0.264   0.978  0.00  0.00    +0.000 A 
ATOM      4  C   UNL     1       7.378  -0.915   0.991  0.00  0.00    +0.000 A 
ATOM      5  C   UNL     1       6.708  -2.139   1.133  0.00  0.00    +0.000 A 
ATOM      6  C   UNL     1       5.316  -2.176   1.197  0.00  0.00    +0.000 A 
ATOM      7  F   UNL     1       4.712  -3.374   1.257  0.00  0.00    +0.000 F 
ENDROOT
BRANCH   1   8
ATOM      8  C   UNL     1       3.040  -1.073   1.059  0.00  0.00    +0.000 C 
BRANCH   8   9
ATOM      9  C   UNL     1       2.387  -1.670   2.310  0.00  0.00    +0.000 C 
BRANCH   9  10
ATOM     10  N   UNL     1       0.927  -1.643   2.199  0.00  0.00    +0.000 NA
ATOM     11  H   UNL     1       0.523  -2.063   3.036  0.00  0.00    +0.000 HD
ATOM     12  H   UNL     1       0.636  -2.235   1.420  0.00  0.00    +0.000 HD
ENDBRANCH   9  10
ENDBRANCH   8   9
ENDBRANCH   1   8
BRANCH   4  13
ATOM     13  C   UNL     1       8.839  -0.886   0.627  0.00  0.00    +0.000 C 
BRANCH  13  14
ATOM     14  C   UNL     1       9.719  -0.572   1.793  0.00  0.00    +0.000 A 
ATOM     15  N   UNL     1      10.387   0.592   1.804  0.00  0.00    +0.000 NA
ATOM     16  N   UNL     1      11.366   0.399   2.699  0.00  0.00    +0.000 N 
ATOM     17  C   UNL     1      11.384  -0.854   3.250  0.00  0.00    +0.000 A 
ATOM     18  C   UNL     1      12.318  -1.490   4.074  0.00  0.00    +0.000 A 
ATOM     19  C   UNL     1      12.006  -2.786   4.479  0.00  0.00    +0.000 A 
ATOM     20  F   UNL     1      12.886  -3.457   5.235  0.00  0.00    +0.000 F 
ATOM     21  C   UNL     1      10.815  -3.404   4.119  0.00  0.00    +0.000 A 
ATOM     22  C   UNL     1       9.916  -2.763   3.254  0.00  0.00    +0.000 A 
ATOM     23  C   UNL     1      10.225  -1.468   2.787  0.00  0.00    +0.000 A 
ATOM     24  H   UNL     1      12.033   1.149   2.850  0.00  0.00    +0.000 HD
ENDBRANCH  13  14
ENDBRANCH   4  13
TORSDOF 5
