REMARK  Name = 
REMARK  5 active torsions:
REMARK  status: ('A' for Active; 'I' for Inactive)
REMARK    1  A    between atoms: C_2  and  C_4
REMARK    2  A    between atoms: N_8  and  C_9
REMARK    3  A    between atoms: C_9  and  C_10
REMARK    4  A    between atoms: C_15  and  N_16
REMARK    5  A    between atoms: C_19  and  O_20
REMARK                            x       y       z     vdW  Elec       q    Type
REMARK                         _______ _______ _______ _____ _____    ______ ____
ROOT
ATOM      1  C   UNL     1       5.050  -4.626  -3.706  0.00  0.00    +0.000 C 
ATOM      2  C   UNL     1       3.945  -4.133  -2.772  0.00  0.00    +0.000 C 
ATOM      3  C   UNL     1       5.338  -3.639  -2.587  0.00  0.00    +0.000 C 
ENDROOT
BRANCH   1   8
ATOM      4  C   UNL     1       7.510  -2.672  -7.868  0.00  0.00    +0.000 A 
ATOM      5  C   UNL     1       7.661  -2.322  -6.529  0.00  0.00    +0.000 A 
ATOM      6  C   UNL     1       6.785  -2.854  -5.580  0.00  0.00    +0.000 A 
ATOM      7  C   UNL     1       5.782  -3.725  -5.981  0.00  0.00    +0.000 A 
ATOM      8  N   UNL     1       4.830  -4.257  -5.113  0.00  0.00    +0.000 N 
ATOM      9  N   UNL     1       5.612  -4.052  -7.284  0.00  0.00    +0.000 NA
ATOM     10  C   UNL     1       6.466  -3.516  -8.197  0.00  0.00    +0.000 A 
ATOM     11  H   UNL     1       4.270  -4.901  -5.669  0.00  0.00    +0.000 HD
BRANCH   4  13
ATOM     12  N   UNL     1       9.667  -1.819  -8.567  0.00  0.00    +0.000 N 
ATOM     13  C   UNL     1       8.390  -2.151  -8.934  0.00  0.00    +0.000 C 
ATOM     14  O   UNL     1       8.015  -2.051 -10.089  0.00  0.00    +0.000 OA
ATOM     15  H   UNL     1      10.296  -1.552  -9.311  0.00  0.00    +0.000 HD
ATOM     16  H   UNL     1      10.079  -2.120  -7.695  0.00  0.00    +0.000 HD
ENDBRANCH   4  13
ENDBRANCH   1   8
BRANCH   1  17
ATOM     17  C   UNL     1       5.601  -6.034  -3.492  0.00  0.00    +0.000 A 
ATOM     18  C   UNL     1       6.980  -6.275  -3.436  0.00  0.00    +0.000 A 
ATOM     19  C   UNL     1       7.471  -7.537  -3.114  0.00  0.00    +0.000 A 
ATOM     20  C   UNL     1       6.587  -8.582  -2.850  0.00  0.00    +0.000 A 
ATOM     21  F   UNL     1       7.127  -9.775  -2.556  0.00  0.00    +0.000 F 
ATOM     22  C   UNL     1       5.192  -8.419  -2.919  0.00  0.00    +0.000 A 
ATOM     23  C   UNL     1       4.741  -7.130  -3.262  0.00  0.00    +0.000 A 
BRANCH  22  24
ATOM     24  N   UNL     1       4.285  -9.432  -2.646  0.00  0.00    +0.000 N 
ATOM     25  C   UNL     1       3.000  -9.520  -3.338  0.00  0.00    +0.000 C 
ATOM     26  C   UNL     1       2.906 -10.864  -4.056  0.00  0.00    +0.000 C 
ATOM     27  C   UNL     1       3.205 -12.037  -3.125  0.00  0.00    +0.000 C 
ATOM     28  C   UNL     1       4.512 -11.849  -2.356  0.00  0.00    +0.000 C 
ATOM     29  C   UNL     1       4.575 -10.486  -1.673  0.00  0.00    +0.000 C 
BRANCH  27  30
ATOM     30  O   UNL     1       2.116 -12.247  -2.224  0.00  0.00    +0.000 OA
ATOM     31  H   UNL     1       2.006 -11.455  -1.673  0.00  0.00    +0.000 HD
ENDBRANCH  27  30
ENDBRANCH  22  24
ENDBRANCH   1  17
TORSDOF 5
