REMARK  Name = 
REMARK  6 active torsions:
REMARK  status: ('A' for Active; 'I' for Inactive)
REMARK    1  A    between atoms: C_2  and  C_20
REMARK    2  A    between atoms: N_3  and  C_4
REMARK    3  A    between atoms: C_4  and  C_5
REMARK    4  A    between atoms: C_8  and  C_9
REMARK    5  A    between atoms: C_9  and  C_10
REMARK    6  A    between atoms: C_10  and  C_11
REMARK                            x       y       z     vdW  Elec       q    Type
REMARK                         _______ _______ _______ _____ _____    ______ ____
ROOT
ATOM      1  C   UNL     1       2.270   1.285  -2.071  0.00  0.00    +0.000 C 
ENDROOT
BRANCH   1   2
ATOM      2  C   UNL     1       3.230   1.910  -3.050  0.00  0.00    +0.000 A 
ATOM      3  C   UNL     1       3.174   3.284  -3.310  0.00  0.00    +0.000 A 
ATOM      4  C   UNL     1       4.047   3.868  -4.233  0.00  0.00    +0.000 A 
ATOM      5  C   UNL     1       4.995   3.092  -4.912  0.00  0.00    +0.000 A 
ATOM      6  C   UNL     1       5.032   1.713  -4.669  0.00  0.00    +0.000 A 
ATOM      7  C   UNL     1       4.155   1.127  -3.752  0.00  0.00    +0.000 A 
BRANCH   5   8
ATOM      8  C   UNL     1       5.929   3.713  -5.927  0.00  0.00    +0.000 C 
BRANCH   8   9
ATOM      9  C   UNL     1       6.821   4.803  -5.330  0.00  0.00    +0.000 C 
BRANCH   9  10
ATOM     10  C   UNL     1       7.741   5.421  -6.368  0.00  0.00    +0.000 C 
ATOM     11  O   UNL     1       7.795   5.003  -7.526  0.00  0.00    +0.000 OA
ATOM     12  N   UNL     1       8.496   6.495  -5.948  0.00  0.00    +0.000 N 
ATOM     13  C   UNL     1       8.584   7.054  -4.611  0.00  0.00    +0.000 C 
ATOM     14  C   UNL     1       8.874   8.521  -4.872  0.00  0.00    +0.000 C 
ATOM     15  C   UNL     1       9.771   8.487  -6.106  0.00  0.00    +0.000 C 
ATOM     16  C   UNL     1       9.313   7.252  -6.879  0.00  0.00    +0.000 C 
ENDBRANCH   9  10
ENDBRANCH   8   9
ENDBRANCH   5   8
ENDBRANCH   1   2
BRANCH   1  19
ATOM     17  O   UNL     1      -0.147   2.725  -2.237  0.00  0.00    +0.000 OA
ATOM     18  C   UNL     1      -0.056   1.644  -2.813  0.00  0.00    +0.000 C 
ATOM     19  N   UNL     1       1.065   0.855  -2.728  0.00  0.00    +0.000 N 
ATOM     20  H   UNL     1       1.166   0.081  -3.375  0.00  0.00    +0.000 HD
BRANCH  18  21
ATOM     21  C   UNL     1      -1.178   1.092  -3.585  0.00  0.00    +0.000 A 
ATOM     22  C   UNL     1      -2.470   1.529  -3.330  0.00  0.00    +0.000 A 
ATOM     23  S   UNL     1      -3.653   0.761  -4.289  0.00  0.00    +0.000 S 
ATOM     24  C   UNL     1      -2.475  -0.148  -5.113  0.00  0.00    +0.000 A 
ATOM     25  N   UNL     1      -2.824  -1.010  -6.105  0.00  0.00    +0.000 NA
ATOM     26  C   UNL     1      -1.825  -1.596  -6.679  0.00  0.00    +0.000 A 
ATOM     27  N   UNL     1      -0.511  -1.405  -6.343  0.00  0.00    +0.000 N 
ATOM     28  C   UNL     1      -0.117  -0.605  -5.297  0.00  0.00    +0.000 A 
ATOM     29  O   UNL     1       1.055  -0.564  -4.937  0.00  0.00    +0.000 OA
ATOM     30  C   UNL     1      -1.198   0.114  -4.648  0.00  0.00    +0.000 A 
ATOM     31  H   UNL     1       0.223  -1.915  -6.812  0.00  0.00    +0.000 HD
ENDBRANCH  18  21
ENDBRANCH   1  19
TORSDOF 6
