REMARK  Name = 
REMARK  9 active torsions:
REMARK  status: ('A' for Active; 'I' for Inactive)
REMARK    1  A    between atoms: C_1  and  O_2
REMARK    2  A    between atoms: O_2  and  C_3
REMARK    3  A    between atoms: C_10  and  C_11
REMARK    4  A    between atoms: N_13  and  C_14
REMARK    5  A    between atoms: C_14  and  C_15
REMARK    6  A    between atoms: C_18  and  C_19
REMARK    7  A    between atoms: C_19  and  O_20
REMARK    8  A    between atoms: O_20  and  C_21
REMARK    9  A    between atoms: C_21  and  C_22
REMARK                            x       y       z     vdW  Elec       q    Type
REMARK                         _______ _______ _______ _____ _____    ______ ____
ROOT
ATOM      1  C   UNL     1       2.869  -0.518  -3.323  0.00  0.00    +0.000 C 
ENDROOT
BRANCH   1   2
ATOM      2  C   UNL     1       1.653  -1.354  -3.007  0.00  0.00    +0.000 A 
ATOM      3  C   UNL     1       1.724  -2.754  -2.995  0.00  0.00    +0.000 A 
ATOM      4  C   UNL     1       0.605  -3.524  -2.651  0.00  0.00    +0.000 A 
ATOM      5  C   UNL     1      -0.611  -2.910  -2.317  0.00  0.00    +0.000 A 
ATOM      6  C   UNL     1      -0.691  -1.513  -2.373  0.00  0.00    +0.000 A 
ATOM      7  C   UNL     1       0.425  -0.744  -2.722  0.00  0.00    +0.000 A 
BRANCH   5   8
ATOM      8  C   UNL     1      -1.812  -3.732  -1.911  0.00  0.00    +0.000 C 
BRANCH   8   9
ATOM      9  O   UNL     1      -1.505  -4.480  -0.738  0.00  0.00    +0.000 OA
BRANCH   9  10
ATOM     10  C   UNL     1      -2.629  -5.254  -0.297  0.00  0.00    +0.000 C 
BRANCH  10  11
ATOM     11  C   UNL     1      -2.291  -6.049   0.949  0.00  0.00    +0.000 A 
ATOM     12  N   UNL     1      -2.556  -5.491   2.152  0.00  0.00    +0.000 NA
ATOM     13  C   UNL     1      -2.233  -6.220   3.237  0.00  0.00    +0.000 A 
ATOM     14  C   UNL     1      -1.675  -7.473   3.172  0.00  0.00    +0.000 A 
ATOM     15  C   UNL     1      -1.457  -7.959   1.906  0.00  0.00    +0.000 A 
ATOM     16  N   UNL     1      -1.757  -7.279   0.783  0.00  0.00    +0.000 NA
ENDBRANCH  10  11
ENDBRANCH   9  10
ENDBRANCH   8   9
ENDBRANCH   5   8
ENDBRANCH   1   2
BRANCH   1  19
ATOM     17  C   UNL     1       4.045   0.417  -5.272  0.00  0.00    +0.000 C 
ATOM     18  O   UNL     1       4.921   0.900  -4.555  0.00  0.00    +0.000 OA
ATOM     19  N   UNL     1       2.999  -0.285  -4.741  0.00  0.00    +0.000 N 
ATOM     20  H   UNL     1       2.233  -0.578  -5.331  0.00  0.00    +0.000 HD
BRANCH  17  28
ATOM     21  C   UNL     1       2.008  -0.681  -7.828  0.00  0.00    +0.000 A 
ATOM     22  N   UNL     1       1.452  -1.041  -9.003  0.00  0.00    +0.000 NA
ATOM     23  C   UNL     1       2.054  -0.667 -10.131  0.00  0.00    +0.000 A 
ATOM     24  N   UNL     1       3.169   0.053 -10.239  0.00  0.00    +0.000 NA
ATOM     25  C   UNL     1       3.700   0.380  -9.050  0.00  0.00    +0.000 A 
ATOM     26  S   UNL     1       5.117   1.312  -9.001  0.00  0.00    +0.000 S 
ATOM     27  C   UNL     1       5.140   1.277  -7.304  0.00  0.00    +0.000 A 
ATOM     28  C   UNL     1       4.089   0.559  -6.738  0.00  0.00    +0.000 A 
ATOM     29  C   UNL     1       3.210   0.049  -7.790  0.00  0.00    +0.000 A 
BRANCH  21  31
ATOM     30  C   UNL     1       0.101  -1.676  -6.900  0.00  0.00    +0.000 C 
ATOM     31  O   UNL     1       1.341  -1.011  -6.666  0.00  0.00    +0.000 OA
ENDBRANCH  21  31
ENDBRANCH  17  28
ENDBRANCH   1  19
TORSDOF 8
