REMARK  Name = 
REMARK  7 active torsions:
REMARK  status: ('A' for Active; 'I' for Inactive)
REMARK    1  A    between atoms: N_1  and  C_2
REMARK    2  A    between atoms: C_2  and  C_3
REMARK    3  A    between atoms: C_6  and  N_7
REMARK    4  A    between atoms: N_7  and  C_8
REMARK    5  A    between atoms: C_8  and  C_9
REMARK    6  A    between atoms: C_11  and  C_12
REMARK    7  A    between atoms: C_12  and  O_13
REMARK                            x       y       z     vdW  Elec       q    Type
REMARK                         _______ _______ _______ _____ _____    ______ ____
ROOT
ATOM      1  N   UNL     1       3.463  -2.624   4.917  0.00  0.00    +0.000 N 
ATOM      2  H   UNL     1       3.845  -3.556   4.762  0.00  0.00    +0.000 HD
ENDROOT
BRANCH   1   6
ATOM      3  C   UNL     1       3.011  -0.491   1.302  0.00  0.00    +0.000 A 
ATOM      4  C   UNL     1       4.134  -0.261   2.107  0.00  0.00    +0.000 A 
ATOM      5  C   UNL     1       4.321  -0.974   3.297  0.00  0.00    +0.000 A 
ATOM      6  C   UNL     1       3.376  -1.911   3.720  0.00  0.00    +0.000 A 
ATOM      7  C   UNL     1       2.308  -2.206   2.868  0.00  0.00    +0.000 A 
ATOM      8  C   UNL     1       2.111  -1.493   1.682  0.00  0.00    +0.000 A 
BRANCH   3   9
ATOM      9  C   UNL     1       2.746   0.355   0.084  0.00  0.00    +0.000 C 
BRANCH   9  10
ATOM     10  N   UNL     1       3.840   0.291  -0.877  0.00  0.00    +0.000 NA
ATOM     11  H   UNL     1       3.561   0.777  -1.726  0.00  0.00    +0.000 HD
ATOM     12  H   UNL     1       3.989  -0.682  -1.136  0.00  0.00    +0.000 HD
ENDBRANCH   9  10
ENDBRANCH   3   9
ENDBRANCH   1   6
BRANCH   1  13
ATOM     13  C   UNL     1       4.110  -1.977   6.062  0.00  0.00    +0.000 C 
BRANCH  13  14
ATOM     14  C   UNL     1       3.481  -2.479   7.349  0.00  0.00    +0.000 A 
ATOM     15  C   UNL     1       2.105  -2.325   7.546  0.00  0.00    +0.000 A 
ATOM     16  C   UNL     1       1.524  -2.783   8.730  0.00  0.00    +0.000 A 
ATOM     17  C   UNL     1       2.351  -3.378   9.683  0.00  0.00    +0.000 A 
ATOM     18  C   UNL     1       3.707  -3.487   9.414  0.00  0.00    +0.000 A 
ATOM     19  N   UNL     1       4.289  -3.054   8.273  0.00  0.00    +0.000 NA
BRANCH  16  20
ATOM     20  C   UNL     1       0.051  -2.626   8.978  0.00  0.00    +0.000 C 
BRANCH  20  21
ATOM     21  O   UNL     1      -0.557  -3.898   9.156  0.00  0.00    +0.000 OA
ATOM     22  H   UNL     1      -0.284  -4.447   8.400  0.00  0.00    +0.000 HD
ENDBRANCH  20  21
ENDBRANCH  16  20
ENDBRANCH  13  14
ENDBRANCH   1  13
TORSDOF 7
