REMARK  Name = 
REMARK  7 active torsions:
REMARK  status: ('A' for Active; 'I' for Inactive)
REMARK    1  A    between atoms: N_1  and  C_2
REMARK    2  A    between atoms: C_2  and  C_3
REMARK    3  A    between atoms: C_6  and  O_7
REMARK    4  A    between atoms: O_7  and  C_8
REMARK    5  A    between atoms: C_8  and  C_9
REMARK    6  A    between atoms: C_9  and  C_10
REMARK    7  A    between atoms: C_13  and  C_14
REMARK                            x       y       z     vdW  Elec       q    Type
REMARK                         _______ _______ _______ _____ _____    ______ ____
ROOT
ATOM      1  C   UNL     1       4.854   0.358  -6.007  0.00  0.00    +0.000 C 
ENDROOT
BRANCH   1   2
ATOM      2  O   UNL     1       4.532  -0.794  -5.221  0.00  0.00    +0.000 OA
BRANCH   2   6
ATOM      3  C   UNL     1       3.352  -0.280  -1.231  0.00  0.00    +0.000 A 
ATOM      4  C   UNL     1       3.603   0.848  -2.021  0.00  0.00    +0.000 A 
ATOM      5  C   UNL     1       4.000   0.716  -3.355  0.00  0.00    +0.000 A 
ATOM      6  C   UNL     1       4.156  -0.547  -3.925  0.00  0.00    +0.000 A 
ATOM      7  C   UNL     1       3.910  -1.678  -3.141  0.00  0.00    +0.000 A 
ATOM      8  C   UNL     1       3.511  -1.548  -1.804  0.00  0.00    +0.000 A 
BRANCH   3   9
ATOM      9  C   UNL     1       2.939  -0.115   0.210  0.00  0.00    +0.000 C 
BRANCH   9  10
ATOM     10  N   UNL     1       1.692   0.634   0.328  0.00  0.00    +0.000 NA
ATOM     11  H   UNL     1       1.411   0.663   1.305  0.00  0.00    +0.000 HD
ATOM     12  H   UNL     1       0.960   0.128  -0.169  0.00  0.00    +0.000 HD
ENDBRANCH   9  10
ENDBRANCH   3   9
ENDBRANCH   2   6
ENDBRANCH   1   2
BRANCH   1  13
ATOM     13  C   UNL     1       5.266  -0.046  -7.424  0.00  0.00    +0.000 C 
BRANCH  13  14
ATOM     14  C   UNL     1       6.547  -0.836  -7.476  0.00  0.00    +0.000 A 
ATOM     15  C   UNL     1       6.522  -2.233  -7.480  0.00  0.00    +0.000 A 
ATOM     16  C   UNL     1       7.715  -2.946  -7.523  0.00  0.00    +0.000 A 
ATOM     17  C   UNL     1       8.905  -2.233  -7.555  0.00  0.00    +0.000 A 
ATOM     18  N   UNL     1       8.976  -0.871  -7.549  0.00  0.00    +0.000 NA
ATOM     19  C   UNL     1       7.794  -0.212  -7.506  0.00  0.00    +0.000 A 
BRANCH  17  20
ATOM     20  C   UNL     1      10.203  -2.978  -7.595  0.00  0.00    +0.000 C 
ATOM     21  N   UNL     1      11.330  -2.200  -7.619  0.00  0.00    +0.000 N 
ATOM     22  O   UNL     1      10.267  -4.201  -7.604  0.00  0.00    +0.000 OA
ATOM     23  H   UNL     1      11.240  -1.192  -7.601  0.00  0.00    +0.000 HD
ATOM     24  H   UNL     1      12.238  -2.641  -7.633  0.00  0.00    +0.000 HD
ENDBRANCH  17  20
ENDBRANCH  13  14
ENDBRANCH   1  13
TORSDOF 7
