REMARK  Name = 
REMARK  7 active torsions:
REMARK  status: ('A' for Active; 'I' for Inactive)
REMARK    1  A    between atoms: C_1  and  C_2
REMARK    2  A    between atoms: C_2  and  C_3
REMARK    3  A    between atoms: C_2  and  C_14
REMARK    4  A    between atoms: C_3  and  N_4
REMARK    5  A    between atoms: C_8  and  C_9
REMARK    6  A    between atoms: C_19  and  C_20
REMARK    7  A    between atoms: C_20  and  C_21
REMARK                            x       y       z     vdW  Elec       q    Type
REMARK                         _______ _______ _______ _____ _____    ______ ____
ROOT
ATOM      1  C   UNL     1       0.836   0.018   0.008  0.00  0.00    +0.000 C 
ATOM      2  C   UNL     1       2.373   0.001   0.022  0.00  0.00    +0.000 C 
ENDROOT
BRANCH   2   3
ATOM      3  C   UNL     1       2.873  -1.202   0.833  0.00  0.00    +0.000 A 
ATOM      4  C   UNL     1       2.551  -1.332   2.194  0.00  0.00    +0.000 A 
ATOM      5  C   UNL     1       3.005  -2.426   2.930  0.00  0.00    +0.000 A 
ATOM      6 CL   UNL     1       2.608  -2.552   4.601  0.00  0.00    +0.000 Cl
ATOM      7  C   UNL     1       3.787  -3.412   2.332  0.00  0.00    +0.000 A 
ATOM      8  C   UNL     1       4.130  -3.316   0.975  0.00  0.00    +0.000 A 
ATOM      9  C   UNL     1       3.661  -2.211   0.235  0.00  0.00    +0.000 A 
BRANCH   8  10
ATOM     10  C   UNL     1       5.033  -4.369   0.363  0.00  0.00    +0.000 C 
BRANCH  10  11
ATOM     11  C   UNL     1       4.250  -5.494  -0.298  0.00  0.00    +0.000 C 
ATOM     12  C   UNL     1       3.437  -6.490   0.548  0.00  0.00    +0.000 C 
ATOM     13  O   UNL     1       4.084  -7.618  -0.091  0.00  0.00    +0.000 OA
ATOM     14  C   UNL     1       5.086  -6.740  -0.656  0.00  0.00    +0.000 C 
ENDBRANCH  10  11
ENDBRANCH   8  10
ENDBRANCH   2   3
BRANCH   2  15
ATOM     15  C   UNL     1       2.952   1.340   0.558  0.00  0.00    +0.000 C 
BRANCH  15  16
ATOM     16  N   UNL     1       2.581   2.494  -0.285  0.00  0.00    +0.000 N 
ATOM     17  C   UNL     1       3.047   3.730   0.211  0.00  0.00    +0.000 A 
ATOM     18  C   UNL     1       2.730   4.900  -0.476  0.00  0.00    +0.000 A 
ATOM     19  C   UNL     1       3.164   6.133   0.022  0.00  0.00    +0.000 A 
ATOM     20  C   UNL     1       3.916   6.180   1.198  0.00  0.00    +0.000 A 
ATOM     21  C   UNL     1       4.208   4.969   1.799  0.00  0.00    +0.000 A 
ATOM     22  N   UNL     1       3.798   3.761   1.335  0.00  0.00    +0.000 NA
ATOM     23  H   UNL     1       1.575   2.582  -0.399  0.00  0.00    +0.000 HD
BRANCH  20  24
ATOM     24  C   UNL     1       4.348   7.491   1.743  0.00  0.00    +0.000 C 
ATOM     25  N   UNL     1       5.058   7.525   2.911  0.00  0.00    +0.000 N 
ATOM     26  O   UNL     1       4.069   8.538   1.168  0.00  0.00    +0.000 OA
ATOM     27  H   UNL     1       5.333   6.730   3.467  0.00  0.00    +0.000 HD
ATOM     28  H   UNL     1       5.321   8.441   3.255  0.00  0.00    +0.000 HD
ENDBRANCH  20  24
ENDBRANCH  15  16
ENDBRANCH   2  15
TORSDOF 6
