REMARK  Name = 
REMARK  7 active torsions:
REMARK  status: ('A' for Active; 'I' for Inactive)
REMARK    1  A    between atoms: N_1  and  C_2
REMARK    2  A    between atoms: C_2  and  C_3
REMARK    3  A    between atoms: C_6  and  O_7
REMARK    4  A    between atoms: O_7  and  C_8
REMARK    5  A    between atoms: C_8  and  C_9
REMARK    6  A    between atoms: C_14  and  C_15
REMARK    7  A    between atoms: C_15  and  N_16
REMARK                            x       y       z     vdW  Elec       q    Type
REMARK                         _______ _______ _______ _____ _____    ______ ____
ROOT
ATOM      1  C   UNL     1       4.614  -0.407   6.073  0.00  0.00    +0.000 C 
ENDROOT
BRANCH   1   2
ATOM      2  C   UNL     1       4.910  -1.024   7.415  0.00  0.00    +0.000 A 
ATOM      3  C   UNL     1       5.886  -0.446   8.244  0.00  0.00    +0.000 A 
ATOM      4  C   UNL     1       6.167  -0.998   9.490  0.00  0.00    +0.000 A 
ATOM      5  C   UNL     1       5.467  -2.125   9.916  0.00  0.00    +0.000 A 
ATOM      6  F   UNL     1       5.764  -2.648  11.113  0.00  0.00    +0.000 F 
ATOM      7  C   UNL     1       4.471  -2.708   9.125  0.00  0.00    +0.000 A 
ATOM      8  C   UNL     1       4.198  -2.140   7.873  0.00  0.00    +0.000 A 
BRANCH   7   9
ATOM      9  C   UNL     1       3.736  -3.936   9.577  0.00  0.00    +0.000 C 
BRANCH   9  10
ATOM     10  N   UNL     1       2.293  -3.715   9.633  0.00  0.00    +0.000 NA
ATOM     11  H   UNL     1       2.104  -2.946  10.273  0.00  0.00    +0.000 HD
ATOM     12  H   UNL     1       1.852  -4.538  10.039  0.00  0.00    +0.000 HD
ENDBRANCH   9  10
ENDBRANCH   7   9
ENDBRANCH   1   2
BRANCH   1  13
ATOM     13  O   UNL     1       4.273  -1.411   5.109  0.00  0.00    +0.000 OA
BRANCH  13  17
ATOM     14  C   UNL     1       4.966  -0.320   1.201  0.00  0.00    +0.000 A 
ATOM     15  C   UNL     1       4.909  -1.670   1.546  0.00  0.00    +0.000 A 
ATOM     16  C   UNL     1       4.636  -2.021   2.868  0.00  0.00    +0.000 A 
ATOM     17  C   UNL     1       4.448  -1.020   3.812  0.00  0.00    +0.000 A 
ATOM     18  C   UNL     1       4.467   0.297   3.366  0.00  0.00    +0.000 A 
ATOM     19  N   UNL     1       4.728   0.670   2.095  0.00  0.00    +0.000 NA
BRANCH  14  20
ATOM     20  C   UNL     1       5.307   0.112  -0.207  0.00  0.00    +0.000 C 
BRANCH  20  21
ATOM     21  N   UNL     1       4.353  -0.383  -1.201  0.00  0.00    +0.000 NA
ATOM     22  H   UNL     1       4.562   0.061  -2.092  0.00  0.00    +0.000 HD
ATOM     23  H   UNL     1       3.427  -0.048  -0.932  0.00  0.00    +0.000 HD
ENDBRANCH  20  21
ENDBRANCH  14  20
ENDBRANCH  13  17
ENDBRANCH   1  13
TORSDOF 7
