REMARK  Name = 
REMARK  4 active torsions:
REMARK  status: ('A' for Active; 'I' for Inactive)
REMARK    1  A    between atoms: C_2  and  C_3
REMARK    2  A    between atoms: C_6  and  C_7
REMARK    3  A    between atoms: C_7  and  C_8
REMARK    4  A    between atoms: C_12  and  C_13
REMARK                            x       y       z     vdW  Elec       q    Type
REMARK                         _______ _______ _______ _____ _____    ______ ____
ROOT
ATOM      1  C   UNL     1       4.311   1.290   0.803  0.00  0.00    +0.000 A 
ATOM      2  C   UNL     1       4.371   1.419   2.199  0.00  0.00    +0.000 A 
ATOM      3  C   UNL     1       5.142   2.412   2.797  0.00  0.00    +0.000 A 
ATOM      4  C   UNL     1       5.867   3.303   2.005  0.00  0.00    +0.000 A 
ATOM      5  C   UNL     1       5.792   3.256   0.603  0.00  0.00    +0.000 A 
ATOM      6  C   UNL     1       4.966   2.271   0.030  0.00  0.00    +0.000 A 
ENDROOT
BRANCH   5   7
ATOM      7  C   UNL     1       6.624   4.132  -0.238  0.00  0.00    +0.000 A 
ATOM      8  C   UNL     1       7.942   4.440   0.070  0.00  0.00    +0.000 A 
ATOM      9  N   UNL     1       8.753   5.219  -0.680  0.00  0.00    +0.000 NA
ATOM     10  C   UNL     1       8.210   5.702  -1.804  0.00  0.00    +0.000 A 
ATOM     11  N   UNL     1       6.960   5.476  -2.231  0.00  0.00    +0.000 NA
ATOM     12  C   UNL     1       6.199   4.694  -1.431  0.00  0.00    +0.000 A 
ENDBRANCH   5   7
BRANCH   1  13
ATOM     13  C   UNL     1       3.754   0.018   0.156  0.00  0.00    +0.000 C 
ATOM     14  C   UNL     1       4.631  -0.662  -0.901  0.00  0.00    +0.000 C 
ATOM     15  C   UNL     1       4.557  -1.253   0.465  0.00  0.00    +0.000 C 
BRANCH  13  19
ATOM     16  C   UNL     1      -0.549  -0.633  -0.278  0.00  0.00    +0.000 A 
ATOM     17  C   UNL     1       0.171   0.011  -1.288  0.00  0.00    +0.000 A 
ATOM     18  C   UNL     1       1.545   0.256  -1.129  0.00  0.00    +0.000 A 
ATOM     19  C   UNL     1       2.236  -0.141   0.027  0.00  0.00    +0.000 A 
ATOM     20  C   UNL     1       1.480  -0.759   1.041  0.00  0.00    +0.000 A 
ATOM     21  C   UNL     1       0.111  -1.009   0.895  0.00  0.00    +0.000 A 
BRANCH  16  23
ATOM     22  N   UNL     1      -3.075  -1.157  -0.581  0.00  0.00    +0.000 NA
ATOM     23  C   UNL     1      -1.945  -0.913  -0.448  0.00  0.00    +0.000 C 
ENDBRANCH  16  23
ENDBRANCH  13  19
ENDBRANCH   1  13
TORSDOF 4
