REMARK  Name = 
REMARK  6 active torsions:
REMARK  status: ('A' for Active; 'I' for Inactive)
REMARK    1  A    between atoms: C_2  and  C_25
REMARK    2  A    between atoms: N_3  and  C_4
REMARK    3  A    between atoms: C_4  and  C_5
REMARK    4  A    between atoms: C_8  and  C_9
REMARK    5  A    between atoms: C_9  and  N_10
REMARK    6  A    between atoms: C_11  and  C_13
REMARK                            x       y       z     vdW  Elec       q    Type
REMARK                         _______ _______ _______ _____ _____    ______ ____
ROOT
ATOM      1  C   UNL     1       3.108   2.382   2.871  0.00  0.00    +0.000 A 
ATOM      2  C   UNL     1       3.034   3.783   2.874  0.00  0.00    +0.000 A 
ATOM      3  C   UNL     1       3.815   4.542   3.757  0.00  0.00    +0.000 A 
ATOM      4  C   UNL     1       4.706   3.920   4.642  0.00  0.00    +0.000 A 
ATOM      5  C   UNL     1       4.783   2.521   4.636  0.00  0.00    +0.000 A 
ATOM      6  C   UNL     1       4.004   1.762   3.751  0.00  0.00    +0.000 A 
ENDROOT
BRANCH   1   7
ATOM      7  C   UNL     1       2.201   1.567   1.984  0.00  0.00    +0.000 C 
BRANCH   7  10
ATOM      8  O   UNL     1       0.948   0.073   0.018  0.00  0.00    +0.000 OA
ATOM      9  C   UNL     1       2.016   0.609  -0.259  0.00  0.00    +0.000 C 
ATOM     10  N   UNL     1       2.728   1.356   0.655  0.00  0.00    +0.000 N 
ATOM     11  H   UNL     1       3.510   1.913   0.344  0.00  0.00    +0.000 HD
BRANCH   9  12
ATOM     12  C   UNL     1       2.605   0.514  -1.580  0.00  0.00    +0.000 A 
ATOM     13  C   UNL     1       3.835   0.911  -2.078  0.00  0.00    +0.000 A 
ATOM     14  C   UNL     1       3.885   0.579  -3.454  0.00  0.00    +0.000 A 
ATOM     15  C   UNL     1       2.692  -0.026  -3.771  0.00  0.00    +0.000 A 
ATOM     16  N   UNL     1       1.934  -0.077  -2.633  0.00  0.00    +0.000 N 
ATOM     17  H   UNL     1       1.007  -0.481  -2.552  0.00  0.00    +0.000 HD
ENDBRANCH   9  12
ENDBRANCH   7  10
ENDBRANCH   1   7
BRANCH   4  18
ATOM     18  C   UNL     1       5.553   4.730   5.594  0.00  0.00    +0.000 C 
BRANCH  18  19
ATOM     19  N   UNL     1       4.887   4.955   6.855  0.00  0.00    +0.000 N 
ATOM     20  C   UNL     1       5.469   5.715   7.841  0.00  0.00    +0.000 C 
ATOM     21  O   UNL     1       6.551   6.272   7.680  0.00  0.00    +0.000 OA
ATOM     22  H   UNL     1       4.128   4.325   7.095  0.00  0.00    +0.000 HD
BRANCH  20  23
ATOM     23  C   UNL     1       4.697   5.887   9.080  0.00  0.00    +0.000 A 
ATOM     24  C   UNL     1       4.927   6.989   9.891  0.00  0.00    +0.000 A 
ATOM     25  S   UNL     1       3.905   7.063  11.256  0.00  0.00    +0.000 S 
ATOM     26  C   UNL     1       3.156   5.594  10.839  0.00  0.00    +0.000 A 
ATOM     27  N   UNL     1       2.179   5.060  11.622  0.00  0.00    +0.000 NA
ATOM     28  C   UNL     1       1.720   3.929  11.203  0.00  0.00    +0.000 A 
ATOM     29  N   UNL     1       2.144   3.285  10.070  0.00  0.00    +0.000 N 
ATOM     30  C   UNL     1       3.107   3.797   9.236  0.00  0.00    +0.000 A 
ATOM     31  O   UNL     1       3.440   3.213   8.210  0.00  0.00    +0.000 OA
ATOM     32  C   UNL     1       3.665   5.065   9.666  0.00  0.00    +0.000 A 
ATOM     33  H   UNL     1       1.738   2.403   9.794  0.00  0.00    +0.000 HD
ENDBRANCH  20  23
ENDBRANCH  18  19
ENDBRANCH   4  18
TORSDOF 6
