REMARK  Name = 
REMARK  6 active torsions:
REMARK  status: ('A' for Active; 'I' for Inactive)
REMARK    1  A    between atoms: C_2  and  C_20
REMARK    2  A    between atoms: N_3  and  C_4
REMARK    3  A    between atoms: C_4  and  C_5
REMARK    4  A    between atoms: C_8  and  C_9
REMARK    5  A    between atoms: C_9  and  C_10
REMARK    6  A    between atoms: C_10  and  C_11
REMARK                            x       y       z     vdW  Elec       q    Type
REMARK                         _______ _______ _______ _____ _____    ______ ____
ROOT
ATOM      1  C   UNL     1       2.154   0.632   2.453  0.00  0.00    +0.000 C 
ENDROOT
BRANCH   1   2
ATOM      2  C   UNL     1       3.079   1.010   3.580  0.00  0.00    +0.000 A 
ATOM      3  C   UNL     1       3.279   2.356   3.909  0.00  0.00    +0.000 A 
ATOM      4  C   UNL     1       4.108   2.714   4.976  0.00  0.00    +0.000 A 
ATOM      5  C   UNL     1       4.757   1.733   5.738  0.00  0.00    +0.000 A 
ATOM      6  C   UNL     1       4.589   0.388   5.382  0.00  0.00    +0.000 A 
ATOM      7  C   UNL     1       3.764   0.030   4.310  0.00  0.00    +0.000 A 
BRANCH   5   8
ATOM      8  C   UNL     1       5.658   2.110   6.892  0.00  0.00    +0.000 C 
BRANCH   8   9
ATOM      9  C   UNL     1       4.928   2.869   8.004  0.00  0.00    +0.000 C 
BRANCH   9  10
ATOM     10  C   UNL     1       5.868   3.261   9.134  0.00  0.00    +0.000 C 
ATOM     11  O   UNL     1       7.058   2.954   9.135  0.00  0.00    +0.000 OA
ATOM     12  N   UNL     1       5.317   4.031  10.128  0.00  0.00    +0.000 N 
ATOM     13  C   UNL     1       6.089   4.591  11.199  0.00  0.00    +0.000 C 
ATOM     14  C   UNL     1       5.161   5.668  11.706  0.00  0.00    +0.000 C 
ATOM     15  O   UNL     1       3.826   5.208  11.417  0.00  0.00    +0.000 OA
ATOM     16  C   UNL     1       3.924   4.166  10.439  0.00  0.00    +0.000 C 
ENDBRANCH   9  10
ENDBRANCH   8   9
ENDBRANCH   5   8
ENDBRANCH   1   2
BRANCH   1  19
ATOM     17  O   UNL     1       2.184   2.712   0.563  0.00  0.00    +0.000 OA
ATOM     18  C   UNL     1       2.825   1.693   0.331  0.00  0.00    +0.000 C 
ATOM     19  N   UNL     1       2.833   0.617   1.183  0.00  0.00    +0.000 N 
ATOM     20  H   UNL     1       3.501  -0.131   1.038  0.00  0.00    +0.000 HD
BRANCH  18  21
ATOM     21  C   UNL     1       3.583   1.533  -0.917  0.00  0.00    +0.000 A 
ATOM     22  C   UNL     1       3.250   2.303  -2.026  0.00  0.00    +0.000 A 
ATOM     23  S   UNL     1       4.234   2.007  -3.386  0.00  0.00    +0.000 S 
ATOM     24  C   UNL     1       5.168   0.870  -2.529  0.00  0.00    +0.000 A 
ATOM     25  N   UNL     1       6.231   0.256  -3.115  0.00  0.00    +0.000 NA
ATOM     26  C   UNL     1       6.877  -0.547  -2.337  0.00  0.00    +0.000 A 
ATOM     27  N   UNL     1       6.546  -0.811  -1.034  0.00  0.00    +0.000 N 
ATOM     28  C   UNL     1       5.429  -0.281  -0.432  0.00  0.00    +0.000 A 
ATOM     29  O   UNL     1       5.069  -0.658   0.682  0.00  0.00    +0.000 OA
ATOM     30  C   UNL     1       4.708   0.688  -1.236  0.00  0.00    +0.000 A 
ATOM     31  H   UNL     1       7.067  -1.483  -0.493  0.00  0.00    +0.000 HD
ENDBRANCH  18  21
ENDBRANCH   1  19
TORSDOF 6
