REMARK  Name = 
REMARK  7 active torsions:
REMARK  status: ('A' for Active; 'I' for Inactive)
REMARK    1  A    between atoms: C_1  and  C_2
REMARK    2  A    between atoms: C_2  and  N_3
REMARK    3  A    between atoms: C_2  and  C_16
REMARK    4  A    between atoms: C_4  and  C_6
REMARK    5  A    between atoms: C_19  and  O_20
REMARK    6  A    between atoms: O_20  and  C_21
REMARK    7  A    between atoms: C_21  and  C_22
REMARK                            x       y       z     vdW  Elec       q    Type
REMARK                         _______ _______ _______ _____ _____    ______ ____
ROOT
ATOM      1  C   UNL     1       3.417   0.161  -1.139  0.00  0.00    +0.000 C 
ATOM      2  C   UNL     1       2.482   0.172   0.077  0.00  0.00    +0.000 C 
ENDROOT
BRANCH   2   3
ATOM      3  C   UNL     1       2.889  -0.930   1.045  0.00  0.00    +0.000 A 
ATOM      4  C   UNL     1       3.283  -0.657   2.361  0.00  0.00    +0.000 A 
ATOM      5  C   UNL     1       3.558  -1.707   3.248  0.00  0.00    +0.000 A 
ATOM      6  C   UNL     1       3.422  -3.034   2.837  0.00  0.00    +0.000 A 
ATOM      7  C   UNL     1       3.112  -3.310   1.509  0.00  0.00    +0.000 A 
ATOM      8  C   UNL     1       2.841  -2.271   0.628  0.00  0.00    +0.000 A 
BRANCH   6   9
ATOM      9  O   UNL     1       3.594  -3.999   3.793  0.00  0.00    +0.000 OA
BRANCH   9  10
ATOM     10  C   UNL     1       2.892  -5.219   3.517  0.00  0.00    +0.000 C 
BRANCH  10  11
ATOM     11  C   UNL     1       2.657  -6.011   4.775  0.00  0.00    +0.000 A 
ATOM     12  C   UNL     1       2.493  -5.385   6.012  0.00  0.00    +0.000 A 
ATOM     13  C   UNL     1       2.224  -6.167   7.120  0.00  0.00    +0.000 A 
ATOM     14  N   UNL     1       2.088  -7.510   7.080  0.00  0.00    +0.000 NA
ATOM     15  C   UNL     1       2.226  -8.096   5.872  0.00  0.00    +0.000 A 
ATOM     16  C   UNL     1       2.499  -7.399   4.706  0.00  0.00    +0.000 A 
ENDBRANCH  10  11
ENDBRANCH   9  10
ENDBRANCH   6   9
ENDBRANCH   2   3
BRANCH   2  17
ATOM     17  N   UNL     1       1.083  -0.020  -0.284  0.00  0.00    +0.000 N 
ATOM     18  C   UNL     1       0.389   0.774  -1.157  0.00  0.00    +0.000 C 
ATOM     19  O   UNL     1       0.856   1.797  -1.646  0.00  0.00    +0.000 OA
ATOM     20  H   UNL     1       0.599  -0.784   0.166  0.00  0.00    +0.000 HD
BRANCH  18  21
ATOM     21  C   UNL     1      -0.991   0.356  -1.430  0.00  0.00    +0.000 A 
ATOM     22  C   UNL     1      -1.951   1.299  -1.766  0.00  0.00    +0.000 A 
ATOM     23  S   UNL     1      -3.504   0.634  -2.005  0.00  0.00    +0.000 S 
ATOM     24  C   UNL     1      -2.940  -0.940  -1.707  0.00  0.00    +0.000 A 
ATOM     25  N   UNL     1      -3.783  -2.008  -1.747  0.00  0.00    +0.000 NA
ATOM     26  C   UNL     1      -3.215  -3.148  -1.529  0.00  0.00    +0.000 A 
ATOM     27  N   UNL     1      -1.878  -3.317  -1.285  0.00  0.00    +0.000 N 
ATOM     28  C   UNL     1      -0.981  -2.276  -1.261  0.00  0.00    +0.000 A 
ATOM     29  O   UNL     1       0.209  -2.477  -1.087  0.00  0.00    +0.000 OA
ATOM     30  C   UNL     1      -1.580  -0.964  -1.450  0.00  0.00    +0.000 A 
ATOM     31  H   UNL     1      -1.491  -4.240  -1.151  0.00  0.00    +0.000 HD
ENDBRANCH  18  21
ENDBRANCH   2  17
TORSDOF 6
