REMARK  Name = 
REMARK  4 active torsions:
REMARK  status: ('A' for Active; 'I' for Inactive)
REMARK    1  A    between atoms: C_2  and  C_3
REMARK    2  A    between atoms: C_7  and  C_8
REMARK    3  A    between atoms: C_8  and  N_9
REMARK    4  A    between atoms: C_10  and  C_12
REMARK                            x       y       z     vdW  Elec       q    Type
REMARK                         _______ _______ _______ _____ _____    ______ ____
ROOT
ATOM      1  N   UNL     1       3.835   2.342   0.163  0.00  0.00    +0.000 N 
ATOM      2  C   UNL     1       4.687   3.419   0.214  0.00  0.00    +0.000 C 
ATOM      3  O   UNL     1       4.287   4.579   0.194  0.00  0.00    +0.000 OA
ATOM      4  H   UNL     1       4.213   1.447  -0.130  0.00  0.00    +0.000 HD
ENDROOT
BRANCH   2   5
ATOM      5  C   UNL     1       6.112   3.103   0.371  0.00  0.00    +0.000 A 
ATOM      6  C   UNL     1       6.962   4.000   1.006  0.00  0.00    +0.000 A 
ATOM      7  S   UNL     1       8.573   3.447   1.122  0.00  0.00    +0.000 S 
ATOM      8  C   UNL     1       8.198   2.010   0.290  0.00  0.00    +0.000 A 
ATOM      9  N   UNL     1       9.157   1.084   0.017  0.00  0.00    +0.000 NA
ATOM     10  C   UNL     1       8.734   0.056  -0.641  0.00  0.00    +0.000 A 
ATOM     11  N   UNL     1       7.437  -0.135  -1.043  0.00  0.00    +0.000 N 
ATOM     12  C   UNL     1       6.427   0.752  -0.756  0.00  0.00    +0.000 A 
ATOM     13  O   UNL     1       5.267   0.516  -1.066  0.00  0.00    +0.000 OA
ATOM     14  C   UNL     1       6.858   1.940  -0.044  0.00  0.00    +0.000 A 
ATOM     15  H   UNL     1       7.165  -0.973  -1.536  0.00  0.00    +0.000 HD
ENDBRANCH   2   5
BRANCH   1  16
ATOM     16  C   UNL     1       2.406   2.499   0.034  0.00  0.00    +0.000 C 
BRANCH  16  21
ATOM     17  C   UNL     1       1.076   0.193   2.774  0.00  0.00    +0.000 A 
ATOM     18  C   UNL     1       0.193  -0.622   2.062  0.00  0.00    +0.000 A 
ATOM     19  C   UNL     1       0.044  -0.444   0.686  0.00  0.00    +0.000 A 
ATOM     20  C   UNL     1       0.776   0.546   0.022  0.00  0.00    +0.000 A 
ATOM     21  C   UNL     1       1.654   1.381   0.725  0.00  0.00    +0.000 A 
ATOM     22  C   UNL     1       1.797   1.192   2.109  0.00  0.00    +0.000 A 
BRANCH  17  24
ATOM     23  N   UNL     1       1.374  -0.150   5.327  0.00  0.00    +0.000 NA
ATOM     24  C   UNL     1       1.244   0.008   4.186  0.00  0.00    +0.000 C 
ENDBRANCH  17  24
ENDBRANCH  16  21
ENDBRANCH   1  16
TORSDOF 4
