REMARK  Name = 
REMARK  7 active torsions:
REMARK  status: ('A' for Active; 'I' for Inactive)
REMARK    1  A    between atoms: N_1  and  C_2
REMARK    2  A    between atoms: C_2  and  C_3
REMARK    3  A    between atoms: C_3  and  C_4
REMARK    4  A    between atoms: C_7  and  C_8
REMARK    5  A    between atoms: C_8  and  O_9
REMARK    6  A    between atoms: O_9  and  C_10
REMARK    7  A    between atoms: C_13  and  C_14
REMARK                            x       y       z     vdW  Elec       q    Type
REMARK                         _______ _______ _______ _____ _____    ______ ____
ROOT
ATOM      1  C   UNL     1       4.391  -1.381   0.444  0.00  0.00    +0.000 A 
ATOM      2  C   UNL     1       5.159  -1.290  -0.707  0.00  0.00    +0.000 A 
ATOM      3  N   UNL     1       6.512  -1.285  -0.718  0.00  0.00    +0.000 NA
ATOM      4  C   UNL     1       7.164  -1.384   0.477  0.00  0.00    +0.000 A 
ATOM      5  C   UNL     1       6.468  -1.479   1.685  0.00  0.00    +0.000 A 
ATOM      6 CL   UNL     1       7.254  -1.590   3.215  0.00  0.00    +0.000 Cl
ATOM      7  C   UNL     1       5.071  -1.469   1.662  0.00  0.00    +0.000 A 
ENDROOT
BRANCH   1   8
ATOM      8  C   UNL     1       2.887  -1.354   0.387  0.00  0.00    +0.000 C 
BRANCH   8   9
ATOM      9  C   UNL     1       2.337   0.074   0.478  0.00  0.00    +0.000 C 
BRANCH   9  10
ATOM     10  N   UNL     1       0.877   0.076   0.428  0.00  0.00    +0.000 NA
ATOM     11  H   UNL     1       0.538   1.035   0.506  0.00  0.00    +0.000 HD
ATOM     12  H   UNL     1       0.501  -0.421   1.235  0.00  0.00    +0.000 HD
ENDBRANCH   9  10
ENDBRANCH   8   9
ENDBRANCH   1   8
BRANCH   4  13
ATOM     13  C   UNL     1       8.677  -1.403   0.403  0.00  0.00    +0.000 C 
BRANCH  13  14
ATOM     14  O   UNL     1       9.123  -2.757   0.317  0.00  0.00    +0.000 OA
BRANCH  14  15
ATOM     15  C   UNL     1      10.463  -2.980   0.197  0.00  0.00    +0.000 A 
ATOM     16  C   UNL     1      11.476  -2.028   0.158  0.00  0.00    +0.000 A 
ATOM     17  C   UNL     1      12.812  -2.440   0.059  0.00  0.00    +0.000 A 
ATOM     18  C   UNL     1      13.114  -3.803  -0.005  0.00  0.00    +0.000 A 
ATOM     19  N   UNL     1      12.130  -4.744   0.016  0.00  0.00    +0.000 NA
ATOM     20  C   UNL     1      10.848  -4.313   0.114  0.00  0.00    +0.000 A 
BRANCH  18  21
ATOM     21  C   UNL     1      14.563  -4.269  -0.094  0.00  0.00    +0.000 C 
ATOM     22  F   UNL     1      15.462  -3.238  -0.102  0.00  0.00    +0.000 F 
ATOM     23  F   UNL     1      14.937  -5.059   0.954  0.00  0.00    +0.000 F 
ATOM     24  F   UNL     1      14.831  -4.988  -1.222  0.00  0.00    +0.000 F 
ENDBRANCH  18  21
ENDBRANCH  14  15
ENDBRANCH  13  14
ENDBRANCH   4  13
TORSDOF 7
