REMARK  Name = 
REMARK  10 active torsions:
REMARK  status: ('A' for Active; 'I' for Inactive)
REMARK    1  A    between atoms: C_1  and  C_2
REMARK    2  A    between atoms: C_2  and  C_3
REMARK    3  A    between atoms: C_2  and  C_17
REMARK    4  A    between atoms: C_3  and  N_4
REMARK    5  A    between atoms: N_4  and  C_5
REMARK    6  A    between atoms: C_8  and  C_9
REMARK    7  A    between atoms: C_9  and  N_11
REMARK    8  A    between atoms: C_12  and  C_13
REMARK    9  A    between atoms: C_13  and  O_14
REMARK   10  A    between atoms: C_21  and  C_22
REMARK                            x       y       z     vdW  Elec       q    Type
REMARK                         _______ _______ _______ _____ _____    ______ ____
ROOT
ATOM      1  N   UNK     1       2.794   0.374   2.514  0.00  0.00    +0.000 N 
ATOM      2  H   UNK     1       1.787   0.515   2.561  0.00  0.00    +0.000 HD
ENDROOT
BRANCH   1   3
ATOM      3  C   UNK     1       3.312   0.008   3.764  0.00  0.00    +0.000 A 
ATOM      4  C   UNK     1       2.599   0.321   4.926  0.00  0.00    +0.000 A 
ATOM      5  C   UNK     1       3.103  -0.019   6.183  0.00  0.00    +0.000 A 
ATOM      6  C   UNK     1       4.351  -0.625   6.247  0.00  0.00    +0.000 A 
ATOM      7  N   UNK     1       5.109  -0.887   5.151  0.00  0.00    +0.000 NA
ATOM      8  C   UNK     1       4.579  -0.548   3.955  0.00  0.00    +0.000 A 
BRANCH   6   9
ATOM      9  C   UNK     1       4.918  -1.036   7.573  0.00  0.00    +0.000 C 
ATOM     10  O   UNK     1       4.169  -1.249   8.522  0.00  0.00    +0.000 OA
BRANCH   9  11
ATOM     11  N   UNK     1       6.293  -1.117   7.624  0.00  0.00    +0.000 NA
ATOM     12  C   UNK     1       6.779  -1.996   8.434  0.00  0.00    +0.000 C 
BRANCH  12  13
ATOM     13  C   UNK     1       8.274  -2.130   8.583  0.00  0.00    +0.000 C 
BRANCH  13  14
ATOM     14  O   UNK     1       8.714  -1.325   9.663  0.00  0.00    +0.000 OA
ATOM     15  H   UNK     1       8.537  -0.402   9.403  0.00  0.00    +0.000 HD
ENDBRANCH  13  14
ENDBRANCH  12  13
ENDBRANCH   9  11
ENDBRANCH   6   9
ENDBRANCH   1   3
BRANCH   1  16
ATOM     16  C   UNK     1       3.157  -0.470   1.378  0.00  0.00    +0.000 C 
BRANCH  16  18
ATOM     17  C   UNK     1       2.776   1.299  -0.447  0.00  0.00    +0.000 C 
ATOM     18  C   UNK     1       2.369   0.012   0.199  0.00  0.00    +0.000 C 
BRANCH  18  19
ATOM     19  C   UNK     1       1.021  -0.527  -0.028  0.00  0.00    +0.000 A 
ATOM     20  C   UNK     1      -0.082   0.335  -0.046  0.00  0.00    +0.000 A 
ATOM     21  C   UNK     1      -1.372  -0.167  -0.219  0.00  0.00    +0.000 A 
ATOM     22  C   UNK     1      -1.572  -1.534  -0.400  0.00  0.00    +0.000 A 
ATOM     23  C   UNK     1      -0.481  -2.415  -0.412  0.00  0.00    +0.000 A 
ATOM     24  C   UNK     1       0.813  -1.900  -0.211  0.00  0.00    +0.000 A 
BRANCH  23  25
ATOM     25  C   UNK     1      -0.680  -3.892  -0.650  0.00  0.00    +0.000 C 
ATOM     26  F   UNK     1      -1.981  -4.243  -0.846  0.00  0.00    +0.000 F 
ATOM     27  F   UNK     1      -0.006  -4.335  -1.748  0.00  0.00    +0.000 F 
ATOM     28  F   UNK     1      -0.240  -4.651   0.391  0.00  0.00    +0.000 F 
ENDBRANCH  23  25
ENDBRANCH  18  19
ENDBRANCH  16  18
ENDBRANCH   1  16
TORSDOF 9
