REMARK  Name = 
REMARK  12 active torsions:
REMARK  status: ('A' for Active; 'I' for Inactive)
REMARK    1  A    between atoms: C_1  and  C_2
REMARK    2  A    between atoms: N_4  and  C_5
REMARK    3  A    between atoms: C_7  and  C_8
REMARK    4  A    between atoms: C_8  and  C_9
REMARK    5  A    between atoms: C_9  and  C_10
REMARK    6  A    between atoms: C_9  and  C_11
REMARK    7  A    between atoms: C_9  and  C_12
REMARK    8  A    between atoms: C_12  and  N_13
REMARK    9  A    between atoms: CA_17  and  C_18
REMARK   10  A    between atoms: C_18  and  OXT_20
REMARK   11  A    between atoms: C_25  and  C_26
REMARK   12  A    between atoms: C_29  and  C_30
REMARK                            x       y       z     vdW  Elec       q    Type
REMARK                         _______ _______ _______ _____ _____    ______ ____
ROOT
ATOM      1  C   UNL     1      -1.212   1.540  -5.426  0.00  0.00    +0.000 C 
ENDROOT
BRANCH   1   4
ATOM      2  C   UNL     1       1.986   1.502  -3.241  0.00  0.00    +0.000 A 
ATOM      3  C   UNL     1       0.760   1.148  -3.852  0.00  0.00    +0.000 A 
ATOM      4  C   UNL     1       0.101   1.968  -4.790  0.00  0.00    +0.000 A 
ATOM      5  C   UNL     1       0.679   3.196  -5.119  0.00  0.00    +0.000 A 
ATOM      6  C   UNL     1       1.893   3.575  -4.548  0.00  0.00    +0.000 A 
ATOM      7  C   UNL     1       2.552   2.741  -3.629  0.00  0.00    +0.000 A 
BRANCH   2  11
ATOM      8  C   UNL     1       4.817  -1.238  -3.374  0.00  0.00    +0.000 C 
ATOM      9  C   UNL     1       3.876  -1.455  -2.188  0.00  0.00    +0.000 C 
ATOM     10  C   UNL     1       2.483  -0.827  -2.441  0.00  0.00    +0.000 C 
ATOM     11  N   UNL     1       2.592   0.637  -2.347  0.00  0.00    +0.000 N 
ATOM     12  C   UNL     1       3.137   1.076  -1.049  0.00  0.00    +0.000 C 
ATOM     13  C   UNL     1       4.533   0.445  -0.860  0.00  0.00    +0.000 C 
ATOM     14  C   UNL     1       5.107   0.803   0.504  0.00  0.00    +0.000 C 
ATOM     15  O   UNL     1       4.464  -0.995  -0.952  0.00  0.00    +0.000 OA
ENDBRANCH   2  11
BRANCH   7  16
ATOM     16  C   UNL     1       3.845   3.178  -3.175  0.00  0.00    +0.000 C 
ATOM     17  N   UNL     1       4.883   3.559  -2.807  0.00  0.00    +0.000 NA
ENDBRANCH   7  16
ENDBRANCH   1   4
BRANCH   1  18
ATOM     18  C   UNL     1      -1.132   0.716  -6.754  0.00  0.00    +0.000 C 
ATOM     19  C   UNL     1      -0.365   1.505  -7.836  0.00  0.00    +0.000 C 
ATOM     20  C   UNL     1      -0.448  -0.642  -6.492  0.00  0.00    +0.000 C 
BRANCH  18  21
ATOM     21  C   UNL     1      -2.589   0.463  -7.269  0.00  0.00    +0.000 C 
BRANCH  21  22
ATOM     22  N   UNL     1      -2.581  -0.262  -8.532  0.00  0.00    +0.000 N 
ATOM     23  C   UNL     1      -3.723  -0.591  -9.218  0.00  0.00    +0.000 A 
ATOM     24  C   UNL     1      -4.893   0.169  -9.253  0.00  0.00    +0.000 A 
ATOM     25  N   UNL     1      -5.986  -0.147 -10.000  0.00  0.00    +0.000 NA
ATOM     26  CA  UNL     1      -5.840  -1.278 -10.750  0.00  0.00    +0.000 A 
ATOM     27  C   UNL     1      -4.689  -2.041 -10.743  0.00  0.00    +0.000 A 
ATOM     28  N   UNL     1      -3.620  -1.711  -9.973  0.00  0.00    +0.000 NA
ATOM     29  H   UNL     1      -1.952  -1.060  -8.600  0.00  0.00    +0.000 HD
BRANCH  26  30
ATOM     30  C   UNL     1      -6.994  -1.658 -11.597  0.00  0.00    +0.000 C 
ATOM     31  O   UNL     1      -7.032  -2.632 -12.326  0.00  0.00    +0.000 OA
BRANCH  30  32
ATOM     32  OXT UNL     1      -8.005  -0.768 -11.444  0.00  0.00    +0.000 OA
ATOM     33  HXT UNL     1      -7.727  -0.070 -10.804  0.00  0.00    +0.000 HD
ENDBRANCH  30  32
ENDBRANCH  26  30
ENDBRANCH  21  22
ENDBRANCH  18  21
ENDBRANCH   1  18
TORSDOF 8
