REMARK  Name = 
REMARK  5 active torsions:
REMARK  status: ('A' for Active; 'I' for Inactive)
REMARK    1  A    between atoms: C_2  and  C_4
REMARK    2  A    between atoms: C_8  and  N_9
REMARK    3  A    between atoms: N_9  and  C_10
REMARK    4  A    between atoms: C_10  and  C_11
REMARK    5  A    between atoms: C_15  and  C_16
REMARK                            x       y       z     vdW  Elec       q    Type
REMARK                         _______ _______ _______ _____ _____    ______ ____
ROOT
ATOM      1  C   UNL     1       6.321   0.446   3.235  0.00  0.00    +0.000 C 
ENDROOT
BRANCH   1   2
ATOM      2  C   UNL     1       7.342   0.706   4.322  0.00  0.00    +0.000 A 
ATOM      3  C   UNL     1       7.685   2.014   4.677  0.00  0.00    +0.000 A 
ATOM      4  C   UNL     1       8.565   2.246   5.731  0.00  0.00    +0.000 A 
ATOM      5  C   UNL     1       9.087   1.172   6.458  0.00  0.00    +0.000 A 
ATOM      6  C   UNL     1       8.767  -0.160   6.136  0.00  0.00    +0.000 A 
ATOM      7  C   UNL     1       7.930  -0.364   5.020  0.00  0.00    +0.000 A 
BRANCH   6   8
ATOM      8  C   UNL     1       9.186  -1.285   7.011  0.00  0.00    +0.000 A 
ATOM      9  C   UNL     1      10.363  -1.244   7.785  0.00  0.00    +0.000 A 
ATOM     10  C   UNL     1      10.667  -2.247   8.718  0.00  0.00    +0.000 A 
ATOM     11  C   UNL     1       9.810  -3.328   8.880  0.00  0.00    +0.000 A 
ATOM     12  C   UNL     1       8.670  -3.408   8.099  0.00  0.00    +0.000 A 
ATOM     13  F   UNL     1       7.841  -4.446   8.246  0.00  0.00    +0.000 F 
ATOM     14  C   UNL     1       8.356  -2.409   7.178  0.00  0.00    +0.000 A 
ENDBRANCH   6   8
ENDBRANCH   1   2
BRANCH   1  15
ATOM     15  N   UNL     1       6.974   0.465   1.939  0.00  0.00    +0.000 N 
ATOM     16  H   UNL     1       7.777  -0.158   1.914  0.00  0.00    +0.000 HD
BRANCH  15  21
ATOM     17  C   UNL     1       4.081  -0.127  -0.151  0.00  0.00    +0.000 A 
ATOM     18  C   UNL     1       4.663  -0.167  -1.409  0.00  0.00    +0.000 A 
ATOM     19  N   UNL     1       5.994  -0.008  -1.587  0.00  0.00    +0.000 NA
ATOM     20  C   UNL     1       6.699   0.192  -0.445  0.00  0.00    +0.000 A 
ATOM     21  C   UNL     1       6.134   0.220   0.840  0.00  0.00    +0.000 A 
ATOM     22  N   UNL     1       4.798   0.073   0.998  0.00  0.00    +0.000 NA
BRANCH  17  24
ATOM     23  N   UNL     1       2.090  -0.221   1.231  0.00  0.00    +0.000 N 
ATOM     24  C   UNL     1       2.608  -0.314  -0.030  0.00  0.00    +0.000 C 
ATOM     25  O   UNL     1       1.894  -0.537  -1.000  0.00  0.00    +0.000 OA
ATOM     26  H   UNL     1       1.093  -0.320   1.365  0.00  0.00    +0.000 HD
ATOM     27  H   UNL     1       2.692  -0.003   2.015  0.00  0.00    +0.000 HD
ENDBRANCH  17  24
ENDBRANCH  15  21
ENDBRANCH   1  15
TORSDOF 5
