REMARK  Name = 
REMARK  5 active torsions:
REMARK  status: ('A' for Active; 'I' for Inactive)
REMARK    1  A    between atoms: N_1  and  C_2
REMARK    2  A    between atoms: C_2  and  C_3
REMARK    3  A    between atoms: C_6  and  C_7
REMARK    4  A    between atoms: C_7  and  N_8
REMARK    5  A    between atoms: C_13  and  C_14
REMARK                            x       y       z     vdW  Elec       q    Type
REMARK                         _______ _______ _______ _____ _____    ______ ____
ROOT
ATOM      1  N   UNL     1       2.388  -5.353   3.833  0.00  0.00    +0.000 N 
ATOM      2  C   UNL     1       1.262  -6.028   4.236  0.00  0.00    +0.000 A 
ATOM      3  C   UNL     1       1.372  -7.332   3.801  0.00  0.00    +0.000 A 
ATOM      4  C   UNL     1       2.609  -7.457   3.114  0.00  0.00    +0.000 A 
ATOM      5  C   UNL     1       3.270  -8.491   2.428  0.00  0.00    +0.000 A 
ATOM      6  C   UNL     1       4.512  -8.202   1.849  0.00  0.00    +0.000 A 
ATOM      7  C   UNL     1       5.041  -6.924   2.023  0.00  0.00    +0.000 A 
ATOM      8  N   UNL     1       4.451  -5.898   2.689  0.00  0.00    +0.000 NA
ATOM      9  C   UNL     1       3.241  -6.217   3.188  0.00  0.00    +0.000 A 
ENDROOT
BRANCH   6  10
ATOM     10  C   UNL     1       5.294  -9.172   1.043  0.00  0.00    +0.000 C 
ATOM     11  N   UNL     1       4.773 -10.417   0.824  0.00  0.00    +0.000 N 
ATOM     12  O   UNL     1       6.382  -8.872   0.565  0.00  0.00    +0.000 OA
ATOM     13  H   UNL     1       3.878 -10.742   1.149  0.00  0.00    +0.000 HD
ATOM     14  H   UNL     1       5.317 -11.040   0.240  0.00  0.00    +0.000 HD
ENDBRANCH   6  10
BRANCH   1  15
ATOM     15  C   UNL     1       2.651  -3.948   4.088  0.00  0.00    +0.000 C 
BRANCH  15  19
ATOM     16  C   UNL     1       3.052  -0.770   1.127  0.00  0.00    +0.000 C 
ATOM     17  C   UNL     1       2.695  -2.164   0.595  0.00  0.00    +0.000 C 
ATOM     18  C   UNL     1       2.888  -3.260   1.640  0.00  0.00    +0.000 C 
ATOM     19  C   UNL     1       2.172  -2.985   2.975  0.00  0.00    +0.000 C 
ATOM     20  C   UNL     1       2.368  -1.536   3.461  0.00  0.00    +0.000 C 
ATOM     21  C   UNL     1       2.187  -0.490   2.364  0.00  0.00    +0.000 C 
BRANCH  16  22
ATOM     22  C   UNL     1       4.573  -0.645   1.367  0.00  0.00    +0.000 C 
BRANCH  22  23
ATOM     23  N   UNL     1       4.964   0.689   1.812  0.00  0.00    +0.000 NA
ATOM     24  H   UNL     1       5.980   0.724   1.900  0.00  0.00    +0.000 HD
ATOM     25  H   UNL     1       4.602   0.858   2.749  0.00  0.00    +0.000 HD
ENDBRANCH  22  23
ENDBRANCH  16  22
ENDBRANCH  15  19
ENDBRANCH   1  15
TORSDOF 5
