REMARK  Name = 
REMARK  5 active torsions:
REMARK  status: ('A' for Active; 'I' for Inactive)
REMARK    1  A    between atoms: C_1  and  C_2
REMARK    2  A    between atoms: C_2  and  C_3
REMARK    3  A    between atoms: C_2  and  C_14
REMARK    4  A    between atoms: C_3  and  N_4
REMARK    5  A    between atoms: C_9  and  C_10
REMARK                            x       y       z     vdW  Elec       q    Type
REMARK                         _______ _______ _______ _____ _____    ______ ____
ROOT
ATOM      1  N   UNL     1       2.917   0.280  -2.327  0.00  0.00    +0.000 N 
ATOM      2  C   UNL     1       3.541   0.919  -3.390  0.00  0.00    +0.000 A 
ATOM      3  N   UNL     1       2.953   0.764  -4.584  0.00  0.00    +0.000 NA
ATOM      4  C   UNL     1       3.541   1.338  -5.652  0.00  0.00    +0.000 A 
ATOM      5  C   UNL     1       4.694   2.069  -5.572  0.00  0.00    +0.000 A 
ATOM      6  C   UNL     1       5.208   2.184  -4.303  0.00  0.00    +0.000 A 
ATOM      7  N   UNL     1       4.654   1.631  -3.197  0.00  0.00    +0.000 NA
ATOM      8  H   UNL     1       1.984   0.073  -2.660  0.00  0.00    +0.000 HD
ENDROOT
BRANCH   6   9
ATOM      9  C   UNL     1       6.466   2.965  -4.087  0.00  0.00    +0.000 C 
ATOM     10  N   UNL     1       6.893   3.040  -2.790  0.00  0.00    +0.000 N 
ATOM     11  O   UNL     1       7.075   3.499  -5.002  0.00  0.00    +0.000 OA
ATOM     12  H   UNL     1       6.393   2.530  -2.068  0.00  0.00    +0.000 HD
ATOM     13  H   UNL     1       7.764   3.502  -2.576  0.00  0.00    +0.000 HD
ENDBRANCH   6   9
BRANCH   1  14
ATOM     14  C   UNL     1       2.991   0.997  -1.076  0.00  0.00    +0.000 C 
BRANCH  14  16
ATOM     15  C   UNL     1       0.832  -0.130  -0.194  0.00  0.00    +0.000 C 
ATOM     16  C   UNL     1       2.284   0.211   0.001  0.00  0.00    +0.000 C 
BRANCH  16  17
ATOM     17  C   UNL     1       2.797   0.417   1.423  0.00  0.00    +0.000 C 
ATOM     18  C   UNL     1       2.576  -0.805   2.337  0.00  0.00    +0.000 C 
ATOM     19  C   UNL     1       2.992  -0.532   3.783  0.00  0.00    +0.000 C 
ATOM     20  C   UNL     1       2.296   0.707   4.333  0.00  0.00    +0.000 C 
ATOM     21  C   UNL     1       2.608   1.926   3.475  0.00  0.00    +0.000 C 
ATOM     22  C   UNL     1       2.198   1.701   2.023  0.00  0.00    +0.000 C 
ENDBRANCH  16  17
ENDBRANCH  14  16
ENDBRANCH   1  14
TORSDOF 4
