REMARK  Name = 
REMARK  7 active torsions:
REMARK  status: ('A' for Active; 'I' for Inactive)
REMARK    1  A    between atoms: C_2  and  C_3
REMARK    2  A    between atoms: C_3  and  N_4
REMARK    3  A    between atoms: C_3  and  C_17
REMARK    4  A    between atoms: C_5  and  C_7
REMARK    5  A    between atoms: C_20  and  O_21
REMARK    6  A    between atoms: O_21  and  C_22
REMARK    7  A    between atoms: C_22  and  C_23
REMARK                            x       y       z     vdW  Elec       q    Type
REMARK                         _______ _______ _______ _____ _____    ______ ____
ROOT
ATOM      1  C   UNL     1       3.648  -0.067   0.083  0.00  0.00    +0.000 C 
ENDROOT
BRANCH   1   2
ATOM      2  C   UNL     1       4.151   1.143  -0.696  0.00  0.00    +0.000 A 
ATOM      3  C   UNL     1       3.571   2.402  -0.471  0.00  0.00    +0.000 A 
ATOM      4  C   UNL     1       4.013   3.531  -1.164  0.00  0.00    +0.000 A 
ATOM      5  C   UNL     1       5.049   3.427  -2.091  0.00  0.00    +0.000 A 
ATOM      6  C   UNL     1       5.594   2.172  -2.368  0.00  0.00    +0.000 A 
ATOM      7  C   UNL     1       5.149   1.040  -1.681  0.00  0.00    +0.000 A 
BRANCH   5   8
ATOM      8  O   UNL     1       5.449   4.603  -2.668  0.00  0.00    +0.000 OA
BRANCH   8   9
ATOM      9  C   UNL     1       6.784   4.595  -3.178  0.00  0.00    +0.000 C 
BRANCH   9  10
ATOM     10  C   UNL     1       7.336   5.992  -3.318  0.00  0.00    +0.000 A 
ATOM     11  C   UNL     1       6.875   7.057  -2.539  0.00  0.00    +0.000 A 
ATOM     12  C   UNL     1       7.498   8.288  -2.661  0.00  0.00    +0.000 A 
ATOM     13  N   UNL     1       8.539   8.527  -3.487  0.00  0.00    +0.000 NA
ATOM     14  C   UNL     1       8.975   7.487  -4.226  0.00  0.00    +0.000 A 
ATOM     15  C   UNL     1       8.417   6.220  -4.176  0.00  0.00    +0.000 A 
ENDBRANCH   9  10
ENDBRANCH   8   9
ENDBRANCH   5   8
ENDBRANCH   1   2
BRANCH   1  16
ATOM     16  N   UNL     1       2.551  -0.687  -0.637  0.00  0.00    +0.000 N 
ATOM     17  C   UNL     1       1.247  -0.326  -0.442  0.00  0.00    +0.000 C 
ATOM     18  O   UNL     1       0.926   0.573   0.330  0.00  0.00    +0.000 OA
ATOM     19  H   UNL     1       2.775  -1.482  -1.226  0.00  0.00    +0.000 HD
BRANCH  17  20
ATOM     20  C   UNL     1       0.250  -1.051  -1.234  0.00  0.00    +0.000 A 
ATOM     21  C   UNL     1      -0.969  -0.459  -1.532  0.00  0.00    +0.000 A 
ATOM     22  S   UNL     1      -1.999  -1.455  -2.460  0.00  0.00    +0.000 S 
ATOM     23  C   UNL     1      -0.868  -2.725  -2.457  0.00  0.00    +0.000 A 
ATOM     24  N   UNL     1      -1.142  -3.912  -3.064  0.00  0.00    +0.000 NA
ATOM     25  C   UNL     1      -0.208  -4.799  -2.948  0.00  0.00    +0.000 A 
ATOM     26  N   UNL     1       0.977  -4.604  -2.287  0.00  0.00    +0.000 N 
ATOM     27  C   UNL     1       1.321  -3.403  -1.715  0.00  0.00    +0.000 A 
ATOM     28  O   UNL     1       2.433  -3.217  -1.233  0.00  0.00    +0.000 OA
ATOM     29  C   UNL     1       0.291  -2.385  -1.782  0.00  0.00    +0.000 A 
ATOM     30  H   UNL     1       1.678  -5.330  -2.256  0.00  0.00    +0.000 HD
ENDBRANCH  17  20
ENDBRANCH   1  16
BRANCH   1  32
ATOM     31  N   UNL     1       5.553  -1.847   0.555  0.00  0.00    +0.000 NA
ATOM     32  C   UNL     1       4.716  -1.063   0.367  0.00  0.00    +0.000 C 
ENDBRANCH   1  32
TORSDOF 7
