REMARK  Name = 
REMARK  9 active torsions:
REMARK  status: ('A' for Active; 'I' for Inactive)
REMARK    1  A    between atoms: C_1  and  O_2
REMARK    2  A    between atoms: O_2  and  C_3
REMARK    3  A    between atoms: C_10  and  C_11
REMARK    4  A    between atoms: N_13  and  C_14
REMARK    5  A    between atoms: C_14  and  C_15
REMARK    6  A    between atoms: C_18  and  C_19
REMARK    7  A    between atoms: C_19  and  O_20
REMARK    8  A    between atoms: O_20  and  C_21
REMARK    9  A    between atoms: C_21  and  C_22
REMARK                            x       y       z     vdW  Elec       q    Type
REMARK                         _______ _______ _______ _____ _____    ______ ____
ROOT
ATOM      1  C   UNL     1       2.562   3.294  -0.330  0.00  0.00    +0.000 C 
ENDROOT
BRANCH   1   2
ATOM      2  C   UNL     1       1.340   3.048  -1.187  0.00  0.00    +0.000 A 
ATOM      3  C   UNL     1       1.130   1.803  -1.795  0.00  0.00    +0.000 A 
ATOM      4  C   UNL     1      -0.062   1.532  -2.482  0.00  0.00    +0.000 A 
ATOM      5  C   UNL     1      -1.061   2.507  -2.607  0.00  0.00    +0.000 A 
ATOM      6  C   UNL     1      -0.813   3.779  -2.071  0.00  0.00    +0.000 A 
ATOM      7  C   UNL     1       0.374   4.046  -1.370  0.00  0.00    +0.000 A 
BRANCH   5   8
ATOM      8  C   UNL     1      -2.362   2.196  -3.314  0.00  0.00    +0.000 C 
BRANCH   8   9
ATOM      9  O   UNL     1      -3.009   1.098  -2.670  0.00  0.00    +0.000 OA
BRANCH   9  10
ATOM     10  C   UNL     1      -4.253   0.762  -3.290  0.00  0.00    +0.000 C 
BRANCH  10  11
ATOM     11  C   UNL     1      -4.891  -0.404  -2.573  0.00  0.00    +0.000 A 
ATOM     12  C   UNL     1      -4.737  -0.577  -1.194  0.00  0.00    +0.000 A 
ATOM     13  C   UNL     1      -5.345  -1.662  -0.581  0.00  0.00    +0.000 A 
ATOM     14  N   UNL     1      -6.105  -2.566  -1.233  0.00  0.00    +0.000 NA
ATOM     15  C   UNL     1      -6.264  -2.372  -2.559  0.00  0.00    +0.000 A 
ATOM     16  C   UNL     1      -5.695  -1.319  -3.262  0.00  0.00    +0.000 A 
ENDBRANCH  10  11
ENDBRANCH   9  10
ENDBRANCH   8   9
ENDBRANCH   5   8
ENDBRANCH   1   2
BRANCH   1  19
ATOM     17  C   UNL     1       4.866   4.166  -0.513  0.00  0.00    +0.000 C 
ATOM     18  O   UNL     1       5.076   3.978   0.684  0.00  0.00    +0.000 OA
ATOM     19  N   UNL     1       3.660   3.850  -1.082  0.00  0.00    +0.000 N 
ATOM     20  H   UNL     1       3.515   3.987  -2.070  0.00  0.00    +0.000 HD
BRANCH  17  28
ATOM     21  C   UNL     1       4.970   4.867  -3.872  0.00  0.00    +0.000 A 
ATOM     22  N   UNL     1       5.233   5.302  -5.121  0.00  0.00    +0.000 NA
ATOM     23  C   UNL     1       6.409   5.895  -5.339  0.00  0.00    +0.000 A 
ATOM     24  N   UNL     1       7.381   6.101  -4.451  0.00  0.00    +0.000 NA
ATOM     25  C   UNL     1       7.068   5.665  -3.220  0.00  0.00    +0.000 A 
ATOM     26  S   UNL     1       8.190   5.830  -1.956  0.00  0.00    +0.000 S 
ATOM     27  C   UNL     1       7.121   5.122  -0.844  0.00  0.00    +0.000 A 
ATOM     28  C   UNL     1       5.893   4.754  -1.392  0.00  0.00    +0.000 A 
ATOM     29  C   UNL     1       5.881   5.056  -2.825  0.00  0.00    +0.000 A 
BRANCH  21  31
ATOM     30  C   UNL     1       3.220   3.617  -4.798  0.00  0.00    +0.000 C 
ATOM     31  O   UNL     1       3.758   4.256  -3.643  0.00  0.00    +0.000 OA
ENDBRANCH  21  31
ENDBRANCH  17  28
ENDBRANCH   1  19
TORSDOF 8
