REMARK  Name = 
REMARK  8 active torsions:
REMARK  status: ('A' for Active; 'I' for Inactive)
REMARK    1  A    between atoms: C_1  and  C_2
REMARK    2  A    between atoms: C_2  and  N_3
REMARK    3  A    between atoms: C_2  and  C_25
REMARK    4  A    between atoms: N_3  and  C_4
REMARK    5  A    between atoms: C_4  and  C_5
REMARK    6  A    between atoms: C_8  and  C_9
REMARK    7  A    between atoms: C_9  and  N_10
REMARK    8  A    between atoms: C_11  and  C_13
REMARK                            x       y       z     vdW  Elec       q    Type
REMARK                         _______ _______ _______ _____ _____    ______ ____
ROOT
ATOM      1  C   UNL     1       3.047   3.232   1.848  0.00  0.00    +0.000 A 
ATOM      2  C   UNL     1       2.752   4.586   1.701  0.00  0.00    +0.000 A 
ATOM      3  C   UNL     1       3.075   5.464   2.734  0.00  0.00    +0.000 A 
ATOM      4  C   UNL     1       3.692   4.978   3.889  0.00  0.00    +0.000 A 
ATOM      5  C   UNL     1       3.963   3.617   3.940  0.00  0.00    +0.000 A 
ATOM      6  N   UNL     1       3.637   2.740   2.966  0.00  0.00    +0.000 NA
ENDROOT
BRANCH   1   7
ATOM      7  C   UNL     1       2.644   2.223   0.789  0.00  0.00    +0.000 C 
BRANCH   7   8
ATOM      8  N   UNL     1       3.232   2.469  -0.532  0.00  0.00    +0.000 NA
ATOM      9  H   UNL     1       2.972   3.398  -0.858  0.00  0.00    +0.000 HD
BRANCH   8  11
ATOM     10  C   UNL     1       3.146   0.050  -1.208  0.00  0.00    +0.000 C 
ATOM     11  C   UNL     1       2.769   1.497  -1.554  0.00  0.00    +0.000 C 
BRANCH  11  12
ATOM     12  C   UNL     1       3.297   1.862  -2.949  0.00  0.00    +0.000 A 
ATOM     13  N   UNL     1       2.584   2.760  -3.666  0.00  0.00    +0.000 NA
ATOM     14  C   UNL     1       3.088   3.102  -4.869  0.00  0.00    +0.000 A 
ATOM     15  C   UNL     1       4.264   2.601  -5.374  0.00  0.00    +0.000 A 
ATOM     16  C   UNL     1       4.920   1.704  -4.568  0.00  0.00    +0.000 A 
ATOM     17  N   UNL     1       4.464   1.321  -3.364  0.00  0.00    +0.000 NA
ENDBRANCH  11  12
ENDBRANCH   8  11
ENDBRANCH   7   8
ENDBRANCH   1   7
BRANCH   4  18
ATOM     18  C   UNL     1       4.050   5.866   5.046  0.00  0.00    +0.000 C 
BRANCH  18  19
ATOM     19  N   UNL     1       4.899   6.971   4.673  0.00  0.00    +0.000 N 
ATOM     20  C   UNL     1       6.186   6.771   4.233  0.00  0.00    +0.000 C 
ATOM     21  O   UNL     1       6.673   5.657   4.075  0.00  0.00    +0.000 OA
ATOM     22  H   UNL     1       4.676   7.869   5.090  0.00  0.00    +0.000 HD
BRANCH  20  23
ATOM     23  C   UNL     1       6.941   7.984   3.903  0.00  0.00    +0.000 A 
ATOM     24  C   UNL     1       7.921   7.938   2.920  0.00  0.00    +0.000 A 
ATOM     25  S   UNL     1       8.687   9.439   2.657  0.00  0.00    +0.000 S 
ATOM     26  C   UNL     1       7.765  10.186   3.876  0.00  0.00    +0.000 A 
ATOM     27  N   UNL     1       7.951  11.496   4.192  0.00  0.00    +0.000 NA
ATOM     28  C   UNL     1       7.207  11.922   5.158  0.00  0.00    +0.000 A 
ATOM     29  N   UNL     1       6.287  11.160   5.831  0.00  0.00    +0.000 N 
ATOM     30  C   UNL     1       6.031   9.845   5.515  0.00  0.00    +0.000 A 
ATOM     31  O   UNL     1       5.143   9.213   6.078  0.00  0.00    +0.000 OA
ATOM     32  C   UNL     1       6.865   9.313   4.457  0.00  0.00    +0.000 A 
ATOM     33  H   UNL     1       5.723  11.563   6.566  0.00  0.00    +0.000 HD
ENDBRANCH  20  23
ENDBRANCH  18  19
ENDBRANCH   4  18
TORSDOF 7
