REMARK  Name = 
REMARK  7 active torsions:
REMARK  status: ('A' for Active; 'I' for Inactive)
REMARK    1  A    between atoms: C_2  and  C_4
REMARK    2  A    between atoms: C_7  and  O_8
REMARK    3  A    between atoms: O_8  and  C_9
REMARK    4  A    between atoms: C_9  and  C_10
REMARK    5  A    between atoms: C_10  and  C_13
REMARK    6  A    between atoms: C_17  and  C_18
REMARK    7  A    between atoms: C_18  and  C_19
REMARK                            x       y       z     vdW  Elec       q    Type
REMARK                         _______ _______ _______ _____ _____    ______ ____
ROOT
ATOM      1  C   UNL     1       6.130   3.606   5.869  0.00  0.00    +0.000 C 
ATOM      2  F   UNL     1       5.577   4.735   5.334  0.00  0.00    +0.000 F 
ATOM      3  F   UNL     1       5.653   2.572   5.115  0.00  0.00    +0.000 F 
ENDROOT
BRANCH   1   4
ATOM      4  C   UNL     1       5.789   3.449   7.342  0.00  0.00    +0.000 A 
ATOM      5  C   UNL     1       5.653   2.177   7.910  0.00  0.00    +0.000 A 
ATOM      6  C   UNL     1       5.396   2.041   9.275  0.00  0.00    +0.000 A 
ATOM      7  C   UNL     1       5.296   3.173  10.089  0.00  0.00    +0.000 A 
ATOM      8  C   UNL     1       5.441   4.458   9.546  0.00  0.00    +0.000 A 
ATOM      9  C   UNL     1       5.672   4.582   8.168  0.00  0.00    +0.000 A 
BRANCH   8  10
ATOM     10  C   UNL     1       5.344   5.696  10.413  0.00  0.00    +0.000 C 
BRANCH  10  11
ATOM     11  C   UNL     1       6.707   6.101  10.971  0.00  0.00    +0.000 C 
ATOM     12  C   UNL     1       6.702   7.403  11.799  0.00  0.00    +0.000 C 
ATOM     13  N   UNL     1       7.829   7.919  11.017  0.00  0.00    +0.000 NA
ATOM     14  C   UNL     1       7.717   6.819  10.052  0.00  0.00    +0.000 C 
ATOM     15  H   UNL     1       8.713   7.938  11.525  0.00  0.00    +0.000 HD
ENDBRANCH  10  11
ENDBRANCH   8  10
ENDBRANCH   1   4
BRANCH   1  16
ATOM     16  C   UNL     1       7.652   3.677   5.716  0.00  0.00    +0.000 C 
BRANCH  16  17
ATOM     17  O   UNL     1       8.056   3.803   4.340  0.00  0.00    +0.000 OA
BRANCH  17  21
ATOM     18  C   UNL     1      12.155   4.006   3.998  0.00  0.00    +0.000 A 
ATOM     19  C   UNL     1      11.367   4.053   2.843  0.00  0.00    +0.000 A 
ATOM     20  C   UNL     1       9.977   3.980   2.963  0.00  0.00    +0.000 A 
ATOM     21  C   UNL     1       9.432   3.863   4.233  0.00  0.00    +0.000 A 
ATOM     22  N   UNL     1      10.175   3.807   5.359  0.00  0.00    +0.000 NA
ATOM     23  C   UNL     1      11.518   3.869   5.217  0.00  0.00    +0.000 A 
BRANCH  18  25
ATOM     24  N   UNL     1      14.216   4.770   2.967  0.00  0.00    +0.000 N 
ATOM     25  C   UNL     1      13.628   4.081   3.990  0.00  0.00    +0.000 C 
ATOM     26  O   UNL     1      14.300   3.587   4.892  0.00  0.00    +0.000 OA
ATOM     27  H   UNL     1      15.214   4.919   3.053  0.00  0.00    +0.000 HD
ATOM     28  H   UNL     1      13.698   5.406   2.379  0.00  0.00    +0.000 HD
ENDBRANCH  18  25
ENDBRANCH  17  21
ENDBRANCH  16  17
ENDBRANCH   1  16
TORSDOF 7
