REMARK  Name = 
REMARK  5 active torsions:
REMARK  status: ('A' for Active; 'I' for Inactive)
REMARK    1  A    between atoms: N_1  and  C_2
REMARK    2  A    between atoms: C_2  and  C_3
REMARK    3  A    between atoms: C_3  and  C_4
REMARK    4  A    between atoms: C_8  and  C_9
REMARK    5  A    between atoms: C_9  and  N_10
REMARK                            x       y       z     vdW  Elec       q    Type
REMARK                         _______ _______ _______ _____ _____    ______ ____
ROOT
ATOM      1  C   UNL     1       4.577   0.037   1.503  0.00  0.00    +0.000 A 
ATOM      2  C   UNL     1       5.360   1.196   1.446  0.00  0.00    +0.000 A 
ATOM      3  C   UNL     1       6.747   1.120   1.575  0.00  0.00    +0.000 A 
ATOM      4  C   UNL     1       7.364  -0.117   1.752  0.00  0.00    +0.000 A 
ATOM      5  C   UNL     1       6.602  -1.293   1.797  0.00  0.00    +0.000 A 
ATOM      6  C   UNL     1       5.208  -1.205   1.673  0.00  0.00    +0.000 A 
ENDROOT
BRANCH   1   7
ATOM      7  C   UNL     1       3.072   0.120   1.379  0.00  0.00    +0.000 C 
BRANCH   7   8
ATOM      8  C   UNL     1       2.594   0.109  -0.076  0.00  0.00    +0.000 C 
BRANCH   8   9
ATOM      9  N   UNL     1       1.133   0.157  -0.137  0.00  0.00    +0.000 NA
ATOM     10  H   UNL     1       0.833   0.181  -1.111  0.00  0.00    +0.000 HD
ATOM     11  H   UNL     1       0.798   1.022   0.285  0.00  0.00    +0.000 HD
ENDBRANCH   8   9
ENDBRANCH   7   8
ENDBRANCH   1   7
BRANCH   5  12
ATOM     12  C   UNL     1       7.271  -2.633   1.924  0.00  0.00    +0.000 C 
BRANCH  12  13
ATOM     13  N   UNL     1       7.425  -3.128   3.287  0.00  0.00    +0.000 N 
ATOM     14  C   UNL     1       7.922  -2.416   4.345  0.00  0.00    +0.000 A 
ATOM     15  N   UNL     1       8.429  -3.204   5.267  0.00  0.00    +0.000 NA
ATOM     16  C   UNL     1       8.205  -4.480   4.812  0.00  0.00    +0.000 A 
ATOM     17  C   UNL     1       8.615  -5.707   5.352  0.00  0.00    +0.000 A 
ATOM     18  C   UNL     1       8.249  -6.889   4.696  0.00  0.00    +0.000 A 
ATOM     19  C   UNL     1       7.456  -6.852   3.548  0.00  0.00    +0.000 A 
ATOM     20  C   UNL     1       7.054  -5.637   2.983  0.00  0.00    +0.000 A 
ATOM     21  C   UNL     1       7.481  -4.466   3.622  0.00  0.00    +0.000 A 
ENDBRANCH  12  13
ENDBRANCH   5  12
TORSDOF 5
