REMARK  Name = 
REMARK  8 active torsions:
REMARK  status: ('A' for Active; 'I' for Inactive)
REMARK    1  A    between atoms: C_1  and  C_2
REMARK    2  A    between atoms: C_2  and  N_3
REMARK    3  A    between atoms: C_2  and  C_17
REMARK    4  A    between atoms: C_4  and  C_6
REMARK    5  A    between atoms: N_12  and  C_13
REMARK    6  A    between atoms: C_20  and  C_21
REMARK    7  A    between atoms: C_21  and  N_22
REMARK    8  A    between atoms: C_23  and  C_25
REMARK                            x       y       z     vdW  Elec       q    Type
REMARK                         _______ _______ _______ _____ _____    ______ ____
ROOT
ATOM      1  C   UNL     1       0.902   0.060  -0.050  0.00  0.00    +0.000 C 
ATOM      2  C   UNL     1       2.432   0.047  -0.045  0.00  0.00    +0.000 C 
ENDROOT
BRANCH   2   3
ATOM      3  C   UNL     1       2.998  -0.944  -1.051  0.00  0.00    +0.000 A 
ATOM      4  C   UNL     1       3.848  -0.494  -2.070  0.00  0.00    +0.000 A 
ATOM      5  C   UNL     1       4.428  -1.394  -2.967  0.00  0.00    +0.000 A 
ATOM      6  C   UNL     1       4.169  -2.767  -2.870  0.00  0.00    +0.000 A 
ATOM      7  C   UNL     1       3.323  -3.224  -1.851  0.00  0.00    +0.000 A 
ATOM      8  C   UNL     1       2.738  -2.322  -0.959  0.00  0.00    +0.000 A 
BRANCH   6   9
ATOM      9  C   UNL     1       4.822  -3.737  -3.817  0.00  0.00    +0.000 C 
BRANCH   9  10
ATOM     10  N   UNL     1       6.103  -4.177  -3.320  0.00  0.00    +0.000 N 
ATOM     11  C   UNL     1       6.830  -5.123  -4.006  0.00  0.00    +0.000 C 
ATOM     12  O   UNL     1       6.422  -5.632  -5.046  0.00  0.00    +0.000 OA
ATOM     13  H   UNL     1       6.498  -3.701  -2.524  0.00  0.00    +0.000 HD
BRANCH  11  14
ATOM     14  C   UNL     1       8.122  -5.489  -3.414  0.00  0.00    +0.000 A 
ATOM     15  C   UNL     1       8.713  -5.033  -2.184  0.00  0.00    +0.000 A 
ATOM     16  C   UNL     1       9.940  -5.609  -1.930  0.00  0.00    +0.000 A 
ATOM     17  S   UNL     1      10.404  -6.696  -3.161  0.00  0.00    +0.000 S 
ATOM     18  C   UNL     1       8.964  -6.401  -4.032  0.00  0.00    +0.000 A 
ENDBRANCH  11  14
ENDBRANCH   9  10
ENDBRANCH   6   9
ENDBRANCH   2   3
BRANCH   2  19
ATOM     19  N   UNL     1       2.943  -0.280   1.271  0.00  0.00    +0.000 N 
ATOM     20  C   UNL     1       3.160   0.639   2.260  0.00  0.00    +0.000 C 
ATOM     21  O   UNL     1       3.058   1.849   2.080  0.00  0.00    +0.000 OA
ATOM     22  H   UNL     1       2.895  -1.257   1.528  0.00  0.00    +0.000 HD
BRANCH  20  23
ATOM     23  C   UNL     1       3.586   0.084   3.552  0.00  0.00    +0.000 A 
ATOM     24  C   UNL     1       4.376   0.835   4.408  0.00  0.00    +0.000 A 
ATOM     25  S   UNL     1       4.784   0.017   5.849  0.00  0.00    +0.000 S 
ATOM     26  C   UNL     1       3.884  -1.353   5.394  0.00  0.00    +0.000 A 
ATOM     27  N   UNL     1       3.790  -2.433   6.212  0.00  0.00    +0.000 NA
ATOM     28  C   UNL     1       3.052  -3.392   5.756  0.00  0.00    +0.000 A 
ATOM     29  N   UNL     1       2.393  -3.387   4.546  0.00  0.00    +0.000 N 
ATOM     30  C   UNL     1       1.599  -4.524   4.128  0.00  0.00    +0.000 C 
ATOM     31  C   UNL     1       2.499  -2.315   3.666  0.00  0.00    +0.000 A 
ATOM     32  O   UNL     1       1.984  -2.322   2.552  0.00  0.00    +0.000 OA
ATOM     33  C   UNL     1       3.300  -1.203   4.151  0.00  0.00    +0.000 A 
ENDBRANCH  20  23
ENDBRANCH   2  19
TORSDOF 6
