REMARK  Name = 
REMARK  5 active torsions:
REMARK  status: ('A' for Active; 'I' for Inactive)
REMARK    1  A    between atoms: C_2  and  C_18
REMARK    2  A    between atoms: N_3  and  C_4
REMARK    3  A    between atoms: C_4  and  C_5
REMARK    4  A    between atoms: C_8  and  C_9
REMARK    5  A    between atoms: C_9  and  C_10
REMARK                            x       y       z     vdW  Elec       q    Type
REMARK                         _______ _______ _______ _____ _____    ______ ____
ROOT
ATOM      1  O   UNL     1       0.460   3.081  -1.750  0.00  0.00    +0.000 OA
ATOM      2  C   UNL     1       1.393   2.310  -1.957  0.00  0.00    +0.000 C 
ATOM      3  N   UNL     1       2.274   1.938  -0.975  0.00  0.00    +0.000 N 
ATOM      4  H   UNL     1       3.121   1.445  -1.226  0.00  0.00    +0.000 HD
ENDROOT
BRANCH   2   5
ATOM      5  C   UNL     1       1.588   1.682  -3.271  0.00  0.00    +0.000 A 
ATOM      6  C   UNL     1       0.526   1.610  -4.163  0.00  0.00    +0.000 A 
ATOM      7  S   UNL     1       0.916   0.834  -5.630  0.00  0.00    +0.000 S 
ATOM      8  C   UNL     1       2.530   0.605  -5.144  0.00  0.00    +0.000 A 
ATOM      9  N   UNL     1       3.432   0.010  -5.971  0.00  0.00    +0.000 NA
ATOM     10  C   UNL     1       4.627  -0.068  -5.491  0.00  0.00    +0.000 A 
ATOM     11  N   UNL     1       5.002   0.385  -4.252  0.00  0.00    +0.000 N 
ATOM     12  C   UNL     1       4.111   0.925  -3.356  0.00  0.00    +0.000 A 
ATOM     13  O   UNL     1       4.455   1.198  -2.210  0.00  0.00    +0.000 OA
ATOM     14  C   UNL     1       2.761   1.085  -3.867  0.00  0.00    +0.000 A 
ATOM     15  H   UNL     1       5.948   0.266  -3.923  0.00  0.00    +0.000 HD
ENDBRANCH   2   5
BRANCH   3  16
ATOM     16  C   UNL     1       2.222   2.467   0.364  0.00  0.00    +0.000 C 
BRANCH  16  17
ATOM     17  C   UNL     1       3.165   3.627   0.540  0.00  0.00    +0.000 A 
ATOM     18  C   UNL     1       2.740   4.927   0.245  0.00  0.00    +0.000 A 
ATOM     19  C   UNL     1       3.596   6.015   0.429  0.00  0.00    +0.000 A 
ATOM     20  C   UNL     1       4.903   5.823   0.895  0.00  0.00    +0.000 A 
ATOM     21  C   UNL     1       5.337   4.519   1.170  0.00  0.00    +0.000 A 
ATOM     22  C   UNL     1       4.480   3.429   0.981  0.00  0.00    +0.000 A 
BRANCH  20  23
ATOM     23  C   UNL     1       5.830   7.001   1.078  0.00  0.00    +0.000 C 
BRANCH  23  24
ATOM     24  C   UNL     1       5.800   7.635   2.444  0.00  0.00    +0.000 A 
ATOM     25  C   UNL     1       4.924   8.680   2.751  0.00  0.00    +0.000 A 
ATOM     26  C   UNL     1       4.982   9.287   4.003  0.00  0.00    +0.000 A 
ATOM     27  C   UNL     1       5.911   8.819   4.917  0.00  0.00    +0.000 A 
ATOM     28  N   UNL     1       6.754   7.795   4.671  0.00  0.00    +0.000 NA
ATOM     29  C   UNL     1       6.675   7.225   3.446  0.00  0.00    +0.000 A 
ENDBRANCH  23  24
ENDBRANCH  20  23
ENDBRANCH  16  17
ENDBRANCH   3  16
TORSDOF 5
