REMARK  Name = 
REMARK  10 active torsions:
REMARK  status: ('A' for Active; 'I' for Inactive)
REMARK    1  A    between atoms: C_1  and  C_2
REMARK    2  A    between atoms: C_2  and  N_3
REMARK    3  A    between atoms: C_2  and  C_20
REMARK    4  A    between atoms: N_3  and  C_4
REMARK    5  A    between atoms: C_4  and  C_5
REMARK    6  A    between atoms: C_8  and  C_9
REMARK    7  A    between atoms: C_9  and  O_10
REMARK    8  A    between atoms: C_9  and  C_11
REMARK    9  A    between atoms: C_11  and  N_12
REMARK   10  A    between atoms: N_12  and  C_13
REMARK                            x       y       z     vdW  Elec       q    Type
REMARK                         _______ _______ _______ _____ _____    ______ ____
ROOT
ATOM      1  C   UNL     1       2.931  -0.642   3.550  0.00  0.00    +0.000 A 
ATOM      2  C   UNL     1       3.284   0.071   4.691  0.00  0.00    +0.000 A 
ATOM      3  C   UNL     1       3.535  -0.590   5.877  0.00  0.00    +0.000 A 
ATOM      4  C   UNL     1       3.459  -1.991   5.959  0.00  0.00    +0.000 A 
ATOM      5  C   UNL     1       3.102  -2.693   4.809  0.00  0.00    +0.000 A 
ATOM      6  C   UNL     1       2.860  -2.040   3.609  0.00  0.00    +0.000 A 
ENDROOT
BRANCH   1   7
ATOM      7  C   UNL     1       2.516   0.092   2.309  0.00  0.00    +0.000 C 
BRANCH   7   8
ATOM      8  N   UNL     1       3.550   0.992   1.821  0.00  0.00    +0.000 NA
ATOM      9  H   UNL     1       3.759   1.678   2.551  0.00  0.00    +0.000 HD
BRANCH   8  11
ATOM     10  C   UNL     1       2.767   0.785  -0.538  0.00  0.00    +0.000 C 
ATOM     11  C   UNL     1       3.114   1.723   0.625  0.00  0.00    +0.000 C 
BRANCH  11  12
ATOM     12  C   UNL     1       4.245   2.641   0.217  0.00  0.00    +0.000 A 
ATOM     13  C   UNL     1       5.593   2.354   0.393  0.00  0.00    +0.000 A 
ATOM     14  S   UNL     1       6.624   3.541  -0.263  0.00  0.00    +0.000 S 
ATOM     15  C   UNL     1       5.307   4.480  -0.798  0.00  0.00    +0.000 A 
ATOM     16  N   UNL     1       5.500   5.637  -1.470  0.00  0.00    +0.000 NA
ATOM     17  C   UNL     1       4.398   6.235  -1.823  0.00  0.00    +0.000 A 
ATOM     18  N   UNL     1       3.139   5.777  -1.552  0.00  0.00    +0.000 N 
ATOM     19  C   UNL     1       2.887   4.600  -0.875  0.00  0.00    +0.000 A 
ATOM     20  O   UNL     1       1.751   4.215  -0.660  0.00  0.00    +0.000 OA
ATOM     21  C   UNL     1       4.092   3.896  -0.466  0.00  0.00    +0.000 A 
ATOM     22  H   UNL     1       2.327   6.294  -1.854  0.00  0.00    +0.000 HD
ENDBRANCH  11  12
ENDBRANCH   8  11
ENDBRANCH   7   8
ENDBRANCH   1   7
BRANCH   4  23
ATOM     23  C   UNL     1       3.736  -2.745   7.239  0.00  0.00    +0.000 C 
BRANCH  23  24
ATOM     24  O   UNL     1       2.513  -2.893   7.973  0.00  0.00    +0.000 OA
ATOM     25  H   UNL     1       1.822  -3.124   7.328  0.00  0.00    +0.000 HD
ENDBRANCH  23  24
BRANCH  23  26
ATOM     26  C   UNL     1       4.295  -4.165   6.972  0.00  0.00    +0.000 C 
BRANCH  26  27
ATOM     27  N   UNL     1       5.551  -4.259   6.204  0.00  0.00    +0.000 NA
ATOM     28  H   UNL     1       6.271  -3.770   6.735  0.00  0.00    +0.000 HD
BRANCH  27  29
ATOM     29  C   UNL     1       5.939  -5.673   6.006  0.00  0.00    +0.000 C 
ATOM     30  C   UNL     1       7.242  -5.849   5.228  0.00  0.00    +0.000 C 
ATOM     31  C   UNL     1       6.810  -6.085   3.792  0.00  0.00    +0.000 C 
ATOM     32  N   UNL     1       5.560  -6.842   3.878  0.00  0.00    +0.000 NA
ATOM     33  C   UNL     1       4.945  -6.515   5.176  0.00  0.00    +0.000 C 
ATOM     34  H   UNL     1       5.770  -7.838   3.858  0.00  0.00    +0.000 HD
ENDBRANCH  27  29
ENDBRANCH  26  27
ENDBRANCH  23  26
ENDBRANCH   4  23
TORSDOF 9
