REMARK  Name = 
REMARK  9 active torsions:
REMARK  status: ('A' for Active; 'I' for Inactive)
REMARK    1  A    between atoms: C_1  and  C_2
REMARK    2  A    between atoms: C_2  and  N_3
REMARK    3  A    between atoms: C_2  and  C_27
REMARK    4  A    between atoms: N_3  and  C_4
REMARK    5  A    between atoms: C_4  and  C_5
REMARK    6  A    between atoms: C_8  and  C_9
REMARK    7  A    between atoms: C_9  and  N_10
REMARK    8  A    between atoms: C_11  and  C_13
REMARK    9  A    between atoms: N_19  and  C_20
REMARK                            x       y       z     vdW  Elec       q    Type
REMARK                         _______ _______ _______ _____ _____    ______ ____
ROOT
ATOM      1  C   UNL     1      -1.067  -0.784  -1.078  0.00  0.00    +0.000 A 
ATOM      2  C   UNL     1      -1.748  -1.742  -1.836  0.00  0.00    +0.000 A 
ATOM      3  C   UNL     1      -3.142  -1.826  -1.799  0.00  0.00    +0.000 A 
ATOM      4  C   UNL     1      -3.890  -0.947  -1.008  0.00  0.00    +0.000 A 
ATOM      5  C   UNL     1      -3.201   0.016  -0.261  0.00  0.00    +0.000 A 
ATOM      6  F   UNL     1      -3.863   0.874   0.526  0.00  0.00    +0.000 F 
ATOM      7  C   UNL     1      -1.809   0.114  -0.305  0.00  0.00    +0.000 A 
ENDROOT
BRANCH   1   8
ATOM      8  C   UNL     1       0.438  -0.728  -1.134  0.00  0.00    +0.000 C 
BRANCH   8   9
ATOM      9  N   UNL     1       1.063  -0.924   0.178  0.00  0.00    +0.000 NA
ATOM     10  H   UNL     1       0.787  -1.829   0.559  0.00  0.00    +0.000 HD
BRANCH   9  12
ATOM     11  C   UNL     1       2.920   0.518  -0.441  0.00  0.00    +0.000 C 
ATOM     12  C   UNL     1       2.541  -0.855   0.128  0.00  0.00    +0.000 C 
BRANCH  12  13
ATOM     13  C   UNL     1       3.176  -1.075   1.507  0.00  0.00    +0.000 A 
ATOM     14  C   UNL     1       2.887  -0.223   2.574  0.00  0.00    +0.000 A 
ATOM     15  N   UNL     1       3.502  -0.291   3.783  0.00  0.00    +0.000 NA
ATOM     16  C   UNL     1       4.407  -1.283   3.911  0.00  0.00    +0.000 A 
ATOM     17  C   UNL     1       4.668  -2.175   2.886  0.00  0.00    +0.000 A 
ATOM     18  N   UNL     1       4.071  -2.088   1.668  0.00  0.00    +0.000 NA
ENDBRANCH  12  13
ENDBRANCH   9  12
ENDBRANCH   8   9
ENDBRANCH   1   8
BRANCH   4  19
ATOM     19  C   UNL     1      -5.387  -1.061  -0.989  0.00  0.00    +0.000 C 
BRANCH  19  20
ATOM     20  N   UNL     1      -5.838  -1.970   0.034  0.00  0.00    +0.000 N 
ATOM     21  C   UNL     1      -6.098  -3.284  -0.186  0.00  0.00    +0.000 C 
ATOM     22  O   UNL     1      -5.854  -3.857  -1.260  0.00  0.00    +0.000 OA
ATOM     23  H   UNL     1      -5.943  -1.600   0.968  0.00  0.00    +0.000 HD
BRANCH  21  24
ATOM     24  C   UNL     1      -6.622  -3.998   0.970  0.00  0.00    +0.000 A 
ATOM     25  C   UNL     1      -6.359  -5.334   1.225  0.00  0.00    +0.000 A 
ATOM     26  S   UNL     1      -7.055  -5.883   2.688  0.00  0.00    +0.000 S 
ATOM     27  C   UNL     1      -7.745  -4.358   2.999  0.00  0.00    +0.000 A 
ATOM     28  N   UNL     1      -8.483  -4.133   4.114  0.00  0.00    +0.000 NA
ATOM     29  C   UNL     1      -8.951  -2.927   4.209  0.00  0.00    +0.000 A 
ATOM     30  N   UNL     1      -8.766  -1.917   3.289  0.00  0.00    +0.000 N 
ATOM     31  C   UNL     1      -9.373  -0.618   3.485  0.00  0.00    +0.000 C 
ATOM     32  C   UNL     1      -8.078  -2.140   2.104  0.00  0.00    +0.000 A 
ATOM     33  O   UNL     1      -8.003  -1.282   1.220  0.00  0.00    +0.000 OA
ATOM     34  C   UNL     1      -7.473  -3.453   1.998  0.00  0.00    +0.000 A 
ENDBRANCH  21  24
ENDBRANCH  19  20
ENDBRANCH   4  19
TORSDOF 7
