REMARK  Name = 
REMARK  6 active torsions:
REMARK  status: ('A' for Active; 'I' for Inactive)
REMARK    1  A    between atoms: N_1  and  C_2
REMARK    2  A    between atoms: C_2  and  C_3
REMARK    3  A    between atoms: C_3  and  C_4
REMARK    4  A    between atoms: C_7  and  N_8
REMARK    5  A    between atoms: N_8  and  C_9
REMARK    6  A    between atoms: C_9  and  C_10
REMARK                            x       y       z     vdW  Elec       q    Type
REMARK                         _______ _______ _______ _____ _____    ______ ____
ROOT
ATOM      1  C   UNL     1       4.522  -0.898  -0.969  0.00  0.00    +0.000 A 
ATOM      2  C   UNL     1       5.229  -0.262   0.058  0.00  0.00    +0.000 A 
ATOM      3  C   UNL     1       6.621  -0.368   0.140  0.00  0.00    +0.000 A 
ATOM      4  C   UNL     1       7.336  -1.141  -0.778  0.00  0.00    +0.000 A 
ATOM      5  C   UNL     1       6.635  -1.718  -1.840  0.00  0.00    +0.000 A 
ATOM      6  C   UNL     1       5.242  -1.618  -1.928  0.00  0.00    +0.000 A 
ENDROOT
BRANCH   4   7
ATOM      7  N   UNL     1       8.723  -1.317  -0.737  0.00  0.00    +0.000 N 
ATOM      8  H   UNL     1       9.182  -0.697  -1.401  0.00  0.00    +0.000 HD
BRANCH   7   9
ATOM      9  C   UNL     1       9.370  -1.300   0.570  0.00  0.00    +0.000 C 
BRANCH   9  10
ATOM     10  C   UNL     1      10.608  -2.150   0.520  0.00  0.00    +0.000 A 
ATOM     11  C   UNL     1      10.537  -3.510   0.194  0.00  0.00    +0.000 A 
ATOM     12  C   UNL     1      11.695  -4.280   0.183  0.00  0.00    +0.000 A 
ATOM     13  C   UNL     1      12.891  -3.664   0.507  0.00  0.00    +0.000 A 
ATOM     14  N   UNL     1      13.001  -2.358   0.835  0.00  0.00    +0.000 NA
ATOM     15  C   UNL     1      11.858  -1.634   0.836  0.00  0.00    +0.000 A 
ENDBRANCH   9  10
ENDBRANCH   7   9
ENDBRANCH   4   7
BRANCH   1  16
ATOM     16  C   UNL     1       3.012  -0.863  -1.016  0.00  0.00    +0.000 C 
BRANCH  16  17
ATOM     17  C   UNL     1       2.436   0.553  -1.132  0.00  0.00    +0.000 C 
BRANCH  17  18
ATOM     18  N   UNL     1       0.975   0.523  -1.187  0.00  0.00    +0.000 NA
ATOM     19  H   UNL     1       0.621   1.478  -1.250  0.00  0.00    +0.000 HD
ATOM     20  H   UNL     1       0.605   0.141  -0.317  0.00  0.00    +0.000 HD
ENDBRANCH  17  18
ENDBRANCH  16  17
ENDBRANCH   1  16
TORSDOF 6
