REMARK  Name = 
REMARK  7 active torsions:
REMARK  status: ('A' for Active; 'I' for Inactive)
REMARK    1  A    between atoms: C_2  and  C_4
REMARK    2  A    between atoms: C_7  and  N_8
REMARK    3  A    between atoms: N_8  and  C_9
REMARK    4  A    between atoms: C_9  and  C_10
REMARK    5  A    between atoms: C_10  and  C_13
REMARK    6  A    between atoms: C_17  and  O_18
REMARK    7  A    between atoms: O_18  and  C_19
REMARK                            x       y       z     vdW  Elec       q    Type
REMARK                         _______ _______ _______ _____ _____    ______ ____
ROOT
ATOM      1  C   UNL     1       6.492  -5.521   4.307  0.00  0.00    +0.000 C 
ATOM      2  F   UNL     1       7.727  -5.361   3.745  0.00  0.00    +0.000 F 
ATOM      3  F   UNL     1       6.532  -4.797   5.469  0.00  0.00    +0.000 F 
ENDROOT
BRANCH   1   4
ATOM      4  C   UNL     1       6.166  -6.980   4.559  0.00  0.00    +0.000 A 
ATOM      5  C   UNL     1       5.340  -7.352   5.627  0.00  0.00    +0.000 A 
ATOM      6  C   UNL     1       5.005  -8.692   5.826  0.00  0.00    +0.000 A 
ATOM      7  C   UNL     1       5.498  -9.679   4.968  0.00  0.00    +0.000 A 
ATOM      8  C   UNL     1       6.336  -9.324   3.914  0.00  0.00    +0.000 A 
ATOM      9  C   UNL     1       6.659  -7.981   3.705  0.00  0.00    +0.000 A 
BRANCH   8  10
ATOM     10  O   UNL     1       6.860 -10.203   3.000  0.00  0.00    +0.000 OA
BRANCH  10  11
ATOM     11  C   UNL     1       7.038 -11.588   3.372  0.00  0.00    +0.000 C 
ATOM     12  C   UNL     1       8.107 -11.898   4.438  0.00  0.00    +0.000 C 
ATOM     13  C   UNL     1       8.669 -13.003   3.530  0.00  0.00    +0.000 C 
ATOM     14  F   UNL     1      10.013 -13.001   3.376  0.00  0.00    +0.000 F 
ATOM     15  F   UNL     1       8.321 -14.263   3.872  0.00  0.00    +0.000 F 
ATOM     16  C   UNL     1       7.873 -12.402   2.361  0.00  0.00    +0.000 C 
ENDBRANCH  10  11
ENDBRANCH   8  10
ENDBRANCH   1   4
BRANCH   1  17
ATOM     17  C   UNL     1       5.426  -4.878   3.380  0.00  0.00    +0.000 C 
BRANCH  17  18
ATOM     18  N   UNL     1       5.669  -3.447   3.136  0.00  0.00    +0.000 N 
ATOM     19  H   UNL     1       6.079  -2.942   3.921  0.00  0.00    +0.000 HD
BRANCH  18  23
ATOM     20  C   UNL     1       3.362  -1.096   0.508  0.00  0.00    +0.000 A 
ATOM     21  C   UNL     1       2.988  -2.419   0.751  0.00  0.00    +0.000 A 
ATOM     22  C   UNL     1       3.730  -3.205   1.643  0.00  0.00    +0.000 A 
ATOM     23  C   UNL     1       4.831  -2.684   2.330  0.00  0.00    +0.000 A 
ATOM     24  C   UNL     1       5.194  -1.354   2.069  0.00  0.00    +0.000 A 
ATOM     25  C   UNL     1       4.474  -0.567   1.164  0.00  0.00    +0.000 A 
BRANCH  20  27
ATOM     26  N   UNL     1       1.322  -0.521  -0.694  0.00  0.00    +0.000 N 
ATOM     27  C   UNL     1       2.645  -0.249  -0.480  0.00  0.00    +0.000 C 
ATOM     28  O   UNL     1       3.200   0.674  -1.060  0.00  0.00    +0.000 OA
ATOM     29  H   UNL     1       0.827   0.123  -1.296  0.00  0.00    +0.000 HD
ATOM     30  H   UNL     1       0.778  -1.091  -0.063  0.00  0.00    +0.000 HD
ENDBRANCH  20  27
ENDBRANCH  18  23
ENDBRANCH  17  18
ENDBRANCH   1  17
TORSDOF 7
