REMARK  Name = 
REMARK  7 active torsions:
REMARK  status: ('A' for Active; 'I' for Inactive)
REMARK    1  A    between atoms: C_1  and  C_2
REMARK    2  A    between atoms: C_2  and  C_3
REMARK    3  A    between atoms: C_7  and  C_8
REMARK    4  A    between atoms: C_8  and  C_9
REMARK    5  A    between atoms: C_9  and  N_10
REMARK    6  A    between atoms: C_14  and  C_15
REMARK    7  A    between atoms: C_23  and  O_24
REMARK                            x       y       z     vdW  Elec       q    Type
REMARK                         _______ _______ _______ _____ _____    ______ ____
ROOT
ATOM      1  C   UNL     1       2.873   0.318   1.345  0.00  0.00    +0.000 A 
ATOM      2  C   UNL     1       2.646   1.595   1.880  0.00  0.00    +0.000 A 
ATOM      3  C   UNL     1       2.975   1.892   3.208  0.00  0.00    +0.000 A 
ATOM      4  C   UNL     1       3.532   0.916   4.036  0.00  0.00    +0.000 A 
ATOM      5  C   UNL     1       3.782  -0.366   3.541  0.00  0.00    +0.000 A 
ATOM      6  C   UNL     1       3.466  -0.628   2.195  0.00  0.00    +0.000 A 
ENDROOT
BRANCH   1   8
ATOM      7  C   UNL     1       0.861   0.050  -0.087  0.00  0.00    +0.000 C 
ATOM      8  C   UNL     1       2.406  -0.058  -0.083  0.00  0.00    +0.000 C 
ATOM      9  C   UNL     1       3.028   0.917  -1.119  0.00  0.00    +0.000 C 
ATOM     10  C   UNL     1       2.724   0.553  -2.578  0.00  0.00    +0.000 C 
ATOM     11  C   UNL     1       3.082  -0.890  -2.928  0.00  0.00    +0.000 C 
ATOM     12  C   UNL     1       2.485  -1.883  -1.938  0.00  0.00    +0.000 C 
ATOM     13  C   UNL     1       2.801  -1.513  -0.489  0.00  0.00    +0.000 C 
BRANCH  11  14
ATOM     14  O   UNL     1       4.498  -1.049  -2.983  0.00  0.00    +0.000 OA
ATOM     15  H   UNL     1       4.878  -0.800  -2.124  0.00  0.00    +0.000 HD
ENDBRANCH  11  14
ENDBRANCH   1   8
BRANCH   5  16
ATOM     16  C   UNL     1       4.334  -1.443   4.466  0.00  0.00    +0.000 C 
BRANCH  16  17
ATOM     17  C   UNL     1       4.557  -2.793   3.773  0.00  0.00    +0.000 C 
BRANCH  17  18
ATOM     18  N   UNL     1       5.042  -3.843   4.671  0.00  0.00    +0.000 N 
ATOM     19  C   UNL     1       5.216  -5.060   3.968  0.00  0.00    +0.000 A 
ATOM     20  C   UNL     1       5.651  -6.181   4.667  0.00  0.00    +0.000 A 
ATOM     21  C   UNL     1       5.834  -7.385   3.981  0.00  0.00    +0.000 A 
ATOM     22  C   UNL     1       5.584  -7.457   2.611  0.00  0.00    +0.000 A 
ATOM     23  C   UNL     1       5.161  -6.295   1.993  0.00  0.00    +0.000 A 
ATOM     24  N   UNL     1       4.982  -5.116   2.639  0.00  0.00    +0.000 NA
ATOM     25  H   UNL     1       4.403  -4.011   5.443  0.00  0.00    +0.000 HD
BRANCH  22  26
ATOM     26  C   UNL     1       5.770  -8.743   1.895  0.00  0.00    +0.000 C 
ATOM     27  N   UNL     1       5.511  -8.803   0.553  0.00  0.00    +0.000 N 
ATOM     28  O   UNL     1       6.146  -9.747   2.490  0.00  0.00    +0.000 OA
ATOM     29  H   UNL     1       5.215  -8.041  -0.036  0.00  0.00    +0.000 HD
ATOM     30  H   UNL     1       5.654  -9.703   0.108  0.00  0.00    +0.000 HD
ENDBRANCH  22  26
ENDBRANCH  17  18
ENDBRANCH  16  17
ENDBRANCH   5  16
TORSDOF 6
