REMARK  Name = 
REMARK  5 active torsions:
REMARK  status: ('A' for Active; 'I' for Inactive)
REMARK    1  A    between atoms: C_1  and  N_2
REMARK    2  A    between atoms: C_3  and  C_5
REMARK    3  A    between atoms: N_9  and  C_10
REMARK    4  A    between atoms: C_10  and  C_11
REMARK    5  A    between atoms: C_10  and  C_12
REMARK                            x       y       z     vdW  Elec       q    Type
REMARK                         _______ _______ _______ _____ _____    ______ ____
ROOT
ATOM      1  C   UNL     1       4.707  -0.046   0.875  0.00  0.00    +0.000 A 
ATOM      2  C   UNL     1       5.363  -1.243   1.148  0.00  0.00    +0.000 A 
ATOM      3  C   UNL     1       6.751  -1.242   1.284  0.00  0.00    +0.000 A 
ATOM      4  C   UNL     1       7.471  -0.063   1.090  0.00  0.00    +0.000 A 
ATOM      5  N   UNL     1       8.858  -0.144   1.156  0.00  0.00    +0.000 N 
ATOM      6  N   UNL     1       6.850   1.098   0.808  0.00  0.00    +0.000 NA
ATOM      7  C   UNL     1       5.491   1.087   0.716  0.00  0.00    +0.000 A 
ATOM      8  H   UNL     1       9.181  -0.418   2.075  0.00  0.00    +0.000 HD
ENDROOT
BRANCH   1  11
ATOM      9  C   UNL     1       1.044  -0.927   1.219  0.00  0.00    +0.000 C 
ATOM     10  N   UNL     1       2.479  -0.912   1.337  0.00  0.00    +0.000 N 
ATOM     11  C   UNL     1       3.239   0.052   0.699  0.00  0.00    +0.000 C 
ATOM     12  O   UNL     1       2.755   0.958   0.030  0.00  0.00    +0.000 OA
ATOM     13  H   UNL     1       2.910  -1.546   1.997  0.00  0.00    +0.000 HD
ENDBRANCH   1  11
BRANCH   5  14
ATOM     14  C   UNL     1       9.660   0.886   0.504  0.00  0.00    +0.000 C 
ATOM     15  C   UNL     1       9.884   2.113   1.388  0.00  0.00    +0.000 C 
BRANCH  14  16
ATOM     16  C   UNL     1      10.993   0.251   0.110  0.00  0.00    +0.000 A 
ATOM     17  C   UNL     1      11.371   0.196  -1.241  0.00  0.00    +0.000 A 
ATOM     18  C   UNL     1      12.584  -0.385  -1.620  0.00  0.00    +0.000 A 
ATOM     19  C   UNL     1      13.434  -0.924  -0.657  0.00  0.00    +0.000 A 
ATOM     20  C   UNL     1      13.071  -0.888   0.687  0.00  0.00    +0.000 A 
ATOM     21  C   UNL     1      11.861  -0.305   1.068  0.00  0.00    +0.000 A 
ENDBRANCH  14  16
ENDBRANCH   5  14
TORSDOF 3
