REMARK  Name = 
REMARK  7 active torsions:
REMARK  status: ('A' for Active; 'I' for Inactive)
REMARK    1  A    between atoms: C_2  and  C_3
REMARK    2  A    between atoms: C_6  and  C_7
REMARK    3  A    between atoms: N_9  and  C_10
REMARK    4  A    between atoms: C_10  and  C_11
REMARK    5  A    between atoms: C_14  and  C_15
REMARK    6  A    between atoms: C_15  and  N_16
REMARK    7  A    between atoms: C_17  and  C_19
REMARK                            x       y       z     vdW  Elec       q    Type
REMARK                         _______ _______ _______ _____ _____    ______ ____
ROOT
ATOM      1  C   UNL     1       7.350  -6.670   2.357  0.00  0.00    +0.000 A 
ATOM      2  C   UNL     1       8.587  -7.204   1.972  0.00  0.00    +0.000 A 
ATOM      3  C   UNL     1       8.743  -8.584   1.768  0.00  0.00    +0.000 A 
ATOM      4  C   UNL     1       7.659  -9.458   1.924  0.00  0.00    +0.000 A 
ATOM      5  C   UNL     1       6.427  -8.924   2.326  0.00  0.00    +0.000 A 
ATOM      6  C   UNL     1       6.270  -7.547   2.529  0.00  0.00    +0.000 A 
ENDROOT
BRANCH   1   7
ATOM      7  C   UNL     1       7.188  -5.187   2.588  0.00  0.00    +0.000 C 
BRANCH   7  10
ATOM      8  C   UNL     1       6.632  -3.106   1.400  0.00  0.00    +0.000 C 
ATOM      9  O   UNL     1       6.733  -2.439   2.424  0.00  0.00    +0.000 OA
ATOM     10  N   UNL     1       6.829  -4.470   1.391  0.00  0.00    +0.000 N 
ATOM     11  H   UNL     1       6.755  -4.959   0.503  0.00  0.00    +0.000 HD
BRANCH   8  15
ATOM     12  C   UNL     1       5.916  -2.602  -2.092  0.00  0.00    +0.000 A 
ATOM     13  C   UNL     1       5.790  -1.283  -1.675  0.00  0.00    +0.000 A 
ATOM     14  C   UNL     1       6.039  -1.240  -0.282  0.00  0.00    +0.000 A 
ATOM     15  C   UNL     1       6.304  -2.538   0.104  0.00  0.00    +0.000 A 
ATOM     16  O   UNL     1       6.227  -3.358  -0.983  0.00  0.00    +0.000 OA
BRANCH  12  18
ATOM     17  C   UNL     1       5.913  -4.449  -3.633  0.00  0.00    +0.000 C 
ATOM     18  C   UNL     1       5.767  -3.138  -3.401  0.00  0.00    +0.000 C 
ENDBRANCH  12  18
ENDBRANCH   8  15
ENDBRANCH   7  10
ENDBRANCH   1   7
BRANCH   4  19
ATOM     19  C   UNL     1       7.803 -10.941   1.680  0.00  0.00    +0.000 C 
BRANCH  19  20
ATOM     20  N   UNL     1       8.168 -11.654   2.879  0.00  0.00    +0.000 N 
ATOM     21  C   UNL     1       8.387 -13.010   2.867  0.00  0.00    +0.000 C 
ATOM     22  O   UNL     1       8.320 -13.675   1.837  0.00  0.00    +0.000 OA
ATOM     23  H   UNL     1       7.963 -11.197   3.761  0.00  0.00    +0.000 HD
BRANCH  21  24
ATOM     24  C   UNL     1       8.773 -13.622   4.148  0.00  0.00    +0.000 A 
ATOM     25  C   UNL     1       9.513 -14.797   4.163  0.00  0.00    +0.000 A 
ATOM     26  S   UNL     1       9.916 -15.330   5.732  0.00  0.00    +0.000 S 
ATOM     27  C   UNL     1       9.068 -14.041   6.449  0.00  0.00    +0.000 A 
ATOM     28  N   UNL     1       8.989 -13.918   7.801  0.00  0.00    +0.000 NA
ATOM     29  C   UNL     1       8.287 -12.912   8.205  0.00  0.00    +0.000 A 
ATOM     30  N   UNL     1       7.663 -12.013   7.378  0.00  0.00    +0.000 N 
ATOM     31  C   UNL     1       7.745 -12.078   6.009  0.00  0.00    +0.000 A 
ATOM     32  O   UNL     1       7.218 -11.227   5.299  0.00  0.00    +0.000 OA
ATOM     33  C   UNL     1       8.507 -13.202   5.503  0.00  0.00    +0.000 A 
ATOM     34  H   UNL     1       7.138 -11.239   7.757  0.00  0.00    +0.000 HD
ENDBRANCH  21  24
ENDBRANCH  19  20
ENDBRANCH   4  19
TORSDOF 7
