REMARK  Name = 
REMARK  8 active torsions:
REMARK  status: ('A' for Active; 'I' for Inactive)
REMARK    1  A    between atoms: N_1  and  C_2
REMARK    2  A    between atoms: C_2  and  C_3
REMARK    3  A    between atoms: C_3  and  N_4
REMARK    4  A    between atoms: C_3  and  C_17
REMARK    5  A    between atoms: C_5  and  C_7
REMARK    6  A    between atoms: C_20  and  C_21
REMARK    7  A    between atoms: C_21  and  N_22
REMARK    8  A    between atoms: C_23  and  C_25
REMARK                            x       y       z     vdW  Elec       q    Type
REMARK                         _______ _______ _______ _____ _____    ______ ____
ROOT
ATOM      1  C   UNL     1       2.836   0.966   0.998  0.00  0.00    +0.000 C 
ENDROOT
BRANCH   1   2
ATOM      2  C   UNL     1       4.361   1.042   1.121  0.00  0.00    +0.000 A 
ATOM      3  C   UNL     1       5.007   2.286   1.173  0.00  0.00    +0.000 A 
ATOM      4  C   UNL     1       6.404   2.368   1.254  0.00  0.00    +0.000 A 
ATOM      5  C   UNL     1       7.191   1.209   1.282  0.00  0.00    +0.000 A 
ATOM      6  C   UNL     1       6.546  -0.035   1.276  0.00  0.00    +0.000 A 
ATOM      7  C   UNL     1       5.150  -0.118   1.195  0.00  0.00    +0.000 A 
BRANCH   5   8
ATOM      8  C   UNL     1       8.696   1.293   1.282  0.00  0.00    +0.000 C 
BRANCH   8   9
ATOM      9  N   UNL     1       9.269   1.340   2.603  0.00  0.00    +0.000 N 
ATOM     10  C   UNL     1      10.639   1.305   2.786  0.00  0.00    +0.000 C 
ATOM     11  O   UNL     1      11.442   1.231   1.861  0.00  0.00    +0.000 OA
ATOM     12  H   UNL     1       8.688   1.475   3.425  0.00  0.00    +0.000 HD
BRANCH  10  13
ATOM     13  C   UNL     1      11.100   1.358   4.213  0.00  0.00    +0.000 A 
ATOM     14  C   UNL     1      12.463   1.379   4.497  0.00  0.00    +0.000 A 
ATOM     15  C   UNL     1      12.860   1.405   5.830  0.00  0.00    +0.000 A 
ATOM     16  C   UNL     1      11.891   1.404   6.827  0.00  0.00    +0.000 A 
ATOM     17  C   UNL     1      10.555   1.383   6.451  0.00  0.00    +0.000 A 
ATOM     18  N   UNL     1      10.128   1.365   5.168  0.00  0.00    +0.000 NA
ENDBRANCH  10  13
ENDBRANCH   8   9
ENDBRANCH   5   8
ENDBRANCH   1   2
BRANCH   1  19
ATOM     19  N   UNL     1       2.304   0.347   2.204  0.00  0.00    +0.000 N 
ATOM     20  C   UNL     1       0.961   0.255   2.472  0.00  0.00    +0.000 C 
ATOM     21  O   UNL     1       0.094   0.557   1.657  0.00  0.00    +0.000 OA
ATOM     22  H   UNL     1       2.941   0.343   2.998  0.00  0.00    +0.000 HD
BRANCH  20  23
ATOM     23  C   UNL     1       0.606  -0.276   3.789  0.00  0.00    +0.000 A 
ATOM     24  C   UNL     1      -0.576  -0.981   3.963  0.00  0.00    +0.000 A 
ATOM     25  S   UNL     1      -0.836  -1.483   5.574  0.00  0.00    +0.000 S 
ATOM     26  C   UNL     1       0.603  -0.738   6.096  0.00  0.00    +0.000 A 
ATOM     27  N   UNL     1       0.962  -0.739   7.408  0.00  0.00    +0.000 NA
ATOM     28  C   UNL     1       2.059  -0.107   7.661  0.00  0.00    +0.000 A 
ATOM     29  N   UNL     1       2.845   0.506   6.721  0.00  0.00    +0.000 N 
ATOM     30  C   UNL     1       2.551   0.486   5.378  0.00  0.00    +0.000 A 
ATOM     31  O   UNL     1       3.322   0.957   4.551  0.00  0.00    +0.000 OA
ATOM     32  C   UNL     1       1.297  -0.163   5.048  0.00  0.00    +0.000 A 
ATOM     33  H   UNL     1       3.713   0.952   6.975  0.00  0.00    +0.000 HD
ENDBRANCH  20  23
ENDBRANCH   1  19
BRANCH   1  34
ATOM     34  C   UNL     1       2.393   0.216  -0.298  0.00  0.00    +0.000 C 
BRANCH  34  35
ATOM     35  N   UNL     1       2.898   0.802  -1.547  0.00  0.00    +0.000 NA
ATOM     36  H   UNL     1       2.765   0.128  -2.300  0.00  0.00    +0.000 HD
ATOM     37  H   UNL     1       3.905   0.951  -1.469  0.00  0.00    +0.000 HD
ENDBRANCH  34  35
ENDBRANCH   1  34
TORSDOF 8
