REMARK  Name = 
REMARK  11 active torsions:
REMARK  status: ('A' for Active; 'I' for Inactive)
REMARK    1  A    between atoms: C_1  and  O_2
REMARK    2  A    between atoms: O_2  and  C_3
REMARK    3  A    between atoms: C_10  and  C_11
REMARK    4  A    between atoms: N_13  and  C_14
REMARK    5  A    between atoms: C_14  and  C_15
REMARK    6  A    between atoms: C_18  and  C_19
REMARK    7  A    between atoms: C_19  and  N_20
REMARK    8  A    between atoms: N_20  and  C_21
REMARK    9  A    between atoms: N_20  and  C_22
REMARK   10  A    between atoms: C_22  and  C_23
REMARK   11  A    between atoms: C_22  and  C_24
REMARK                            x       y       z     vdW  Elec       q    Type
REMARK                         _______ _______ _______ _____ _____    ______ ____
ROOT
ATOM      1  C   UNL     1       2.216  -3.286   0.561  0.00  0.00    +0.000 A 
ATOM      2  C   UNL     1       1.476  -4.463   0.733  0.00  0.00    +0.000 A 
ATOM      3  C   UNL     1       0.448  -4.526   1.678  0.00  0.00    +0.000 A 
ATOM      4  C   UNL     1       0.133  -3.411   2.467  0.00  0.00    +0.000 A 
ATOM      5  C   UNL     1       0.868  -2.231   2.287  0.00  0.00    +0.000 A 
ATOM      6  C   UNL     1       1.897  -2.168   1.342  0.00  0.00    +0.000 A 
ENDROOT
BRANCH   1   7
ATOM      7  C   UNL     1       3.281  -3.199  -0.503  0.00  0.00    +0.000 C 
BRANCH   7  10
ATOM      8  C   UNL     1       3.458  -2.556  -2.875  0.00  0.00    +0.000 C 
ATOM      9  O   UNL     1       4.667  -2.780  -2.885  0.00  0.00    +0.000 OA
ATOM     10  N   UNL     1       2.710  -2.749  -1.749  0.00  0.00    +0.000 N 
ATOM     11  H   UNL     1       1.709  -2.619  -1.777  0.00  0.00    +0.000 HD
BRANCH   8  19
ATOM     12  C   UNL     1       0.178  -1.736  -3.543  0.00  0.00    +0.000 A 
ATOM     13  N   UNL     1      -0.983  -1.256  -4.033  0.00  0.00    +0.000 NA
ATOM     14  C   UNL     1      -0.977  -0.741  -5.268  0.00  0.00    +0.000 A 
ATOM     15  N   UNL     1       0.057  -0.661  -6.099  0.00  0.00    +0.000 NA
ATOM     16  C   UNL     1       1.193  -1.144  -5.570  0.00  0.00    +0.000 A 
ATOM     17  S   UNL     1       2.615  -1.142  -6.498  0.00  0.00    +0.000 S 
ATOM     18  C   UNL     1       3.510  -1.813  -5.220  0.00  0.00    +0.000 A 
ATOM     19  C   UNL     1       2.764  -2.042  -4.070  0.00  0.00    +0.000 A 
ATOM     20  C   UNL     1       1.365  -1.681  -4.297  0.00  0.00    +0.000 A 
BRANCH  12  22
ATOM     21  C   UNL     1      -1.094  -2.278  -1.636  0.00  0.00    +0.000 C 
ATOM     22  O   UNL     1       0.173  -2.310  -2.289  0.00  0.00    +0.000 OA
ENDBRANCH  12  22
ENDBRANCH   8  19
ENDBRANCH   7  10
ENDBRANCH   1   7
BRANCH   4  23
ATOM     23  C   UNL     1      -0.984  -3.477   3.499  0.00  0.00    +0.000 C 
BRANCH  23  24
ATOM     24  N   UNL     1      -0.758  -4.480   4.558  0.00  0.00    +0.000 NA
ATOM     25  C   UNL     1       0.486  -4.212   5.289  0.00  0.00    +0.000 C 
BRANCH  24  26
ATOM     26  C   UNL     1      -1.910  -4.593   5.498  0.00  0.00    +0.000 C 
ATOM     27  C   UNL     1      -2.219  -3.336   6.336  0.00  0.00    +0.000 C 
BRANCH  26  28
ATOM     28  C   UNL     1      -3.204  -5.101   4.844  0.00  0.00    +0.000 A 
ATOM     29  C   UNL     1      -3.460  -6.471   4.772  0.00  0.00    +0.000 A 
ATOM     30  C   UNL     1      -4.684  -6.903   4.267  0.00  0.00    +0.000 A 
ATOM     31  C   UNL     1      -5.611  -5.967   3.827  0.00  0.00    +0.000 A 
ATOM     32  C   UNL     1      -5.269  -4.629   3.896  0.00  0.00    +0.000 A 
ATOM     33  N   UNL     1      -4.095  -4.179   4.388  0.00  0.00    +0.000 NA
ENDBRANCH  26  28
ENDBRANCH  24  26
ENDBRANCH  23  24
ENDBRANCH   4  23
TORSDOF 8
