REMARK  Name = 
REMARK  5 active torsions:
REMARK  status: ('A' for Active; 'I' for Inactive)
REMARK    1  A    between atoms: N_1  and  C_2
REMARK    2  A    between atoms: C_2  and  C_3
REMARK    3  A    between atoms: C_6  and  O_7
REMARK    4  A    between atoms: O_7  and  C_8
REMARK    5  A    between atoms: C_8  and  C_9
REMARK                            x       y       z     vdW  Elec       q    Type
REMARK                         _______ _______ _______ _____ _____    ______ ____
ROOT
ATOM      1  C   UNL     1       2.782  -1.032  -0.842  0.00  0.00    +0.000 A 
ATOM      2  C   UNL     1       3.725  -0.825  -1.859  0.00  0.00    +0.000 A 
ATOM      3  C   UNL     1       4.154  -1.890  -2.657  0.00  0.00    +0.000 A 
ATOM      4  C   UNL     1       3.658  -3.176  -2.441  0.00  0.00    +0.000 A 
ATOM      5  C   UNL     1       2.686  -3.380  -1.462  0.00  0.00    +0.000 A 
ATOM      6  C   UNL     1       2.260  -2.318  -0.662  0.00  0.00    +0.000 A 
ENDROOT
BRANCH   1   7
ATOM      7  C   UNL     1       2.348   0.098   0.054  0.00  0.00    +0.000 C 
BRANCH   7   8
ATOM      8  N   UNL     1       1.697   1.162  -0.698  0.00  0.00    +0.000 NA
ATOM      9  H   UNL     1       1.314   1.844  -0.046  0.00  0.00    +0.000 HD
ATOM     10  H   UNL     1       0.903   0.768  -1.202  0.00  0.00    +0.000 HD
ENDBRANCH   7   8
ENDBRANCH   1   7
BRANCH   4  11
ATOM     11  O   UNL     1       4.186  -4.154  -3.240  0.00  0.00    +0.000 OA
BRANCH  11  12
ATOM     12  C   UNL     1       4.054  -5.486  -2.738  0.00  0.00    +0.000 C 
BRANCH  12  13
ATOM     13  C   UNL     1       5.064  -6.375  -3.403  0.00  0.00    +0.000 A 
ATOM     14  C   UNL     1       6.428  -6.064  -3.388  0.00  0.00    +0.000 A 
ATOM     15  C   UNL     1       7.342  -6.942  -3.959  0.00  0.00    +0.000 A 
ATOM     16  C   UNL     1       6.860  -8.112  -4.524  0.00  0.00    +0.000 A 
ATOM     17  N   UNL     1       5.553  -8.451  -4.553  0.00  0.00    +0.000 NA
ATOM     18  C   UNL     1       4.686  -7.575  -3.993  0.00  0.00    +0.000 A 
ENDBRANCH  12  13
ENDBRANCH  11  12
ENDBRANCH   4  11
TORSDOF 5
