REMARK  Name = 
REMARK  8 active torsions:
REMARK  status: ('A' for Active; 'I' for Inactive)
REMARK    1  A    between atoms: C_1  and  C_2
REMARK    2  A    between atoms: C_7  and  C_8
REMARK    3  A    between atoms: C_8  and  C_9
REMARK    4  A    between atoms: C_8  and  C_10
REMARK    5  A    between atoms: C_8  and  C_11
REMARK    6  A    between atoms: C_11  and  N_12
REMARK    7  A    between atoms: C_16  and  C_17
REMARK    8  A    between atoms: C_26  and  C_27
REMARK                            x       y       z     vdW  Elec       q    Type
REMARK                         _______ _______ _______ _____ _____    ______ ____
ROOT
ATOM      1  C   UNL     1       1.741   4.943  -4.968  0.00  0.00    +0.000 C 
ATOM      2  C   UNL     1       2.039   5.872  -3.769  0.00  0.00    +0.000 C 
ATOM      3  C   UNL     1       3.020   4.768  -5.813  0.00  0.00    +0.000 C 
ENDROOT
BRANCH   1  10
ATOM      4  C   UNL     1       1.454  -2.184  -3.072  0.00  0.00    +0.000 C 
ATOM      5  C   UNL     1       2.448  -1.701  -2.021  0.00  0.00    +0.000 C 
ATOM      6  C   UNL     1       2.207  -0.253  -1.562  0.00  0.00    +0.000 C 
ATOM      7  N   UNL     1       2.709   0.741  -2.512  0.00  0.00    +0.000 N 
ATOM      8  C   UNL     1       1.802   1.470  -3.261  0.00  0.00    +0.000 A 
ATOM      9  C   UNL     1       2.161   2.761  -3.677  0.00  0.00    +0.000 A 
ATOM     10  C   UNL     1       1.301   3.551  -4.455  0.00  0.00    +0.000 A 
ATOM     11  C   UNL     1       0.058   2.985  -4.755  0.00  0.00    +0.000 A 
ATOM     12  C   UNL     1      -0.242   1.713  -4.294  0.00  0.00    +0.000 A 
ATOM     13  N   UNL     1       0.593   0.958  -3.552  0.00  0.00    +0.000 NA
ATOM     14  C   UNL     1       4.027   0.465  -3.101  0.00  0.00    +0.000 C 
ATOM     15  C   UNL     1       4.193  -1.016  -3.508  0.00  0.00    +0.000 C 
ATOM     16  C   UNL     1       5.654  -1.310  -3.834  0.00  0.00    +0.000 C 
ATOM     17  O   UNL     1       3.808  -1.908  -2.449  0.00  0.00    +0.000 OA
ENDBRANCH   1  10
BRANCH   1  18
ATOM     18  C   UNL     1       0.632   5.599  -5.847  0.00  0.00    +0.000 C 
BRANCH  18  19
ATOM     19  N   UNL     1       0.973   6.907  -6.387  0.00  0.00    +0.000 N 
ATOM     20  C   UNL     1       0.013   7.558  -7.154  0.00  0.00    +0.000 A 
ATOM     21  C   UNL     1      -1.369   7.408  -6.981  0.00  0.00    +0.000 A 
ATOM     22  N   UNL     1      -2.315   8.045  -7.715  0.00  0.00    +0.000 NA
ATOM     23  C   UNL     1      -1.811   8.903  -8.633  0.00  0.00    +0.000 A 
ATOM     24  C   UNL     1      -0.443   9.084  -8.814  0.00  0.00    +0.000 A 
ATOM     25  N   UNL     1       0.489   8.406  -8.087  0.00  0.00    +0.000 NA
ATOM     26  H   UNL     1       1.849   6.979  -6.904  0.00  0.00    +0.000 HD
BRANCH  23  27
ATOM     27  C   UNL     1      -2.790   9.676  -9.447  0.00  0.00    +0.000 C 
ATOM     28  N   UNL     1      -4.133   9.455  -9.230  0.00  0.00    +0.000 N 
ATOM     29  O   UNL     1      -2.423  10.469 -10.300  0.00  0.00    +0.000 OA
ATOM     30  H   UNL     1      -4.470   8.805  -8.534  0.00  0.00    +0.000 HD
ATOM     31  H   UNL     1      -4.797   9.981  -9.785  0.00  0.00    +0.000 HD
ENDBRANCH  23  27
ENDBRANCH  18  19
ENDBRANCH   1  18
TORSDOF 4
