REMARK  Name = 
REMARK  9 active torsions:
REMARK  status: ('A' for Active; 'I' for Inactive)
REMARK    1  A    between atoms: C_1  and  O_2
REMARK    2  A    between atoms: O_2  and  C_3
REMARK    3  A    between atoms: C_10  and  C_11
REMARK    4  A    between atoms: N_13  and  C_14
REMARK    5  A    between atoms: C_14  and  C_15
REMARK    6  A    between atoms: C_18  and  C_19
REMARK    7  A    between atoms: C_19  and  C_20
REMARK    8  A    between atoms: C_20  and  S_21
REMARK    9  A    between atoms: S_21  and  C_22
REMARK                            x       y       z     vdW  Elec       q    Type
REMARK                         _______ _______ _______ _____ _____    ______ ____
ROOT
ATOM      1  C   UNL     1       4.716   1.684   4.210  0.00  0.00    +0.000 C 
ENDROOT
BRANCH   1   2
ATOM      2  C   UNL     1       5.638   1.888   5.387  0.00  0.00    +0.000 A 
ATOM      3  C   UNL     1       5.967   3.179   5.821  0.00  0.00    +0.000 A 
ATOM      4  C   UNL     1       6.909   3.376   6.836  0.00  0.00    +0.000 A 
ATOM      5  C   UNL     1       7.536   2.286   7.453  0.00  0.00    +0.000 A 
ATOM      6  C   UNL     1       7.180   0.994   7.044  0.00  0.00    +0.000 A 
ATOM      7  C   UNL     1       6.246   0.797   6.019  0.00  0.00    +0.000 A 
BRANCH   5   8
ATOM      8  C   UNL     1       8.629   2.497   8.480  0.00  0.00    +0.000 C 
BRANCH   8   9
ATOM      9  C   UNL     1       8.172   3.288   9.710  0.00  0.00    +0.000 C 
BRANCH   9  10
ATOM     10  S   UNL     1       9.573   3.516  10.865  0.00  0.00    +0.000 S 
BRANCH  10  11
ATOM     11  C   UNL     1       8.779   4.456  12.160  0.00  0.00    +0.000 A 
ATOM     12  C   UNL     1       9.527   4.832  13.272  0.00  0.00    +0.000 A 
ATOM     13  C   UNL     1       8.906   5.561  14.285  0.00  0.00    +0.000 A 
ATOM     14  C   UNL     1       7.564   5.890  14.159  0.00  0.00    +0.000 A 
ATOM     15  C   UNL     1       6.896   5.478  13.020  0.00  0.00    +0.000 A 
ATOM     16  N   UNL     1       7.473   4.773  12.022  0.00  0.00    +0.000 NA
ENDBRANCH  10  11
ENDBRANCH   9  10
ENDBRANCH   8   9
ENDBRANCH   5   8
ENDBRANCH   1   2
BRANCH   1  19
ATOM     17  C   UNL     1       4.836   1.442   1.765  0.00  0.00    +0.000 C 
ATOM     18  O   UNL     1       3.632   1.229   1.680  0.00  0.00    +0.000 OA
ATOM     19  N   UNL     1       5.462   1.596   2.977  0.00  0.00    +0.000 N 
ATOM     20  H   UNL     1       6.426   1.909   2.992  0.00  0.00    +0.000 HD
BRANCH  17  28
ATOM     21  C   UNL     1       7.687   3.123   1.110  0.00  0.00    +0.000 A 
ATOM     22  N   UNL     1       8.806   3.719   0.638  0.00  0.00    +0.000 NA
ATOM     23  C   UNL     1       9.209   3.469  -0.615  0.00  0.00    +0.000 A 
ATOM     24  C   UNL     1       8.556   2.618  -1.478  0.00  0.00    +0.000 A 
ATOM     25  C   UNL     1       7.400   2.000  -0.983  0.00  0.00    +0.000 A 
ATOM     26  S   UNL     1       6.395   0.912  -1.853  0.00  0.00    +0.000 S 
ATOM     27  C   UNL     1       5.319   0.761  -0.552  0.00  0.00    +0.000 A 
ATOM     28  C   UNL     1       5.696   1.482   0.571  0.00  0.00    +0.000 A 
ATOM     29  C   UNL     1       6.932   2.224   0.320  0.00  0.00    +0.000 A 
BRANCH  21  31
ATOM     30  C   UNL     1       7.854   4.594   2.914  0.00  0.00    +0.000 C 
ATOM     31  O   UNL     1       7.316   3.375   2.414  0.00  0.00    +0.000 OA
ENDBRANCH  21  31
ENDBRANCH  17  28
ENDBRANCH   1  19
TORSDOF 8
