REMARK  Name = 
REMARK  4 active torsions:
REMARK  status: ('A' for Active; 'I' for Inactive)
REMARK    1  A    between atoms: C_2  and  C_4
REMARK    2  A    between atoms: N_8  and  C_9
REMARK    3  A    between atoms: C_9  and  C_10
REMARK    4  A    between atoms: C_14  and  C_15
REMARK                            x       y       z     vdW  Elec       q    Type
REMARK                         _______ _______ _______ _____ _____    ______ ____
ROOT
ATOM      1  C   UNL     1       5.096   2.343   5.450  0.00  0.00    +0.000 C 
ATOM      2  C   UNL     1       5.040   1.164   6.412  0.00  0.00    +0.000 C 
ATOM      3  C   UNL     1       3.827   2.008   6.212  0.00  0.00    +0.000 C 
ENDROOT
BRANCH   1   8
ATOM      4  C   UNL     1       3.564   3.697   0.676  0.00  0.00    +0.000 A 
ATOM      5  C   UNL     1       2.798   3.603   1.837  0.00  0.00    +0.000 A 
ATOM      6  C   UNL     1       3.372   3.073   2.993  0.00  0.00    +0.000 A 
ATOM      7  C   UNL     1       4.691   2.643   2.969  0.00  0.00    +0.000 A 
ATOM      8  N   UNL     1       5.290   1.969   4.037  0.00  0.00    +0.000 N 
ATOM      9  N   UNL     1       5.447   2.737   1.856  0.00  0.00    +0.000 NA
ATOM     10  C   UNL     1       4.876   3.260   0.737  0.00  0.00    +0.000 A 
ATOM     11  H   UNL     1       6.258   1.832   3.748  0.00  0.00    +0.000 HD
BRANCH   4  13
ATOM     12  N   UNL     1       1.912   4.976  -0.577  0.00  0.00    +0.000 N 
ATOM     13  C   UNL     1       3.025   4.184  -0.611  0.00  0.00    +0.000 C 
ATOM     14  O   UNL     1       3.562   3.898  -1.673  0.00  0.00    +0.000 OA
ATOM     15  H   UNL     1       1.600   5.353  -1.463  0.00  0.00    +0.000 HD
ATOM     16  H   UNL     1       1.576   5.419   0.265  0.00  0.00    +0.000 HD
ENDBRANCH   4  13
ENDBRANCH   1   8
BRANCH   1  17
ATOM     17  C   UNL     1       5.903   3.574   5.860  0.00  0.00    +0.000 A 
ATOM     18  C   UNL     1       7.306   3.540   5.887  0.00  0.00    +0.000 A 
ATOM     19  C   UNL     1       8.055   4.689   6.136  0.00  0.00    +0.000 A 
ATOM     20  C   UNL     1       7.410   5.903   6.370  0.00  0.00    +0.000 A 
ATOM     21  C   UNL     1       6.010   5.996   6.360  0.00  0.00    +0.000 A 
ATOM     22  C   UNL     1       5.283   4.813   6.120  0.00  0.00    +0.000 A 
BRANCH  21  23
ATOM     23  C   UNL     1       5.321   7.297   6.511  0.00  0.00    +0.000 A 
ATOM     24  C   UNL     1       5.820   8.451   5.890  0.00  0.00    +0.000 A 
ATOM     25  C   UNL     1       5.122   9.643   6.003  0.00  0.00    +0.000 A 
ATOM     26  N   UNL     1       3.968   9.774   6.684  0.00  0.00    +0.000 NA
ATOM     27  C   UNL     1       3.497   8.663   7.284  0.00  0.00    +0.000 A 
ATOM     28  C   UNL     1       4.126   7.426   7.231  0.00  0.00    +0.000 A 
ENDBRANCH  21  23
ENDBRANCH   1  17
TORSDOF 4
