REMARK  Name = 
REMARK  10 active torsions:
REMARK  status: ('A' for Active; 'I' for Inactive)
REMARK    1  A    between atoms: C_1  and  C_2
REMARK    2  A    between atoms: C_2  and  N_3
REMARK    3  A    between atoms: C_2  and  C_20
REMARK    4  A    between atoms: N_3  and  C_4
REMARK    5  A    between atoms: C_4  and  C_5
REMARK    6  A    between atoms: C_8  and  C_9
REMARK    7  A    between atoms: C_9  and  N_10
REMARK    8  A    between atoms: N_10  and  C_11
REMARK    9  A    between atoms: C_11  and  C_12
REMARK   10  A    between atoms: N_15  and  C_16
REMARK                            x       y       z     vdW  Elec       q    Type
REMARK                         _______ _______ _______ _____ _____    ______ ____
ROOT
ATOM      1  C   UNL     1       0.482   0.547  -1.461  0.00  0.00    +0.000 C 
ENDROOT
BRANCH   1   2
ATOM      2  C   UNL     1      -1.039   0.494  -1.495  0.00  0.00    +0.000 A 
ATOM      3  N   UNL     1      -1.642  -0.563  -0.920  0.00  0.00    +0.000 NA
ATOM      4  C   UNL     1      -2.988  -0.548  -0.897  0.00  0.00    +0.000 A 
ATOM      5  C   UNL     1      -3.763   0.480  -1.380  0.00  0.00    +0.000 A 
ATOM      6  C   UNL     1      -3.044   1.507  -1.966  0.00  0.00    +0.000 A 
ATOM      7  N   UNL     1      -1.698   1.543  -2.035  0.00  0.00    +0.000 NA
BRANCH   5   8
ATOM      8  C   UNL     1      -5.261   0.474  -1.357  0.00  0.00    +0.000 C 
BRANCH   8   9
ATOM      9  N   UNL     1      -5.775  -0.213  -0.168  0.00  0.00    +0.000 NA
ATOM     10  H   UNL     1      -5.451   0.270   0.667  0.00  0.00    +0.000 HD
BRANCH   9  11
ATOM     11  C   UNL     1      -7.237  -0.291  -0.150  0.00  0.00    +0.000 C 
BRANCH  11  12
ATOM     12  C   UNL     1      -7.703  -1.022   1.122  0.00  0.00    +0.000 C 
ATOM     13  C   UNL     1      -7.229  -2.487   1.169  0.00  0.00    +0.000 C 
ATOM     14  C   UNL     1      -8.500  -3.306   1.350  0.00  0.00    +0.000 C 
ATOM     15  N   UNL     1      -9.503  -2.465   0.698  0.00  0.00    +0.000 NA
ATOM     16  C   UNL     1     -10.864  -2.906   0.956  0.00  0.00    +0.000 C 
ATOM     17  C   UNL     1      -9.231  -1.119   1.202  0.00  0.00    +0.000 C 
ENDBRANCH  11  12
ENDBRANCH   9  11
ENDBRANCH   8   9
ENDBRANCH   5   8
ENDBRANCH   1   2
BRANCH   1  18
ATOM     18  N   UNL     1       1.163  -0.537  -2.208  0.00  0.00    +0.000 NA
ATOM     19  H   UNL     1       0.828  -0.505  -3.171  0.00  0.00    +0.000 HD
BRANCH  18  21
ATOM     20  C   UNL     1       3.216  -0.320  -0.781  0.00  0.00    +0.000 C 
ATOM     21  C   UNL     1       2.619  -0.366  -2.203  0.00  0.00    +0.000 C 
BRANCH  21  22
ATOM     22  C   UNL     1       3.278  -1.529  -2.916  0.00  0.00    +0.000 A 
ATOM     23  C   UNL     1       3.080  -2.865  -2.596  0.00  0.00    +0.000 A 
ATOM     24  S   UNL     1       4.382  -3.854  -3.103  0.00  0.00    +0.000 S 
ATOM     25  C   UNL     1       5.146  -2.545  -3.882  0.00  0.00    +0.000 A 
ATOM     26  N   UNL     1       6.385  -2.660  -4.431  0.00  0.00    +0.000 NA
ATOM     27  C   UNL     1       6.785  -1.601  -5.057  0.00  0.00    +0.000 A 
ATOM     28  N   UNL     1       6.045  -0.455  -5.215  0.00  0.00    +0.000 N 
ATOM     29  C   UNL     1       4.799  -0.285  -4.656  0.00  0.00    +0.000 A 
ATOM     30  O   UNL     1       4.133   0.725  -4.858  0.00  0.00    +0.000 OA
ATOM     31  C   UNL     1       4.353  -1.414  -3.865  0.00  0.00    +0.000 A 
ATOM     32  H   UNL     1       6.380   0.300  -5.795  0.00  0.00    +0.000 HD
ENDBRANCH  21  22
ENDBRANCH  18  21
ENDBRANCH   1  18
TORSDOF 8
