REMARK  Name = 
REMARK  5 active torsions:
REMARK  status: ('A' for Active; 'I' for Inactive)
REMARK    1  A    between atoms: C_2  and  C_4
REMARK    2  A    between atoms: C_7  and  O_8
REMARK    3  A    between atoms: O_8  and  C_9
REMARK    4  A    between atoms: C_9  and  C_10
REMARK    5  A    between atoms: C_12  and  C_13
REMARK                            x       y       z     vdW  Elec       q    Type
REMARK                         _______ _______ _______ _____ _____    ______ ____
ROOT
ATOM      1  C   UNL     1       5.332  -5.631   1.747  0.00  0.00    +0.000 C 
ENDROOT
BRANCH   1   2
ATOM      2  C   UNL     1       6.326  -6.591   2.366  0.00  0.00    +0.000 A 
ATOM      3  C   UNL     1       7.455  -6.130   3.048  0.00  0.00    +0.000 A 
ATOM      4  C   UNL     1       8.324  -7.035   3.679  0.00  0.00    +0.000 A 
ATOM      5  C   UNL     1       7.998  -8.394   3.578  0.00  0.00    +0.000 A 
ATOM      6  C   UNL     1       6.862  -8.774   2.885  0.00  0.00    +0.000 A 
ATOM      7  N   UNL     1       6.018  -7.909   2.290  0.00  0.00    +0.000 NA
BRANCH   4   8
ATOM      8  C   UNL     1       9.510  -6.580   4.443  0.00  0.00    +0.000 A 
ATOM      9  C   UNL     1       9.514  -5.351   5.130  0.00  0.00    +0.000 A 
ATOM     10  C   UNL     1      10.616  -4.938   5.885  0.00  0.00    +0.000 A 
ATOM     11  C   UNL     1      11.741  -5.748   5.979  0.00  0.00    +0.000 A 
ATOM     12  C   UNL     1      11.772  -6.962   5.304  0.00  0.00    +0.000 A 
ATOM     13  C   UNL     1      10.673  -7.367   4.539  0.00  0.00    +0.000 A 
ENDBRANCH   4   8
ENDBRANCH   1   2
BRANCH   1  14
ATOM     14  O   UNL     1       5.968  -4.430   1.304  0.00  0.00    +0.000 OA
BRANCH  14  18
ATOM     15  C   UNL     1       3.792  -1.429  -0.609  0.00  0.00    +0.000 A 
ATOM     16  C   UNL     1       3.108  -2.570  -0.174  0.00  0.00    +0.000 A 
ATOM     17  C   UNL     1       3.800  -3.599   0.479  0.00  0.00    +0.000 A 
ATOM     18  C   UNL     1       5.176  -3.496   0.695  0.00  0.00    +0.000 A 
ATOM     19  C   UNL     1       5.853  -2.356   0.257  0.00  0.00    +0.000 A 
ATOM     20  C   UNL     1       5.170  -1.329  -0.399  0.00  0.00    +0.000 A 
BRANCH  15  22
ATOM     21  N   UNL     1       1.778  -0.132  -1.057  0.00  0.00    +0.000 N 
ATOM     22  C   UNL     1       3.103  -0.326  -1.327  0.00  0.00    +0.000 C 
ATOM     23  O   UNL     1       3.701   0.408  -2.105  0.00  0.00    +0.000 OA
ATOM     24  H   UNL     1       1.355   0.688  -1.473  0.00  0.00    +0.000 HD
ATOM     25  H   UNL     1       1.326  -0.531  -0.247  0.00  0.00    +0.000 HD
ENDBRANCH  15  22
ENDBRANCH  14  18
ENDBRANCH   1  14
TORSDOF 5
