REMARK  Name = 
REMARK  4 active torsions:
REMARK  status: ('A' for Active; 'I' for Inactive)
REMARK    1  A    between atoms: C_2  and  C_4
REMARK    2  A    between atoms: C_7  and  N_8
REMARK    3  A    between atoms: N_8  and  C_9
REMARK    4  A    between atoms: C_9  and  C_10
REMARK                            x       y       z     vdW  Elec       q    Type
REMARK                         _______ _______ _______ _____ _____    ______ ____
ROOT
ATOM      1  C   UNL     1       2.738  -1.320   0.897  0.00  0.00    +0.000 A 
ATOM      2  C   UNL     1       4.079  -1.004   0.733  0.00  0.00    +0.000 A 
ATOM      3  C   UNL     1       5.026  -1.980   1.038  0.00  0.00    +0.000 A 
ATOM      4  C   UNL     1       4.625  -3.252   1.456  0.00  0.00    +0.000 A 
ATOM      5  C   UNL     1       3.251  -3.449   1.616  0.00  0.00    +0.000 A 
ATOM      6  N   UNL     1       2.295  -2.526   1.347  0.00  0.00    +0.000 NA
ENDROOT
BRANCH   1   8
ATOM      7  N   UNL     1       0.400  -0.690   0.831  0.00  0.00    +0.000 N 
ATOM      8  C   UNL     1       1.689  -0.301   0.577  0.00  0.00    +0.000 C 
ATOM      9  O   UNL     1       1.953   0.805   0.123  0.00  0.00    +0.000 OA
ATOM     10  H   UNL     1      -0.360  -0.051   0.652  0.00  0.00    +0.000 HD
ATOM     11  H   UNL     1       0.226  -1.612   1.215  0.00  0.00    +0.000 HD
ENDBRANCH   1   8
BRANCH   4  12
ATOM     12  N   UNL     1       5.619  -4.191   1.756  0.00  0.00    +0.000 N 
ATOM     13  H   UNL     1       6.058  -3.967   2.651  0.00  0.00    +0.000 HD
BRANCH  12  14
ATOM     14  C   UNL     1       5.253  -5.612   1.719  0.00  0.00    +0.000 C 
BRANCH  14  15
ATOM     15  C   UNL     1       6.488  -6.489   1.637  0.00  0.00    +0.000 A 
ATOM     16  C   UNL     1       7.384  -6.341   0.577  0.00  0.00    +0.000 A 
ATOM     17  C   UNL     1       8.484  -7.188   0.498  0.00  0.00    +0.000 A 
ATOM     18  C   UNL     1       8.663  -8.162   1.473  0.00  0.00    +0.000 A 
ATOM     19  C   UNL     1       7.731  -8.242   2.494  0.00  0.00    +0.000 A 
ATOM     20  N   UNL     1       6.654  -7.432   2.600  0.00  0.00    +0.000 NA
ENDBRANCH  14  15
ENDBRANCH  12  14
ENDBRANCH   4  12
TORSDOF 4
