REMARK  Name = 
REMARK  7 active torsions:
REMARK  status: ('A' for Active; 'I' for Inactive)
REMARK    1  A    between atoms: C_1  and  C_2
REMARK    2  A    between atoms: C_2  and  C_3
REMARK    3  A    between atoms: C_2  and  C_4
REMARK    4  A    between atoms: C_6  and  C_7
REMARK    5  A    between atoms: N_12  and  C_13
REMARK    6  A    between atoms: C_13  and  C_14
REMARK    7  A    between atoms: C_18  and  C_19
REMARK                            x       y       z     vdW  Elec       q    Type
REMARK                         _______ _______ _______ _____ _____    ______ ____
ROOT
ATOM      1  C   UNL     1       3.165   1.045   1.207  0.00  0.00    +0.000 A 
ATOM      2  C   UNL     1       2.740   2.350   1.209  0.00  0.00    +0.000 A 
ATOM      3  C   UNL     1       2.937   3.031   2.387  0.00  0.00    +0.000 A 
ATOM      4  N   UNL     1       3.529   2.507   3.490  0.00  0.00    +0.000 NA
ATOM      5  C   UNL     1       3.928   1.236   3.391  0.00  0.00    +0.000 A 
ATOM      6  N   UNL     1       4.609   0.632   4.432  0.00  0.00    +0.000 N 
ATOM      7  N   UNL     1       3.738   0.481   2.298  0.00  0.00    +0.000 NA
ATOM      8  H   UNL     1       4.480  -0.371   4.388  0.00  0.00    +0.000 HD
ENDROOT
BRANCH   3   9
ATOM      9  C   UNL     1       2.471   4.451   2.479  0.00  0.00    +0.000 C 
ATOM     10  N   UNL     1       2.651   5.052   3.696  0.00  0.00    +0.000 N 
ATOM     11  O   UNL     1       1.958   5.037   1.535  0.00  0.00    +0.000 OA
ATOM     12  H   UNL     1       3.077   4.539   4.458  0.00  0.00    +0.000 HD
ATOM     13  H   UNL     1       2.356   6.009   3.822  0.00  0.00    +0.000 HD
ENDBRANCH   3   9
BRANCH   1  15
ATOM     14  C   UNL     1       4.377  -0.253  -0.571  0.00  0.00    +0.000 C 
ATOM     15  C   UNL     1       3.014   0.207  -0.049  0.00  0.00    +0.000 C 
ATOM     16  C   UNL     1       2.086  -0.982   0.191  0.00  0.00    +0.000 C 
ENDBRANCH   1  15
BRANCH   6  17
ATOM     17  C   UNL     1       4.583   1.282   5.720  0.00  0.00    +0.000 C 
BRANCH  17  18
ATOM     18  C   UNL     1       5.257   0.432   6.768  0.00  0.00    +0.000 A 
ATOM     19  C   UNL     1       4.520  -0.413   7.586  0.00  0.00    +0.000 A 
ATOM     20  N   UNL     1       5.054  -1.170   8.567  0.00  0.00    +0.000 NA
ATOM     21  C   UNL     1       6.396  -1.077   8.749  0.00  0.00    +0.000 A 
ATOM     22  C   UNL     1       7.257  -0.266   8.005  0.00  0.00    +0.000 A 
ATOM     23  C   UNL     1       6.645   0.481   6.982  0.00  0.00    +0.000 A 
BRANCH  22  24
ATOM     24  C   UNL     1       8.706  -0.173   8.299  0.00  0.00    +0.000 A 
ATOM     25  C   UNL     1       9.656   0.018   7.276  0.00  0.00    +0.000 A 
ATOM     26  C   UNL     1      11.020   0.151   7.559  0.00  0.00    +0.000 A 
ATOM     27  C   UNL     1      11.458   0.081   8.874  0.00  0.00    +0.000 A 
ATOM     28  F   UNL     1      12.762   0.215   9.147  0.00  0.00    +0.000 F 
ATOM     29  C   UNL     1      10.557  -0.121   9.908  0.00  0.00    +0.000 A 
ATOM     30  C   UNL     1       9.193  -0.244   9.622  0.00  0.00    +0.000 A 
ENDBRANCH  22  24
ENDBRANCH  17  18
ENDBRANCH   6  17
TORSDOF 5
