REMARK  Name = 
REMARK  5 active torsions:
REMARK  status: ('A' for Active; 'I' for Inactive)
REMARK    1  A    between atoms: N_1  and  C_2
REMARK    2  A    between atoms: C_2  and  C_3
REMARK    3  A    between atoms: C_5  and  C_6
REMARK    4  A    between atoms: C_6  and  N_7
REMARK    5  A    between atoms: C_12  and  C_13
REMARK                            x       y       z     vdW  Elec       q    Type
REMARK                         _______ _______ _______ _____ _____    ______ ____
ROOT
ATOM      1  N   UNL     1       6.154   2.608   3.256  0.00  0.00    +0.000 N 
ATOM      2  C   UNL     1       6.123   3.608   2.313  0.00  0.00    +0.000 A 
ATOM      3  C   UNL     1       6.116   4.816   2.976  0.00  0.00    +0.000 A 
ATOM      4  C   UNL     1       6.096   4.540   4.367  0.00  0.00    +0.000 A 
ATOM      5  C   UNL     1       6.062   5.327   5.531  0.00  0.00    +0.000 A 
ATOM      6  C   UNL     1       5.999   4.670   6.762  0.00  0.00    +0.000 A 
ATOM      7  C   UNL     1       6.021   3.275   6.769  0.00  0.00    +0.000 A 
ATOM      8  N   UNL     1       6.087   2.469   5.674  0.00  0.00    +0.000 NA
ATOM      9  C   UNL     1       6.111   3.155   4.515  0.00  0.00    +0.000 A 
ENDROOT
BRANCH   6  10
ATOM     10  C   UNL     1       5.891   5.381   8.060  0.00  0.00    +0.000 C 
ATOM     11  N   UNL     1       5.821   6.748   8.055  0.00  0.00    +0.000 N 
ATOM     12  O   UNL     1       5.848   4.771   9.120  0.00  0.00    +0.000 OA
ATOM     13  H   UNL     1       5.807   7.333   7.232  0.00  0.00    +0.000 HD
ATOM     14  H   UNL     1       5.708   7.205   8.952  0.00  0.00    +0.000 HD
ENDBRANCH   6  10
BRANCH   1  15
ATOM     15  C   UNL     1       6.296   1.195   2.952  0.00  0.00    +0.000 C 
BRANCH  15  18
ATOM     16  C   UNL     1       3.789  -1.562   2.647  0.00  0.00    +0.000 C 
ATOM     17  C   UNL     1       5.150  -0.970   2.315  0.00  0.00    +0.000 C 
ATOM     18  C   UNL     1       4.971   0.471   2.753  0.00  0.00    +0.000 C 
ATOM     19  C   UNL     1       4.147   0.297   4.019  0.00  0.00    +0.000 C 
ATOM     20  O   UNL     1       3.319  -0.865   3.820  0.00  0.00    +0.000 OA
BRANCH  16  21
ATOM     21  C   UNL     1       3.783  -3.081   2.871  0.00  0.00    +0.000 C 
BRANCH  21  22
ATOM     22  N   UNL     1       4.661  -3.504   3.967  0.00  0.00    +0.000 NA
ATOM     23  H   UNL     1       4.516  -4.495   4.152  0.00  0.00    +0.000 HD
ATOM     24  H   UNL     1       4.360  -3.009   4.810  0.00  0.00    +0.000 HD
ENDBRANCH  21  22
ENDBRANCH  16  21
ENDBRANCH  15  18
ENDBRANCH   1  15
TORSDOF 5
