REMARK  Name = 
REMARK  5 active torsions:
REMARK  status: ('A' for Active; 'I' for Inactive)
REMARK    1  A    between atoms: C_2  and  C_3
REMARK    2  A    between atoms: C_7  and  C_8
REMARK    3  A    between atoms: C_8  and  C_9
REMARK    4  A    between atoms: C_13  and  C_14
REMARK    5  A    between atoms: C_18  and  C_19
REMARK                            x       y       z     vdW  Elec       q    Type
REMARK                         _______ _______ _______ _____ _____    ______ ____
ROOT
ATOM      1  C   UNL     1      -3.543   1.603   0.678  0.00  0.00    +0.000 A 
ATOM      2  C   UNL     1      -4.353   0.662   0.027  0.00  0.00    +0.000 A 
ATOM      3  C   UNL     1      -5.192  -0.140   0.770  0.00  0.00    +0.000 A 
ATOM      4  N   UNL     1      -5.339  -0.021   2.101  0.00  0.00    +0.000 NA
ATOM      5  C   UNL     1      -4.640   0.954   2.742  0.00  0.00    +0.000 A 
ATOM      6  C   UNL     1      -3.735   1.769   2.058  0.00  0.00    +0.000 A 
ENDROOT
BRANCH   5   7
ATOM      7  C   UNL     1      -4.923   1.094   4.185  0.00  0.00    +0.000 A 
ATOM      8  C   UNL     1      -5.815   0.232   4.835  0.00  0.00    +0.000 A 
ATOM      9  N   UNL     1      -6.183   0.364   6.136  0.00  0.00    +0.000 NA
ATOM     10  C   UNL     1      -5.622   1.409   6.784  0.00  0.00    +0.000 A 
ATOM     11  C   UNL     1      -4.719   2.262   6.166  0.00  0.00    +0.000 A 
ATOM     12  N   UNL     1      -4.339   2.128   4.859  0.00  0.00    +0.000 NA
BRANCH  11  13
ATOM     13  C   UNL     1      -4.145   3.390   6.948  0.00  0.00    +0.000 C 
ATOM     14  N   UNL     1      -3.250   4.189   6.288  0.00  0.00    +0.000 N 
ATOM     15  O   UNL     1      -4.452   3.600   8.114  0.00  0.00    +0.000 OA
ATOM     16  H   UNL     1      -3.012   4.008   5.322  0.00  0.00    +0.000 HD
ATOM     17  H   UNL     1      -2.844   4.975   6.778  0.00  0.00    +0.000 HD
ENDBRANCH  11  13
ENDBRANCH   5   7
BRANCH   1  18
ATOM     18  C   UNL     1      -2.407   2.279  -0.087  0.00  0.00    +0.000 C 
ATOM     19  C   UNL     1      -0.978   2.193   0.448  0.00  0.00    +0.000 C 
ATOM     20  C   UNL     1      -1.397   1.259  -0.635  0.00  0.00    +0.000 C 
BRANCH  18  25
ATOM     21  C   UNL     1      -2.841   5.947  -1.180  0.00  0.00    +0.000 A 
ATOM     22  C   UNL     1      -3.195   5.741  -2.503  0.00  0.00    +0.000 A 
ATOM     23  N   UNL     1      -3.353   4.516  -3.054  0.00  0.00    +0.000 NA
ATOM     24  C   UNL     1      -3.126   3.451  -2.249  0.00  0.00    +0.000 A 
ATOM     25  C   UNL     1      -2.733   3.524  -0.905  0.00  0.00    +0.000 A 
ATOM     26  C   UNL     1      -2.615   4.823  -0.377  0.00  0.00    +0.000 A 
BRANCH  21  28
ATOM     27  N   UNL     1      -2.576   8.349  -0.235  0.00  0.00    +0.000 NA
ATOM     28  C   UNL     1      -2.703   7.275  -0.658  0.00  0.00    +0.000 C 
ENDBRANCH  21  28
ENDBRANCH  18  25
ENDBRANCH   1  18
TORSDOF 5
