REMARK  Name = 
REMARK  7 active torsions:
REMARK  status: ('A' for Active; 'I' for Inactive)
REMARK    1  A    between atoms: C_1  and  O_2
REMARK    2  A    between atoms: O_2  and  C_3
REMARK    3  A    between atoms: C_7  and  C_8
REMARK    4  A    between atoms: C_8  and  N_9
REMARK    5  A    between atoms: C_13  and  C_14
REMARK    6  A    between atoms: C_14  and  N_15
REMARK    7  A    between atoms: C_16  and  C_18
REMARK                            x       y       z     vdW  Elec       q    Type
REMARK                         _______ _______ _______ _____ _____    ______ ____
ROOT
ATOM      1  N   UNL     1       6.444  -0.695  -4.600  0.00  0.00    +0.000 N 
ATOM      2  C   UNL     1       7.604  -1.270  -5.107  0.00  0.00    +0.000 A 
ATOM      3  N   UNL     1       8.594  -0.487  -5.556  0.00  0.00    +0.000 NA
ATOM      4  C   UNL     1       9.662  -1.097  -6.111  0.00  0.00    +0.000 A 
ATOM      5  C   UNL     1       9.791  -2.461  -6.234  0.00  0.00    +0.000 A 
ATOM      6  C   UNL     1       8.740  -3.175  -5.698  0.00  0.00    +0.000 A 
ATOM      7  N   UNL     1       7.644  -2.607  -5.142  0.00  0.00    +0.000 NA
ATOM      8  H   UNL     1       5.723  -1.408  -4.677  0.00  0.00    +0.000 HD
ENDROOT
BRANCH   1   9
ATOM      9  C   UNL     1       6.113   0.551  -5.277  0.00  0.00    +0.000 C 
BRANCH   9  14
ATOM     10  C   UNL     1       2.656   1.822  -5.120  0.00  0.00    +0.000 A 
ATOM     11  C   UNL     1       2.489   2.246  -3.814  0.00  0.00    +0.000 A 
ATOM     12  C   UNL     1       3.560   2.104  -2.936  0.00  0.00    +0.000 A 
ATOM     13  C   UNL     1       4.749   1.546  -3.397  0.00  0.00    +0.000 A 
ATOM     14  C   UNL     1       4.830   1.142  -4.731  0.00  0.00    +0.000 A 
ATOM     15  N   UNL     1       3.794   1.274  -5.593  0.00  0.00    +0.000 NA
BRANCH  10  17
ATOM     16  C   UNL     1       1.866   1.594  -7.305  0.00  0.00    +0.000 C 
ATOM     17  O   UNL     1       1.575   1.981  -5.965  0.00  0.00    +0.000 OA
ENDBRANCH  10  17
ENDBRANCH   9  14
ENDBRANCH   1   9
BRANCH   5  18
ATOM     18  C   UNL     1      10.945  -3.083  -6.935  0.00  0.00    +0.000 C 
BRANCH  18  19
ATOM     19  N   UNL     1      12.095  -3.262  -6.087  0.00  0.00    +0.000 N 
ATOM     20  C   UNL     1      13.232  -3.849  -6.594  0.00  0.00    +0.000 C 
ATOM     21  O   UNL     1      13.286  -4.224  -7.763  0.00  0.00    +0.000 OA
ATOM     22  H   UNL     1      12.147  -2.738  -5.216  0.00  0.00    +0.000 HD
BRANCH  20  23
ATOM     23  C   UNL     1      14.344  -4.083  -5.667  0.00  0.00    +0.000 A 
ATOM     24  C   UNL     1      15.483  -4.749  -6.103  0.00  0.00    +0.000 A 
ATOM     25  S   UNL     1      16.546  -5.177  -4.838  0.00  0.00    +0.000 S 
ATOM     26  C   UNL     1      15.546  -4.436  -3.679  0.00  0.00    +0.000 A 
ATOM     27  N   UNL     1      15.821  -4.518  -2.350  0.00  0.00    +0.000 NA
ATOM     28  C   UNL     1      14.998  -3.869  -1.595  0.00  0.00    +0.000 A 
ATOM     29  N   UNL     1      13.953  -3.107  -2.052  0.00  0.00    +0.000 N 
ATOM     30  C   UNL     1      13.662  -2.969  -3.387  0.00  0.00    +0.000 A 
ATOM     31  O   UNL     1      12.793  -2.198  -3.783  0.00  0.00    +0.000 OA
ATOM     32  C   UNL     1      14.483  -3.775  -4.266  0.00  0.00    +0.000 A 
ATOM     33  H   UNL     1      13.391  -2.563  -1.412  0.00  0.00    +0.000 HD
ENDBRANCH  20  23
ENDBRANCH  18  19
ENDBRANCH   5  18
TORSDOF 6
