REMARK  Name = 
REMARK  5 active torsions:
REMARK  status: ('A' for Active; 'I' for Inactive)
REMARK    1  A    between atoms: C_2  and  C_18
REMARK    2  A    between atoms: N_3  and  C_4
REMARK    3  A    between atoms: C_4  and  C_5
REMARK    4  A    between atoms: C_8  and  C_9
REMARK    5  A    between atoms: C_9  and  N_10
REMARK                            x       y       z     vdW  Elec       q    Type
REMARK                         _______ _______ _______ _____ _____    ______ ____
ROOT
ATOM      1  O   UNL     1       0.133  -0.036   0.737  0.00  0.00    +0.000 OA
ATOM      2  C   UNL     1      -0.009   0.747   1.669  0.00  0.00    +0.000 C 
ATOM      3  N   UNL     1       1.032   1.338   2.353  0.00  0.00    +0.000 N 
ATOM      4  H   UNL     1       0.808   2.102   2.974  0.00  0.00    +0.000 HD
ENDROOT
BRANCH   2   5
ATOM      5  C   UNL     1      -1.288   1.336   2.047  0.00  0.00    +0.000 A 
ATOM      6  C   UNL     1      -2.218   1.769   1.117  0.00  0.00    +0.000 A 
ATOM      7  S   UNL     1      -3.341   2.872   1.804  0.00  0.00    +0.000 S 
ATOM      8  C   UNL     1      -2.676   2.669   3.362  0.00  0.00    +0.000 A 
ATOM      9  N   UNL     1      -3.064   3.419   4.428  0.00  0.00    +0.000 NA
ATOM     10  C   UNL     1      -2.499   3.089   5.543  0.00  0.00    +0.000 A 
ATOM     11  N   UNL     1      -1.616   2.044   5.699  0.00  0.00    +0.000 N 
ATOM     12  C   UNL     1      -1.192   1.260   4.656  0.00  0.00    +0.000 A 
ATOM     13  O   UNL     1      -0.444   0.308   4.814  0.00  0.00    +0.000 OA
ATOM     14  C   UNL     1      -1.718   1.680   3.370  0.00  0.00    +0.000 A 
ATOM     15  H   UNL     1      -1.275   1.788   6.615  0.00  0.00    +0.000 HD
ENDBRANCH   2   5
BRANCH   3  16
ATOM     16  C   UNL     1       2.396   1.248   1.891  0.00  0.00    +0.000 C 
BRANCH  16  17
ATOM     17  C   UNL     1       3.288   2.124   2.711  0.00  0.00    +0.000 A 
ATOM     18  C   UNL     1       4.031   1.671   3.780  0.00  0.00    +0.000 A 
ATOM     19  N   UNL     1       4.796   2.470   4.562  0.00  0.00    +0.000 NA
ATOM     20  C   UNL     1       4.809   3.785   4.257  0.00  0.00    +0.000 A 
ATOM     21  N   UNL     1       4.116   4.326   3.232  0.00  0.00    +0.000 NA
ATOM     22  C   UNL     1       3.372   3.481   2.490  0.00  0.00    +0.000 A 
BRANCH  20  23
ATOM     23  C   UNL     1       5.563   4.745   5.168  0.00  0.00    +0.000 C 
BRANCH  23  24
ATOM     24  N   UNL     1       6.944   5.152   4.847  0.00  0.00    +0.000 NA
ATOM     25  C   UNL     1       7.145   5.711   3.502  0.00  0.00    +0.000 C 
ATOM     26  C   UNL     1       7.537   4.694   2.412  0.00  0.00    +0.000 C 
ATOM     27  O   UNL     1       8.616   3.849   2.831  0.00  0.00    +0.000 OA
ATOM     28  C   UNL     1       8.261   3.157   4.035  0.00  0.00    +0.000 C 
ATOM     29  C   UNL     1       7.970   4.151   5.164  0.00  0.00    +0.000 C 
ENDBRANCH  23  24
ENDBRANCH  20  23
ENDBRANCH  16  17
ENDBRANCH   3  16
TORSDOF 5
