REMARK  Name = 
REMARK  8 active torsions:
REMARK  status: ('A' for Active; 'I' for Inactive)
REMARK    1  A    between atoms: C_1  and  O_2
REMARK    2  A    between atoms: O_2  and  C_3
REMARK    3  A    between atoms: C_10  and  C_11
REMARK    4  A    between atoms: N_13  and  C_14
REMARK    5  A    between atoms: C_14  and  C_15
REMARK    6  A    between atoms: C_18  and  N_19
REMARK    7  A    between atoms: N_19  and  C_20
REMARK    8  A    between atoms: C_20  and  C_21
REMARK                            x       y       z     vdW  Elec       q    Type
REMARK                         _______ _______ _______ _____ _____    ______ ____
ROOT
ATOM      1  C   UNL     1       3.046  -2.151   2.558  0.00  0.00    +0.000 C 
ENDROOT
BRANCH   1   2
ATOM      2  C   UNL     1       1.940  -1.293   3.117  0.00  0.00    +0.000 A 
ATOM      3  C   UNL     1       0.787  -1.867   3.667  0.00  0.00    +0.000 A 
ATOM      4  C   UNL     1      -0.214  -1.062   4.231  0.00  0.00    +0.000 A 
ATOM      5  C   UNL     1      -0.082   0.329   4.265  0.00  0.00    +0.000 A 
ATOM      6  C   UNL     1       1.023   0.897   3.623  0.00  0.00    +0.000 A 
ATOM      7  C   UNL     1       2.031   0.101   3.068  0.00  0.00    +0.000 A 
BRANCH   5   8
ATOM      8  N   UNL     1      -1.019   1.196   4.834  0.00  0.00    +0.000 N 
ATOM      9  H   UNL     1      -1.617   1.608   4.121  0.00  0.00    +0.000 HD
BRANCH   8  10
ATOM     10  C   UNL     1      -1.787   0.735   5.987  0.00  0.00    +0.000 C 
BRANCH  10  11
ATOM     11  C   UNL     1      -2.213   1.901   6.861  0.00  0.00    +0.000 A 
ATOM     12  C   UNL     1      -3.363   1.786   7.662  0.00  0.00    +0.000 A 
ATOM     13  C   UNL     1      -3.723   2.811   8.544  0.00  0.00    +0.000 A 
ATOM     14  C   UNL     1      -2.934   3.949   8.635  0.00  0.00    +0.000 A 
ATOM     15  F   UNL     1      -3.275   4.921   9.490  0.00  0.00    +0.000 F 
ATOM     16  C   UNL     1      -1.790   4.086   7.860  0.00  0.00    +0.000 A 
ATOM     17  C   UNL     1      -1.426   3.062   6.983  0.00  0.00    +0.000 A 
ENDBRANCH  10  11
ENDBRANCH   8  10
ENDBRANCH   5   8
ENDBRANCH   1   2
BRANCH   1  20
ATOM     18  C   UNL     1       3.693  -3.209   0.435  0.00  0.00    +0.000 C 
ATOM     19  O   UNL     1       4.678  -3.726   0.956  0.00  0.00    +0.000 OA
ATOM     20  N   UNL     1       2.840  -2.420   1.158  0.00  0.00    +0.000 N 
ATOM     21  H   UNL     1       2.073  -1.949   0.701  0.00  0.00    +0.000 HD
BRANCH  18  29
ATOM     22  C   UNL     1       1.086  -2.221  -1.583  0.00  0.00    +0.000 A 
ATOM     23  N   UNL     1       0.211  -1.975  -2.577  0.00  0.00    +0.000 NA
ATOM     24  C   UNL     1       0.478  -2.476  -3.786  0.00  0.00    +0.000 A 
ATOM     25  N   UNL     1       1.533  -3.209  -4.135  0.00  0.00    +0.000 NA
ATOM     26  C   UNL     1       2.383  -3.424  -3.117  0.00  0.00    +0.000 A 
ATOM     27  S   UNL     1       3.786  -4.343  -3.379  0.00  0.00    +0.000 S 
ATOM     28  C   UNL     1       4.264  -4.165  -1.758  0.00  0.00    +0.000 A 
ATOM     29  C   UNL     1       3.382  -3.413  -0.990  0.00  0.00    +0.000 A 
ATOM     30  C   UNL     1       2.255  -2.970  -1.808  0.00  0.00    +0.000 A 
BRANCH  22  32
ATOM     31  C   UNL     1      -0.549  -1.392  -0.124  0.00  0.00    +0.000 C 
ATOM     32  O   UNL     1       0.831  -1.673  -0.343  0.00  0.00    +0.000 OA
ENDBRANCH  22  32
ENDBRANCH  18  29
ENDBRANCH   1  20
TORSDOF 7
