REMARK  Name = 
REMARK  11 active torsions:
REMARK  status: ('A' for Active; 'I' for Inactive)
REMARK    1  A    between atoms: N_1  and  C_2
REMARK    2  A    between atoms: C_2  and  C_3
REMARK    3  A    between atoms: C_3  and  N_4
REMARK    4  A    between atoms: C_3  and  C_21
REMARK    5  A    between atoms: N_4  and  C_5
REMARK    6  A    between atoms: C_5  and  C_6
REMARK    7  A    between atoms: C_9  and  C_10
REMARK    8  A    between atoms: C_10  and  O_11
REMARK    9  A    between atoms: O_11  and  C_12
REMARK   10  A    between atoms: C_12  and  C_13
REMARK   11  A    between atoms: C_21  and  C_23
REMARK                            x       y       z     vdW  Elec       q    Type
REMARK                         _______ _______ _______ _____ _____    ______ ____
ROOT
ATOM      1  C   UNL     1       3.000   0.796  -1.169  0.00  0.00    +0.000 C 
ENDROOT
BRANCH   1   2
ATOM      2  N   UNL     1       2.466   2.184  -1.107  0.00  0.00    +0.000 NA
ATOM      3  H   UNL     1       2.714   2.598  -2.010  0.00  0.00    +0.000 HD
BRANCH   2   4
ATOM      4  C   UNL     1       0.993   2.249  -1.005  0.00  0.00    +0.000 C 
BRANCH   4   5
ATOM      5  C   UNL     1       0.486   3.681  -0.926  0.00  0.00    +0.000 A 
ATOM      6  C   UNL     1       0.815   4.600  -1.922  0.00  0.00    +0.000 A 
ATOM      7  C   UNL     1       0.359   5.909  -1.816  0.00  0.00    +0.000 A 
ATOM      8  C   UNL     1      -0.426   6.277  -0.724  0.00  0.00    +0.000 A 
ATOM      9  C   UNL     1      -0.733   5.292   0.208  0.00  0.00    +0.000 A 
ATOM     10  N   UNL     1      -0.299   4.013   0.131  0.00  0.00    +0.000 NA
BRANCH   8  11
ATOM     11  C   UNL     1      -0.854   7.699  -0.511  0.00  0.00    +0.000 C 
BRANCH  11  12
ATOM     12  O   UNL     1      -0.371   8.206   0.734  0.00  0.00    +0.000 OA
BRANCH  12  13
ATOM     13  C   UNL     1       1.050   8.320   0.768  0.00  0.00    +0.000 C 
BRANCH  13  14
ATOM     14  C   UNL     1       1.453   8.830   2.121  0.00  0.00    +0.000 A 
ATOM     15  C   UNL     1       1.629   7.947   3.190  0.00  0.00    +0.000 A 
ATOM     16  C   UNL     1       2.011   8.461   4.419  0.00  0.00    +0.000 A 
ATOM     17  N   UNL     1       2.216   9.774   4.652  0.00  0.00    +0.000 NA
ATOM     18  C   UNL     1       2.018  10.610   3.613  0.00  0.00    +0.000 A 
ATOM     19  C   UNL     1       1.637  10.196   2.344  0.00  0.00    +0.000 A 
ENDBRANCH  13  14
ENDBRANCH  12  13
ENDBRANCH  11  12
ENDBRANCH   8  11
ENDBRANCH   4   5
ENDBRANCH   2   4
ENDBRANCH   1   2
BRANCH   1  20
ATOM     20  C   UNL     1       2.679  -0.053   0.074  0.00  0.00    +0.000 C 
ATOM     21  O   UNL     1       1.964  -1.052  -0.025  0.00  0.00    +0.000 OA
BRANCH  20  22
ATOM     22  C   UNL     1       3.231   0.329   1.386  0.00  0.00    +0.000 A 
ATOM     23  C   UNL     1       3.477   1.632   1.786  0.00  0.00    +0.000 A 
ATOM     24  S   UNL     1       3.903   1.763   3.438  0.00  0.00    +0.000 S 
ATOM     25  C   UNL     1       3.799   0.078   3.654  0.00  0.00    +0.000 A 
ATOM     26  N   UNL     1       3.979  -0.495   4.874  0.00  0.00    +0.000 NA
ATOM     27  C   UNL     1       3.839  -1.779   4.880  0.00  0.00    +0.000 A 
ATOM     28  N   UNL     1       3.582  -2.547   3.769  0.00  0.00    +0.000 N 
ATOM     29  C   UNL     1       3.561  -2.023   2.497  0.00  0.00    +0.000 A 
ATOM     30  O   UNL     1       3.672  -2.741   1.509  0.00  0.00    +0.000 OA
ATOM     31  C   UNL     1       3.531  -0.573   2.467  0.00  0.00    +0.000 A 
ATOM     32  H   UNL     1       3.596  -3.554   3.829  0.00  0.00    +0.000 HD
ENDBRANCH  20  22
ENDBRANCH   1  20
BRANCH   1  33
ATOM     33  C   UNL     1       2.586   0.074  -2.477  0.00  0.00    +0.000 C 
BRANCH  33  34
ATOM     34  N   UNL     1       2.881   0.897  -3.667  0.00  0.00    +0.000 NA
ATOM     35  H   UNL     1       2.560   0.388  -4.493  0.00  0.00    +0.000 HD
ATOM     36  H   UNL     1       3.894   0.968  -3.774  0.00  0.00    +0.000 HD
ENDBRANCH  33  34
ENDBRANCH   1  33
TORSDOF 11
