REMARK  Name = 
REMARK  3 active torsions:
REMARK  status: ('A' for Active; 'I' for Inactive)
REMARK    1  A    between atoms: C_2  and  C_3
REMARK    2  A    between atoms: N_7  and  C_8
REMARK    3  A    between atoms: C_8  and  C_9
REMARK                            x       y       z     vdW  Elec       q    Type
REMARK                         _______ _______ _______ _____ _____    ______ ____
ROOT
ATOM      1  C   UNL     1       1.155   1.148   3.934  0.00  0.00    +0.000 A 
ATOM      2  C   UNL     1       0.624   0.423   2.898  0.00  0.00    +0.000 A 
ATOM      3  N   UNL     1       1.315   0.099   1.783  0.00  0.00    +0.000 NA
ATOM      4  C   UNL     1       2.596   0.501   1.719  0.00  0.00    +0.000 A 
ATOM      5  N   UNL     1       3.247   0.314   0.502  0.00  0.00    +0.000 N 
ATOM      6  N   UNL     1       3.215   1.140   2.725  0.00  0.00    +0.000 NA
ATOM      7  C   UNL     1       2.480   1.478   3.800  0.00  0.00    +0.000 A 
ATOM      8  H   UNL     1       2.562   0.019  -0.183  0.00  0.00    +0.000 HD
ENDROOT
BRANCH   5   9
ATOM      9  C   UNL     1       4.366   1.173   0.087  0.00  0.00    +0.000 C 
ATOM     10  C   UNL     1       4.539   2.612   0.574  0.00  0.00    +0.000 C 
ATOM     11  C   UNL     1       4.041   2.367  -0.807  0.00  0.00    +0.000 C 
BRANCH   9  12
ATOM     12  C   UNL     1       5.674   0.432  -0.137  0.00  0.00    +0.000 A 
ATOM     13  C   UNL     1       6.219   0.218  -1.410  0.00  0.00    +0.000 A 
ATOM     14  C   UNL     1       7.535  -0.215  -1.550  0.00  0.00    +0.000 A 
ATOM     15  C   UNL     1       8.263  -0.479  -0.403  0.00  0.00    +0.000 A 
ATOM     16  N   UNL     1       7.754  -0.393   0.842  0.00  0.00    +0.000 NA
ATOM     17  C   UNL     1       6.477   0.051   0.941  0.00  0.00    +0.000 A 
ENDBRANCH   9  12
ENDBRANCH   5   9
BRANCH   1  19
ATOM     18  N   UNL     1      -0.237   1.936   5.960  0.00  0.00    +0.000 NA
ATOM     19  C   UNL     1       0.386   1.566   5.053  0.00  0.00    +0.000 C 
ENDBRANCH   1  19
TORSDOF 3
