REMARK  Name = 
REMARK  7 active torsions:
REMARK  status: ('A' for Active; 'I' for Inactive)
REMARK    1  A    between atoms: C_1  and  C_2
REMARK    2  A    between atoms: C_2  and  C_3
REMARK    3  A    between atoms: C_2  and  C_15
REMARK    4  A    between atoms: C_3  and  N_4
REMARK    5  A    between atoms: N_4  and  C_5
REMARK    6  A    between atoms: C_8  and  C_9
REMARK    7  A    between atoms: C_19  and  C_20
REMARK                            x       y       z     vdW  Elec       q    Type
REMARK                         _______ _______ _______ _____ _____    ______ ____
ROOT
ATOM      1  N   UNL     1       2.848  -2.159  -1.121  0.00  0.00    +0.000 N 
ATOM      2  H   UNL     1       1.865  -2.404  -1.035  0.00  0.00    +0.000 HD
ENDROOT
BRANCH   1   3
ATOM      3  C   UNL     1       3.448  -2.975  -2.097  0.00  0.00    +0.000 A 
ATOM      4  N   UNL     1       4.175  -2.373  -3.067  0.00  0.00    +0.000 NA
ATOM      5  C   UNL     1       4.791  -3.145  -3.991  0.00  0.00    +0.000 A 
ATOM      6  C   UNL     1       4.743  -4.527  -4.002  0.00  0.00    +0.000 A 
ATOM      7  C   UNL     1       3.999  -5.151  -2.998  0.00  0.00    +0.000 A 
ATOM      8  C   UNL     1       3.340  -4.374  -2.042  0.00  0.00    +0.000 A 
ATOM      9 CL   UNL     1       2.411  -5.171  -0.823  0.00  0.00    +0.000 Cl
BRANCH   6  10
ATOM     10  C   UNL     1       5.444  -5.347  -5.016  0.00  0.00    +0.000 C 
ATOM     11  N   UNL     1       6.142  -4.720  -6.011  0.00  0.00    +0.000 N 
ATOM     12  O   UNL     1       5.404  -6.571  -4.972  0.00  0.00    +0.000 OA
ATOM     13  H   UNL     1       6.234  -3.726  -6.149  0.00  0.00    +0.000 HD
ATOM     14  H   UNL     1       6.606  -5.320  -6.683  0.00  0.00    +0.000 HD
ENDBRANCH   6  10
ENDBRANCH   1   3
BRANCH   1  15
ATOM     15  C   UNL     1       3.063  -0.736  -1.348  0.00  0.00    +0.000 C 
BRANCH  15  17
ATOM     16  C   UNL     1       2.850  -0.040   1.112  0.00  0.00    +0.000 C 
ATOM     17  C   UNL     1       2.324   0.021  -0.287  0.00  0.00    +0.000 C 
BRANCH  17  18
ATOM     18  C   UNL     1       0.964   0.505  -0.568  0.00  0.00    +0.000 A 
ATOM     19  C   UNL     1      -0.076   0.242   0.331  0.00  0.00    +0.000 A 
ATOM     20  C   UNL     1      -1.392   0.584   0.017  0.00  0.00    +0.000 A 
ATOM     21  C   UNL     1      -1.681   1.216  -1.192  0.00  0.00    +0.000 A 
ATOM     22  C   UNL     1      -0.652   1.530  -2.081  0.00  0.00    +0.000 A 
ATOM     23  C   UNL     1       0.669   1.178  -1.764  0.00  0.00    +0.000 A 
BRANCH  22  24
ATOM     24  C   UNL     1      -0.944   2.191  -3.321  0.00  0.00    +0.000 C 
ATOM     25  N   UNL     1      -1.178   2.722  -4.326  0.00  0.00    +0.000 NA
ENDBRANCH  22  24
ENDBRANCH  17  18
ENDBRANCH  15  17
ENDBRANCH   1  15
TORSDOF 6
