REMARK  Name = 
REMARK  6 active torsions:
REMARK  status: ('A' for Active; 'I' for Inactive)
REMARK    1  A    between atoms: N_1  and  C_2
REMARK    2  A    between atoms: C_2  and  C_3
REMARK    3  A    between atoms: C_3  and  C_4
REMARK    4  A    between atoms: C_7  and  C_8
REMARK    5  A    between atoms: C_8  and  N_9
REMARK    6  A    between atoms: C_15  and  C_16
REMARK                            x       y       z     vdW  Elec       q    Type
REMARK                         _______ _______ _______ _____ _____    ______ ____
ROOT
ATOM      1  N   UNL     1       9.410   0.140   1.229  0.00  0.00    +0.000 N 
ATOM      2  C   UNL     1       9.635   0.823   2.401  0.00  0.00    +0.000 A 
ATOM      3  C   UNL     1      10.421   1.914   2.114  0.00  0.00    +0.000 A 
ATOM      4  C   UNL     1      10.700   1.895   0.721  0.00  0.00    +0.000 A 
ATOM      5  C   UNL     1      11.465   2.719  -0.126  0.00  0.00    +0.000 A 
ATOM      6  C   UNL     1      11.565   2.407  -1.487  0.00  0.00    +0.000 A 
ATOM      7  C   UNL     1      10.903   1.296  -2.024  0.00  0.00    +0.000 A 
ATOM      8  C   UNL     1      10.118   0.478  -1.189  0.00  0.00    +0.000 A 
ATOM      9  C   UNL     1      10.045   0.784   0.182  0.00  0.00    +0.000 A 
ENDROOT
BRANCH   7  10
ATOM     10  C   UNL     1      11.031   0.952  -3.489  0.00  0.00    +0.000 C 
ATOM     11  F   UNL     1      11.862   1.788  -4.175  0.00  0.00    +0.000 F 
ATOM     12  F   UNL     1      11.525  -0.302  -3.688  0.00  0.00    +0.000 F 
ATOM     13  F   UNL     1       9.839   0.993  -4.147  0.00  0.00    +0.000 F 
ENDBRANCH   7  10
BRANCH   1  14
ATOM     14  C   UNL     1       8.779  -1.175   1.159  0.00  0.00    +0.000 C 
BRANCH  14  18
ATOM     15  C   UNL     1       4.542  -1.182   0.621  0.00  0.00    +0.000 A 
ATOM     16  C   UNL     1       5.064  -1.141   1.914  0.00  0.00    +0.000 A 
ATOM     17  C   UNL     1       6.444  -1.093   2.103  0.00  0.00    +0.000 A 
ATOM     18  C   UNL     1       7.283  -1.108   0.989  0.00  0.00    +0.000 A 
ATOM     19  N   UNL     1       6.795  -1.148  -0.277  0.00  0.00    +0.000 NA
ATOM     20  C   UNL     1       5.451  -1.173  -0.431  0.00  0.00    +0.000 A 
BRANCH  15  21
ATOM     21  C   UNL     1       3.059  -1.272   0.374  0.00  0.00    +0.000 C 
BRANCH  21  22
ATOM     22  C   UNL     1       2.584  -2.725   0.253  0.00  0.00    +0.000 C 
BRANCH  22  23
ATOM     23  N   UNL     1       1.142  -2.791   0.021  0.00  0.00    +0.000 NA
ATOM     24  H   UNL     1       0.860  -3.767  -0.070  0.00  0.00    +0.000 HD
ATOM     25  H   UNL     1       0.913  -2.348  -0.868  0.00  0.00    +0.000 HD
ENDBRANCH  22  23
ENDBRANCH  21  22
ENDBRANCH  15  21
ENDBRANCH  14  18
ENDBRANCH   1  14
TORSDOF 6
