REMARK  Name = 
REMARK  9 active torsions:
REMARK  status: ('A' for Active; 'I' for Inactive)
REMARK    1  A    between atoms: C_1  and  C_2
REMARK    2  A    between atoms: C_2  and  C_3
REMARK    3  A    between atoms: C_7  and  C_8
REMARK    4  A    between atoms: C_8  and  C_9
REMARK    5  A    between atoms: C_9  and  N_10
REMARK    6  A    between atoms: N_10  and  C_11
REMARK    7  A    between atoms: C_14  and  C_15
REMARK    8  A    between atoms: N_24  and  C_25
REMARK    9  A    between atoms: C_25  and  C_26
REMARK                            x       y       z     vdW  Elec       q    Type
REMARK                         _______ _______ _______ _____ _____    ______ ____
ROOT
ATOM      1  C   UNL     1       2.920   0.339   1.496  0.00  0.00    +0.000 A 
ATOM      2  C   UNL     1       2.680   1.609   2.043  0.00  0.00    +0.000 A 
ATOM      3  C   UNL     1       3.004   1.896   3.374  0.00  0.00    +0.000 A 
ATOM      4  C   UNL     1       3.562   0.916   4.195  0.00  0.00    +0.000 A 
ATOM      5  C   UNL     1       3.820  -0.360   3.691  0.00  0.00    +0.000 A 
ATOM      6  C   UNL     1       3.515  -0.612   2.339  0.00  0.00    +0.000 A 
ENDROOT
BRANCH   1   8
ATOM      7  C   UNL     1       0.917   0.070   0.048  0.00  0.00    +0.000 C 
ATOM      8  C   UNL     1       2.462  -0.019   0.062  0.00  0.00    +0.000 C 
ATOM      9  C   UNL     1       3.089   0.964  -0.960  0.00  0.00    +0.000 C 
ATOM     10  C   UNL     1       2.754   0.594  -2.405  0.00  0.00    +0.000 C 
ATOM     11  C   UNL     1       3.117  -0.855  -2.728  0.00  0.00    +0.000 C 
ATOM     12  N   UNL     1       2.515  -1.792  -1.772  0.00  0.00    +0.000 NA
ATOM     13  C   UNL     1       2.880  -1.462  -0.385  0.00  0.00    +0.000 C 
BRANCH  12  14
ATOM     14  C   UNL     1       2.859  -3.205  -2.102  0.00  0.00    +0.000 C 
BRANCH  14  15
ATOM     15  C   UNL     1       4.326  -3.707  -2.105  0.00  0.00    +0.000 C 
ATOM     16  F   UNL     1       5.222  -2.746  -1.794  0.00  0.00    +0.000 F 
ATOM     17  F   UNL     1       4.492  -4.706  -1.206  0.00  0.00    +0.000 F 
ATOM     18  F   UNL     1       4.665  -4.192  -3.322  0.00  0.00    +0.000 F 
ENDBRANCH  14  15
ENDBRANCH  12  14
ENDBRANCH   1   8
BRANCH   5  19
ATOM     19  C   UNL     1       4.369  -1.441   4.612  0.00  0.00    +0.000 C 
BRANCH  19  20
ATOM     20  C   UNL     1       4.624  -2.774   3.899  0.00  0.00    +0.000 C 
BRANCH  20  21
ATOM     21  N   UNL     1       5.098  -3.842   4.781  0.00  0.00    +0.000 N 
ATOM     22  H   UNL     1       4.507  -3.952   5.604  0.00  0.00    +0.000 HD
BRANCH  21  23
ATOM     23  C   UNL     1       5.315  -5.081   4.137  0.00  0.00    +0.000 A 
ATOM     24  C   UNL     1       5.746  -5.190   2.808  0.00  0.00    +0.000 A 
ATOM     25  C   UNL     1       6.015  -6.436   2.242  0.00  0.00    +0.000 A 
ATOM     26  C   UNL     1       5.881  -7.559   3.040  0.00  0.00    +0.000 A 
ATOM     27  N   UNL     1       5.502  -7.517   4.345  0.00  0.00    +0.000 NA
ATOM     28  C   UNL     1       5.249  -6.282   4.852  0.00  0.00    +0.000 A 
BRANCH  26  29
ATOM     29  C   UNL     1       6.191  -8.906   2.464  0.00  0.00    +0.000 C 
ATOM     30  N   UNL     1       6.040  -9.958   3.326  0.00  0.00    +0.000 N 
ATOM     31  O   UNL     1       6.560  -9.068   1.309  0.00  0.00    +0.000 OA
ATOM     32  H   UNL     1       5.764  -9.777   4.286  0.00  0.00    +0.000 HD
ATOM     33  H   UNL     1       6.268 -10.891   3.019  0.00  0.00    +0.000 HD
ENDBRANCH  26  29
ENDBRANCH  21  23
ENDBRANCH  20  21
ENDBRANCH  19  20
ENDBRANCH   5  19
TORSDOF 8
