REMARK  Name = 
REMARK  3 active torsions:
REMARK  status: ('A' for Active; 'I' for Inactive)
REMARK    1  A    between atoms: C_2  and  C_4
REMARK    2  A    between atoms: N_8  and  C_9
REMARK    3  A    between atoms: C_9  and  C_10
REMARK                            x       y       z     vdW  Elec       q    Type
REMARK                         _______ _______ _______ _____ _____    ______ ____
ROOT
ATOM      1  C   UNL     1       2.992  -1.517  -0.010  0.00  0.00    +0.000 A 
ATOM      2  C   UNL     1       4.269  -1.261   0.477  0.00  0.00    +0.000 A 
ATOM      3  C   UNL     1       5.094  -2.339   0.811  0.00  0.00    +0.000 A 
ATOM      4  C   UNL     1       4.650  -3.647   0.611  0.00  0.00    +0.000 A 
ATOM      5  N   UNL     1       5.541  -4.688   0.866  0.00  0.00    +0.000 N 
ATOM      6  N   UNL     1       3.412  -3.896   0.142  0.00  0.00    +0.000 NA
ATOM      7  C   UNL     1       2.600  -2.840  -0.122  0.00  0.00    +0.000 A 
ATOM      8  H   UNL     1       5.784  -4.737   1.851  0.00  0.00    +0.000 HD
ENDROOT
BRANCH   1  10
ATOM      9  N   UNL     1       2.580   0.710  -0.886  0.00  0.00    +0.000 N 
ATOM     10  C   UNL     1       2.045  -0.457  -0.414  0.00  0.00    +0.000 C 
ATOM     11  O   UNL     1       0.835  -0.630  -0.378  0.00  0.00    +0.000 OA
ATOM     12  H   UNL     1       1.924   1.370  -1.283  0.00  0.00    +0.000 HD
ATOM     13  H   UNL     1       3.543   0.778  -1.185  0.00  0.00    +0.000 HD
ENDBRANCH   1  10
BRANCH   5  14
ATOM     14  C   UNL     1       5.222  -6.002   0.314  0.00  0.00    +0.000 C 
BRANCH  14  15
ATOM     15  C   UNL     1       4.277  -6.848   1.148  0.00  0.00    +0.000 A 
ATOM     16  C   UNL     1       2.928  -6.942   0.799  0.00  0.00    +0.000 A 
ATOM     17  C   UNL     1       2.101  -7.814   1.499  0.00  0.00    +0.000 A 
ATOM     18  C   UNL     1       2.638  -8.577   2.527  0.00  0.00    +0.000 A 
ATOM     19  C   UNL     1       3.981  -8.419   2.825  0.00  0.00    +0.000 A 
ATOM     20  N   UNL     1       4.810  -7.573   2.171  0.00  0.00    +0.000 NA
ENDBRANCH  14  15
ENDBRANCH   5  14
TORSDOF 3
