REMARK  Name = 
REMARK  8 active torsions:
REMARK  status: ('A' for Active; 'I' for Inactive)
REMARK    1  A    between atoms: C_1  and  C_2
REMARK    2  A    between atoms: C_2  and  C_3
REMARK    3  A    between atoms: C_2  and  C_4
REMARK    4  A    between atoms: C_2  and  C_5
REMARK    5  A    between atoms: C_9  and  C_10
REMARK    6  A    between atoms: N_16  and  C_17
REMARK    7  A    between atoms: C_17  and  C_18
REMARK    8  A    between atoms: C_22  and  C_23
REMARK                            x       y       z     vdW  Elec       q    Type
REMARK                         _______ _______ _______ _____ _____    ______ ____
ROOT
ATOM      1  C   UNL     1       2.955  -1.007  -0.996  0.00  0.00    +0.000 A 
ATOM      2  N   UNL     1       3.601  -0.789  -2.137  0.00  0.00    +0.000 NA
ATOM      3  C   UNL     1       3.737  -2.005  -2.752  0.00  0.00    +0.000 A 
ATOM      4  C   UNL     1       4.335  -2.362  -3.970  0.00  0.00    +0.000 A 
ATOM      5  C   UNL     1       4.281  -3.714  -4.338  0.00  0.00    +0.000 A 
ATOM      6  C   UNL     1       3.647  -4.615  -3.472  0.00  0.00    +0.000 A 
ATOM      7  N   UNL     1       3.090  -4.316  -2.270  0.00  0.00    +0.000 NA
ATOM      8  C   UNL     1       3.168  -3.002  -1.982  0.00  0.00    +0.000 A 
ATOM      9  N   UNL     1       2.700  -2.368  -0.856  0.00  0.00    +0.000 N 
ENDROOT
BRANCH   5  10
ATOM     10  C   UNL     1       4.862  -4.259  -5.592  0.00  0.00    +0.000 C 
ATOM     11  N   UNL     1       5.494  -3.409  -6.449  0.00  0.00    +0.000 N 
ATOM     12  O   UNL     1       4.779  -5.453  -5.860  0.00  0.00    +0.000 OA
ATOM     13  H   UNL     1       5.612  -2.415  -6.314  0.00  0.00    +0.000 HD
ATOM     14  H   UNL     1       5.879  -3.818  -7.294  0.00  0.00    +0.000 HD
ENDBRANCH   5  10
BRANCH   1  16
ATOM     15  C   UNL     1       2.985   1.472  -0.595  0.00  0.00    +0.000 C 
ATOM     16  C   UNL     1       2.566   0.099  -0.013  0.00  0.00    +0.000 C 
ATOM     17  C   UNL     1       3.307  -0.044   1.330  0.00  0.00    +0.000 C 
ATOM     18  C   UNL     1       1.043   0.149   0.206  0.00  0.00    +0.000 C 
ENDBRANCH   1  16
BRANCH   9  19
ATOM     19  C   UNL     1       2.161  -3.079   0.290  0.00  0.00    +0.000 C 
BRANCH  19  20
ATOM     20  C   UNL     1       0.844  -3.782   0.067  0.00  0.00    +0.000 A 
ATOM     21  C   UNL     1       0.513  -4.859   0.904  0.00  0.00    +0.000 A 
ATOM     22  C   UNL     1      -0.748  -5.449   0.838  0.00  0.00    +0.000 A 
ATOM     23  C   UNL     1      -1.697  -4.968  -0.060  0.00  0.00    +0.000 A 
ATOM     24  C   UNL     1      -1.393  -3.898  -0.910  0.00  0.00    +0.000 A 
ATOM     25  C   UNL     1      -0.118  -3.313  -0.839  0.00  0.00    +0.000 A 
BRANCH  24  26
ATOM     26  C   UNL     1      -2.407  -3.342  -1.878  0.00  0.00    +0.000 C 
ATOM     27  F   UNL     1      -3.624  -3.946  -1.800  0.00  0.00    +0.000 F 
ATOM     28  F   UNL     1      -2.637  -2.013  -1.674  0.00  0.00    +0.000 F 
ATOM     29  F   UNL     1      -2.013  -3.457  -3.176  0.00  0.00    +0.000 F 
ENDBRANCH  24  26
ENDBRANCH  19  20
ENDBRANCH   9  19
TORSDOF 5
