REMARK  Name = 
REMARK  8 active torsions:
REMARK  status: ('A' for Active; 'I' for Inactive)
REMARK    1  A    between atoms: N_1  and  C_2
REMARK    2  A    between atoms: C_2  and  C_3
REMARK    3  A    between atoms: C_3  and  N_4
REMARK    4  A    between atoms: C_3  and  C_17
REMARK    5  A    between atoms: C_5  and  C_7
REMARK    6  A    between atoms: C_20  and  C_21
REMARK    7  A    between atoms: C_21  and  N_22
REMARK    8  A    between atoms: C_23  and  C_25
REMARK                            x       y       z     vdW  Elec       q    Type
REMARK                         _______ _______ _______ _____ _____    ______ ____
ROOT
ATOM      1  C   UNL     1       2.930  -0.801  -1.317  0.00  0.00    +0.000 C 
ENDROOT
BRANCH   1   2
ATOM      2  C   UNL     1       4.459  -0.750  -1.245  0.00  0.00    +0.000 A 
ATOM      3  C   UNL     1       5.132   0.480  -1.224  0.00  0.00    +0.000 A 
ATOM      4  C   UNL     1       6.530   0.531  -1.137  0.00  0.00    +0.000 A 
ATOM      5  C   UNL     1       7.289  -0.646  -1.073  0.00  0.00    +0.000 A 
ATOM      6  C   UNL     1       6.619  -1.875  -1.080  0.00  0.00    +0.000 A 
ATOM      7  C   UNL     1       5.223  -1.926  -1.167  0.00  0.00    +0.000 A 
BRANCH   5   8
ATOM      8  C   UNL     1       8.794  -0.596  -1.035  0.00  0.00    +0.000 C 
BRANCH   8   9
ATOM      9  N   UNL     1       9.346  -0.609   0.298  0.00  0.00    +0.000 N 
ATOM     10  C   UNL     1      10.708  -0.534   0.480  0.00  0.00    +0.000 C 
ATOM     11  O   UNL     1      11.501  -0.509  -0.461  0.00  0.00    +0.000 OA
ATOM     12  H   UNL     1       8.755  -0.573   1.123  0.00  0.00    +0.000 HD
BRANCH  10  13
ATOM     13  C   UNL     1      11.202  -0.557   1.928  0.00  0.00    +0.000 C 
ATOM     14  C   UNL     1      11.427  -1.962   2.449  0.00  0.00    +0.000 C 
ATOM     15  C   UNL     1      11.536  -1.735   3.946  0.00  0.00    +0.000 C 
ATOM     16  C   UNL     1      10.659  -0.514   4.210  0.00  0.00    +0.000 C 
ATOM     17  N   UNL     1      10.204  -0.037   2.895  0.00  0.00    +0.000 NA
ATOM     18  H   UNL     1      10.213   0.984   2.872  0.00  0.00    +0.000 HD
ENDBRANCH  10  13
ENDBRANCH   8   9
ENDBRANCH   5   8
ENDBRANCH   1   2
BRANCH   1  19
ATOM     19  N   UNL     1       2.444  -1.430  -0.096  0.00  0.00    +0.000 N 
ATOM     20  C   UNL     1       1.116  -1.528   0.235  0.00  0.00    +0.000 C 
ATOM     21  O   UNL     1       0.208  -1.214  -0.525  0.00  0.00    +0.000 OA
ATOM     22  H   UNL     1       3.116  -1.452   0.665  0.00  0.00    +0.000 HD
BRANCH  20  23
ATOM     23  C   UNL     1       0.841  -2.106   1.555  0.00  0.00    +0.000 A 
ATOM     24  C   UNL     1      -0.317  -2.842   1.772  0.00  0.00    +0.000 A 
ATOM     25  S   UNL     1      -0.446  -3.445   3.363  0.00  0.00    +0.000 S 
ATOM     26  C   UNL     1       1.013  -2.699   3.826  0.00  0.00    +0.000 A 
ATOM     27  N   UNL     1       1.476  -2.788   5.100  0.00  0.00    +0.000 NA
ATOM     28  C   UNL     1       2.576  -2.141   5.314  0.00  0.00    +0.000 A 
ATOM     29  N   UNL     1       3.259  -1.426   4.366  0.00  0.00    +0.000 N 
ATOM     30  C   UNL     1       2.856  -1.348   3.057  0.00  0.00    +0.000 A 
ATOM     31  O   UNL     1       3.534  -0.772   2.215  0.00  0.00    +0.000 OA
ATOM     32  C   UNL     1       1.606  -2.029   2.772  0.00  0.00    +0.000 A 
ATOM     33  H   UNL     1       4.128  -0.961   4.589  0.00  0.00    +0.000 HD
ENDBRANCH  20  23
ENDBRANCH   1  19
BRANCH   1  34
ATOM     34  C   UNL     1       2.433  -1.535  -2.600  0.00  0.00    +0.000 C 
BRANCH  34  35
ATOM     35  N   UNL     1       2.904  -0.947  -3.862  0.00  0.00    +0.000 NA
ATOM     36  H   UNL     1       2.733  -1.613  -4.614  0.00  0.00    +0.000 HD
ATOM     37  H   UNL     1       3.915  -0.816  -3.820  0.00  0.00    +0.000 HD
ENDBRANCH  34  35
ENDBRANCH   1  34
TORSDOF 8
