REMARK  Name = 
REMARK  6 active torsions:
REMARK  status: ('A' for Active; 'I' for Inactive)
REMARK    1  A    between atoms: C_1  and  C_2
REMARK    2  A    between atoms: C_2  and  N_3
REMARK    3  A    between atoms: C_2  and  C_16
REMARK    4  A    between atoms: C_4  and  C_6
REMARK    5  A    between atoms: C_19  and  C_20
REMARK    6  A    between atoms: C_20  and  N_21
REMARK                            x       y       z     vdW  Elec       q    Type
REMARK                         _______ _______ _______ _____ _____    ______ ____
ROOT
ATOM      1  C   UNL     1       3.733  -0.865  -0.567  0.00  0.00    +0.000 C 
ATOM      2  C   UNL     1       2.543  -0.013  -0.109  0.00  0.00    +0.000 C 
ENDROOT
BRANCH   2   3
ATOM      3  C   UNL     1       2.989   1.414   0.181  0.00  0.00    +0.000 A 
ATOM      4  C   UNL     1       2.448   2.489  -0.536  0.00  0.00    +0.000 A 
ATOM      5  C   UNL     1       2.832   3.804  -0.247  0.00  0.00    +0.000 A 
ATOM      6  C   UNL     1       3.774   4.074   0.756  0.00  0.00    +0.000 A 
ATOM      7  C   UNL     1       4.312   3.002   1.478  0.00  0.00    +0.000 A 
ATOM      8  C   UNL     1       3.927   1.690   1.191  0.00  0.00    +0.000 A 
BRANCH   6   9
ATOM      9  C   UNL     1       4.203   5.492   1.056  0.00  0.00    +0.000 C 
BRANCH   9  10
ATOM     10  N   UNL     1       3.343   6.082   2.062  0.00  0.00    +0.000 N 
ATOM     11  C   UNL     1       3.571   7.376   2.500  0.00  0.00    +0.000 A 
ATOM     12  C   UNL     1       4.091   8.369   1.692  0.00  0.00    +0.000 A 
ATOM     13  C   UNL     1       4.220   9.624   2.243  0.00  0.00    +0.000 A 
ATOM     14  N   UNL     1       3.846   9.923   3.495  0.00  0.00    +0.000 NA
ATOM     15  C   UNL     1       3.331   8.901   4.191  0.00  0.00    +0.000 A 
ATOM     16  N   UNL     1       3.187   7.635   3.761  0.00  0.00    +0.000 NA
ATOM     17  H   UNL     1       3.134   5.496   2.866  0.00  0.00    +0.000 HD
ENDBRANCH   9  10
ENDBRANCH   6   9
ENDBRANCH   2   3
BRANCH   2  18
ATOM     18  N   UNL     1       1.893  -0.562   1.071  0.00  0.00    +0.000 N 
ATOM     19  C   UNL     1       1.311  -1.805   1.093  0.00  0.00    +0.000 C 
ATOM     20  O   UNL     1       1.335  -2.568   0.132  0.00  0.00    +0.000 OA
ATOM     21  H   UNL     1       1.570   0.119   1.753  0.00  0.00    +0.000 HD
BRANCH  19  22
ATOM     22  C   UNL     1       0.713  -2.216   2.368  0.00  0.00    +0.000 A 
ATOM     23  C   UNL     1       0.679  -3.560   2.712  0.00  0.00    +0.000 A 
ATOM     24  S   UNL     1      -0.029  -3.855   4.236  0.00  0.00    +0.000 S 
ATOM     25  C   UNL     1      -0.359  -2.201   4.462  0.00  0.00    +0.000 A 
ATOM     26  N   UNL     1      -1.001  -1.759   5.576  0.00  0.00    +0.000 NA
ATOM     27  C   UNL     1      -1.219  -0.484   5.596  0.00  0.00    +0.000 A 
ATOM     28  N   UNL     1      -0.838   0.389   4.610  0.00  0.00    +0.000 N 
ATOM     29  C   UNL     1      -0.149  -0.008   3.490  0.00  0.00    +0.000 A 
ATOM     30  O   UNL     1       0.243   0.804   2.655  0.00  0.00    +0.000 OA
ATOM     31  C   UNL     1       0.092  -1.434   3.404  0.00  0.00    +0.000 A 
ATOM     32  H   UNL     1      -1.021   1.378   4.696  0.00  0.00    +0.000 HD
ENDBRANCH  19  22
ENDBRANCH   2  18
TORSDOF 5
