REMARK  Name = 
REMARK  9 active torsions:
REMARK  status: ('A' for Active; 'I' for Inactive)
REMARK    1  A    between atoms: C_1  and  O_2
REMARK    2  A    between atoms: O_2  and  C_3
REMARK    3  A    between atoms: C_10  and  C_11
REMARK    4  A    between atoms: N_13  and  C_14
REMARK    5  A    between atoms: C_14  and  C_15
REMARK    6  A    between atoms: C_18  and  C_19
REMARK    7  A    between atoms: C_19  and  N_20
REMARK    8  A    between atoms: N_20  and  C_21
REMARK    9  A    between atoms: C_21  and  C_22
REMARK                            x       y       z     vdW  Elec       q    Type
REMARK                         _______ _______ _______ _____ _____    ______ ____
ROOT
ATOM      1  C   UNL     1       1.298   2.654  -1.827  0.00  0.00    +0.000 A 
ATOM      2  C   UNL     1       1.213   1.333  -2.286  0.00  0.00    +0.000 A 
ATOM      3  C   UNL     1       0.032   0.851  -2.870  0.00  0.00    +0.000 A 
ATOM      4  C   UNL     1      -1.087   1.682  -3.028  0.00  0.00    +0.000 A 
ATOM      5  C   UNL     1      -0.972   3.024  -2.638  0.00  0.00    +0.000 A 
ATOM      6  C   UNL     1       0.206   3.504  -2.047  0.00  0.00    +0.000 A 
ENDROOT
BRANCH   1   7
ATOM      7  C   UNL     1       2.534   3.148  -1.109  0.00  0.00    +0.000 C 
BRANCH   7  10
ATOM      8  C   UNL     1       4.688   4.248  -1.616  0.00  0.00    +0.000 C 
ATOM      9  O   UNL     1       5.027   4.231  -0.433  0.00  0.00    +0.000 OA
ATOM     10  N   UNL     1       3.484   3.740  -2.018  0.00  0.00    +0.000 N 
ATOM     11  H   UNL     1       3.219   3.783  -2.990  0.00  0.00    +0.000 HD
BRANCH   8  19
ATOM     12  C   UNL     1       4.400   4.548  -5.028  0.00  0.00    +0.000 A 
ATOM     13  N   UNL     1       4.524   4.815  -6.345  0.00  0.00    +0.000 NA
ATOM     14  C   UNL     1       5.633   5.431  -6.755  0.00  0.00    +0.000 A 
ATOM     15  N   UNL     1       6.659   5.822  -6.001  0.00  0.00    +0.000 NA
ATOM     16  C   UNL     1       6.487   5.550  -4.697  0.00  0.00    +0.000 A 
ATOM     17  S   UNL     1       7.697   5.975  -3.584  0.00  0.00    +0.000 S 
ATOM     18  C   UNL     1       6.792   5.353  -2.285  0.00  0.00    +0.000 A 
ATOM     19  C   UNL     1       5.564   4.816  -2.658  0.00  0.00    +0.000 A 
ATOM     20  C   UNL     1       5.392   4.928  -4.107  0.00  0.00    +0.000 A 
BRANCH  12  22
ATOM     21  C   UNL     1       2.664   3.092  -5.597  0.00  0.00    +0.000 C 
ATOM     22  O   UNL     1       3.249   3.927  -4.603  0.00  0.00    +0.000 OA
ENDBRANCH  12  22
ENDBRANCH   8  19
ENDBRANCH   7  10
ENDBRANCH   1   7
BRANCH   4  23
ATOM     23  C   UNL     1      -2.381   1.147  -3.615  0.00  0.00    +0.000 C 
BRANCH  23  24
ATOM     24  N   UNL     1      -2.905   0.031  -2.825  0.00  0.00    +0.000 NA
ATOM     25  H   UNL     1      -3.062   0.349  -1.870  0.00  0.00    +0.000 HD
BRANCH  24  26
ATOM     26  C   UNL     1      -4.164  -0.488  -3.362  0.00  0.00    +0.000 C 
BRANCH  26  27
ATOM     27  C   UNL     1      -4.678  -1.627  -2.506  0.00  0.00    +0.000 A 
ATOM     28  C   UNL     1      -3.898  -2.781  -2.312  0.00  0.00    +0.000 A 
ATOM     29  C   UNL     1      -4.336  -3.815  -1.479  0.00  0.00    +0.000 A 
ATOM     30  C   UNL     1      -5.569  -3.715  -0.839  0.00  0.00    +0.000 A 
ATOM     31  C   UNL     1      -6.358  -2.590  -1.052  0.00  0.00    +0.000 A 
ATOM     32  F   UNL     1      -7.548  -2.497  -0.443  0.00  0.00    +0.000 F 
ATOM     33  C   UNL     1      -5.929  -1.553  -1.878  0.00  0.00    +0.000 A 
ENDBRANCH  26  27
ENDBRANCH  24  26
ENDBRANCH  23  24
ENDBRANCH   4  23
TORSDOF 8
