REMARK  Name = 
REMARK  12 active torsions:
REMARK  status: ('A' for Active; 'I' for Inactive)
REMARK    1  A    between atoms: C_1  and  C_2
REMARK    2  A    between atoms: C_2  and  N_3
REMARK    3  A    between atoms: N_3  and  C_4
REMARK    4  A    between atoms: C_4  and  C_5
REMARK    5  A    between atoms: C_6  and  C_8
REMARK    6  A    between atoms: C_11  and  O_12
REMARK    7  A    between atoms: O_12  and  C_13
REMARK    8  A    between atoms: C_13  and  C_14
REMARK    9  A    between atoms: C_14  and  C_15
REMARK   10  A    between atoms: C_14  and  C_16
REMARK   11  A    between atoms: C_14  and  C_17
REMARK   12  A    between atoms: C_21  and  C_22
REMARK                            x       y       z     vdW  Elec       q    Type
REMARK                         _______ _______ _______ _____ _____    ______ ____
ROOT
ATOM      1  C   UNL     1       4.907   2.499   1.902  0.00  0.00    +0.000 A 
ATOM      2  N   UNL     1       5.772   3.309   1.255  0.00  0.00    +0.000 NA
ATOM      3  C   UNL     1       6.182   4.411   1.914  0.00  0.00    +0.000 A 
ATOM      4  C   UNL     1       5.752   4.756   3.173  0.00  0.00    +0.000 A 
ATOM      5  C   UNL     1       4.863   3.862   3.739  0.00  0.00    +0.000 A 
ATOM      6  N   UNL     1       4.424   2.733   3.138  0.00  0.00    +0.000 NA
ENDROOT
BRANCH   1   8
ATOM      7  N   UNL     1       5.221   0.610   0.209  0.00  0.00    +0.000 N 
ATOM      8  C   UNL     1       4.402   1.261   1.178  0.00  0.00    +0.000 C 
ATOM      9  O   UNL     1       3.271   0.842   1.436  0.00  0.00    +0.000 OA
BRANCH   7  11
ATOM     10  C   UNL     1       4.575  -1.797   0.156  0.00  0.00    +0.000 C 
ATOM     11  C   UNL     1       4.599  -0.461  -0.574  0.00  0.00    +0.000 C 
ENDBRANCH   7  11
BRANCH   7  12
ATOM     12  C   UNL     1       6.594   1.054  -0.063  0.00  0.00    +0.000 C 
ATOM     13  C   UNL     1       7.506   0.203  -0.928  0.00  0.00    +0.000 C 
ENDBRANCH   7  12
ENDBRANCH   1   8
BRANCH   4  14
ATOM     14  O   UNL     1       6.098   5.855   3.892  0.00  0.00    +0.000 OA
BRANCH  14  15
ATOM     15  C   UNL     1       6.994   6.784   3.263  0.00  0.00    +0.000 C 
BRANCH  15  16
ATOM     16  C   UNL     1       7.229   8.016   4.185  0.00  0.00    +0.000 C 
ATOM     17  C   UNL     1       5.857   8.687   4.438  0.00  0.00    +0.000 C 
ATOM     18  C   UNL     1       7.763   7.546   5.557  0.00  0.00    +0.000 C 
BRANCH  16  19
ATOM     19  C   UNL     1       8.259   8.965   3.534  0.00  0.00    +0.000 A 
ATOM     20  C   UNL     1       7.953  10.295   3.201  0.00  0.00    +0.000 A 
ATOM     21  C   UNL     1       8.896  11.136   2.597  0.00  0.00    +0.000 A 
ATOM     22  C   UNL     1      10.174  10.668   2.314  0.00  0.00    +0.000 A 
ATOM     23  C   UNL     1      10.516   9.355   2.646  0.00  0.00    +0.000 A 
ATOM     24  C   UNL     1       9.568   8.519   3.250  0.00  0.00    +0.000 A 
BRANCH  23  25
ATOM     25  C   UNL     1      11.834   8.866   2.366  0.00  0.00    +0.000 C 
ATOM     26  N   UNL     1      12.895   8.466   2.135  0.00  0.00    +0.000 NA
ENDBRANCH  23  25
ENDBRANCH  16  19
ENDBRANCH  15  16
ENDBRANCH  14  15
ENDBRANCH   4  14
TORSDOF 8
