REMARK  Name = 
REMARK  8 active torsions:
REMARK  status: ('A' for Active; 'I' for Inactive)
REMARK    1  A    between atoms: C_1  and  O_2
REMARK    2  A    between atoms: O_2  and  C_3
REMARK    3  A    between atoms: N_7  and  C_8
REMARK    4  A    between atoms: C_8  and  C_9
REMARK    5  A    between atoms: C_9  and  C_12
REMARK    6  A    between atoms: C_16  and  O_17
REMARK    7  A    between atoms: O_17  and  C_18
REMARK    8  A    between atoms: C_24  and  C_25
REMARK                            x       y       z     vdW  Elec       q    Type
REMARK                         _______ _______ _______ _____ _____    ______ ____
ROOT
ATOM      1  C   UNL     1       2.883  -0.995  -0.722  0.00  0.00    +0.000 A 
ATOM      2  C   UNL     1       2.640  -1.148  -2.080  0.00  0.00    +0.000 A 
ATOM      3  C   UNL     1       3.416  -2.027  -2.831  0.00  0.00    +0.000 A 
ATOM      4  C   UNL     1       4.448  -2.744  -2.236  0.00  0.00    +0.000 A 
ATOM      5  N   UNL     1       5.241  -3.610  -2.949  0.00  0.00    +0.000 N 
ATOM      6  N   UNL     1       4.719  -2.609  -0.924  0.00  0.00    +0.000 NA
ATOM      7  C   UNL     1       3.941  -1.737  -0.189  0.00  0.00    +0.000 A 
ATOM      8  H   UNL     1       5.968  -4.089  -2.430  0.00  0.00    +0.000 HD
ENDROOT
BRANCH   7   9
ATOM      9  C   UNL     1       4.292  -1.665   1.278  0.00  0.00    +0.000 C 
ATOM     10  N   UNL     1       5.322  -2.488   1.668  0.00  0.00    +0.000 N 
ATOM     11  O   UNL     1       3.733  -0.962   2.112  0.00  0.00    +0.000 OA
ATOM     12  H   UNL     1       5.776  -3.078   0.982  0.00  0.00    +0.000 HD
ATOM     13  H   UNL     1       5.600  -2.502   2.639  0.00  0.00    +0.000 HD
ENDBRANCH   7   9
BRANCH   1  15
ATOM     14  C   UNL     1       0.851   0.173  -0.367  0.00  0.00    +0.000 C 
ATOM     15  O   UNL     1       2.169  -0.141   0.067  0.00  0.00    +0.000 OA
ENDBRANCH   1  15
BRANCH   5  16
ATOM     16  C   UNL     1       5.030  -3.913  -4.368  0.00  0.00    +0.000 C 
BRANCH  16  17
ATOM     17  C   UNL     1       5.998  -4.963  -4.969  0.00  0.00    +0.000 C 
ATOM     18  F   UNL     1       7.276  -4.497  -4.850  0.00  0.00    +0.000 F 
ATOM     19  F   UNL     1       5.951  -6.090  -4.197  0.00  0.00    +0.000 F 
BRANCH  17  20
ATOM     20  C   UNL     1       5.617  -5.245  -6.414  0.00  0.00    +0.000 A 
ATOM     21  C   UNL     1       4.701  -6.260  -6.725  0.00  0.00    +0.000 A 
ATOM     22  C   UNL     1       4.305  -6.476  -8.047  0.00  0.00    +0.000 A 
ATOM     23  C   UNL     1       4.820  -5.687  -9.078  0.00  0.00    +0.000 A 
ATOM     24  C   UNL     1       5.740  -4.683  -8.786  0.00  0.00    +0.000 A 
ATOM     25  C   UNL     1       6.131  -4.461  -7.461  0.00  0.00    +0.000 A 
BRANCH  24  26
ATOM     26  O   UNL     1       6.286  -3.828  -9.711  0.00  0.00    +0.000 OA
BRANCH  26  27
ATOM     27  C   UNL     1       6.339  -4.225 -11.100  0.00  0.00    +0.000 C 
ATOM     28  C   UNL     1       7.314  -5.368 -11.468  0.00  0.00    +0.000 C 
ATOM     29  C   UNL     1       7.858  -4.512 -12.620  0.00  0.00    +0.000 C 
ATOM     30  C   UNL     1       7.193  -3.285 -11.986  0.00  0.00    +0.000 C 
ENDBRANCH  26  27
ENDBRANCH  24  26
ENDBRANCH  17  20
ENDBRANCH  16  17
ENDBRANCH   5  16
TORSDOF 7
