REMARK  Name = 
REMARK  6 active torsions:
REMARK  status: ('A' for Active; 'I' for Inactive)
REMARK    1  A    between atoms: C_1  and  C_2
REMARK    2  A    between atoms: N_4  and  C_5
REMARK    3  A    between atoms: C_5  and  C_6
REMARK    4  A    between atoms: C_6  and  C_7
REMARK    5  A    between atoms: C_10  and  C_11
REMARK    6  A    between atoms: C_11  and  N_12
REMARK                            x       y       z     vdW  Elec       q    Type
REMARK                         _______ _______ _______ _____ _____    ______ ____
ROOT
ATOM      1  C   UNL     1       6.760   2.183  -1.489  0.00  0.00    +0.000 A 
ATOM      2  C   UNL     1       7.442   3.299  -1.989  0.00  0.00    +0.000 A 
ATOM      3  C   UNL     1       8.836   3.377  -1.932  0.00  0.00    +0.000 A 
ATOM      4  C   UNL     1       9.586   2.351  -1.353  0.00  0.00    +0.000 A 
ATOM      5  C   UNL     1       8.909   1.239  -0.834  0.00  0.00    +0.000 A 
ATOM      6  C   UNL     1       7.514   1.158  -0.900  0.00  0.00    +0.000 A 
ENDROOT
BRANCH   1   7
ATOM      7  C   UNL     1       5.248   2.084  -1.505  0.00  0.00    +0.000 C 
BRANCH   7   8
ATOM      8  C   UNL     1       4.569   2.820  -2.666  0.00  0.00    +0.000 C 
BRANCH   8  12
ATOM      9  C   UNL     1       0.989   1.765  -3.258  0.00  0.00    +0.000 C 
ATOM     10  C   UNL     1       2.487   1.657  -3.308  0.00  0.00    +0.000 C 
ATOM     11  O   UNL     1       3.068   0.746  -3.886  0.00  0.00    +0.000 OA
ATOM     12  N   UNL     1       3.126   2.686  -2.657  0.00  0.00    +0.000 N 
ATOM     13  H   UNL     1       2.577   3.388  -2.177  0.00  0.00    +0.000 HD
ENDBRANCH   8  12
ENDBRANCH   7   8
ENDBRANCH   1   7
BRANCH   4  14
ATOM     14  C   UNL     1      11.088   2.453  -1.277  0.00  0.00    +0.000 C 
BRANCH  14  15
ATOM     15  N   UNL     1      11.531   3.086  -0.039  0.00  0.00    +0.000 N 
ATOM     16  C   UNL     1      11.798   2.398   1.121  0.00  0.00    +0.000 A 
ATOM     17  C   UNL     1      12.269   3.295   2.051  0.00  0.00    +0.000 A 
ATOM     18  C   UNL     1      12.301   4.576   1.438  0.00  0.00    +0.000 A 
ATOM     19  C   UNL     1      12.692   5.850   1.872  0.00  0.00    +0.000 A 
ATOM     20  C   UNL     1      12.580   6.881   0.953  0.00  0.00    +0.000 A 
ATOM     21  N   UNL     1      12.122   6.739  -0.309  0.00  0.00    +0.000 NA
ATOM     22  C   UNL     1      11.742   5.513  -0.735  0.00  0.00    +0.000 A 
ATOM     23  C   UNL     1      11.831   4.425   0.130  0.00  0.00    +0.000 A 
ENDBRANCH  14  15
ENDBRANCH   4  14
TORSDOF 5
