REMARK  Name = 
REMARK  6 active torsions:
REMARK  status: ('A' for Active; 'I' for Inactive)
REMARK    1  A    between atoms: C_2  and  C_4
REMARK    2  A    between atoms: C_7  and  N_8
REMARK    3  A    between atoms: N_8  and  C_9
REMARK    4  A    between atoms: C_9  and  C_10
REMARK    5  A    between atoms: C_10  and  C_13
REMARK    6  A    between atoms: C_17  and  C_18
REMARK                            x       y       z     vdW  Elec       q    Type
REMARK                         _______ _______ _______ _____ _____    ______ ____
ROOT
ATOM      1  C   UNL     1       5.935   0.187  -7.173  0.00  0.00    +0.000 C 
ATOM      2  F   UNL     1       7.224   0.480  -6.833  0.00  0.00    +0.000 F 
ATOM      3  F   UNL     1       5.917  -1.164  -7.389  0.00  0.00    +0.000 F 
ENDROOT
BRANCH   1   4
ATOM      4  C   UNL     1       5.478   0.972  -8.386  0.00  0.00    +0.000 A 
ATOM      5  C   UNL     1       4.589   0.412  -9.308  0.00  0.00    +0.000 A 
ATOM      6  C   UNL     1       4.145   1.165 -10.391  0.00  0.00    +0.000 A 
ATOM      7  C   UNL     1       4.577   2.486 -10.554  0.00  0.00    +0.000 A 
ATOM      8  C   UNL     1       5.456   3.092  -9.640  0.00  0.00    +0.000 A 
ATOM      9  C   UNL     1       5.901   2.304  -8.563  0.00  0.00    +0.000 A 
BRANCH   8  10
ATOM     10  C   UNL     1       5.876   4.509  -9.784  0.00  0.00    +0.000 A 
ATOM     11  C   UNL     1       7.150   4.948  -9.377  0.00  0.00    +0.000 A 
ATOM     12  C   UNL     1       7.535   6.290  -9.495  0.00  0.00    +0.000 A 
ATOM     13  C   UNL     1       6.658   7.227 -10.038  0.00  0.00    +0.000 A 
ATOM     14 CL   UNL     1       7.198   8.862 -10.161  0.00  0.00    +0.000 Cl
ATOM     15  C   UNL     1       5.391   6.819 -10.456  0.00  0.00    +0.000 A 
ATOM     16 CL   UNL     1       4.246   7.915 -11.146  0.00  0.00    +0.000 Cl
ATOM     17  C   UNL     1       5.006   5.478 -10.320  0.00  0.00    +0.000 A 
ENDBRANCH   8  10
ENDBRANCH   1   4
BRANCH   1  18
ATOM     18  C   UNL     1       5.006   0.499  -5.972  0.00  0.00    +0.000 C 
BRANCH  18  19
ATOM     19  N   UNL     1       5.380  -0.220  -4.745  0.00  0.00    +0.000 N 
ATOM     20  H   UNL     1       5.745  -1.160  -4.899  0.00  0.00    +0.000 HD
BRANCH  19  24
ATOM     21  C   UNL     1       3.359   0.290  -1.082  0.00  0.00    +0.000 A 
ATOM     22  C   UNL     1       2.912   0.977  -2.213  0.00  0.00    +0.000 A 
ATOM     23  C   UNL     1       3.561   0.801  -3.441  0.00  0.00    +0.000 A 
ATOM     24  C   UNL     1       4.642  -0.080  -3.576  0.00  0.00    +0.000 A 
ATOM     25  C   UNL     1       5.087  -0.746  -2.425  0.00  0.00    +0.000 A 
ATOM     26  C   UNL     1       4.459  -0.563  -1.188  0.00  0.00    +0.000 A 
BRANCH  21  28
ATOM     27  N   UNL     1       1.402   0.826   0.262  0.00  0.00    +0.000 N 
ATOM     28  C   UNL     1       2.724   0.478   0.246  0.00  0.00    +0.000 C 
ATOM     29  O   UNL     1       3.340   0.296   1.288  0.00  0.00    +0.000 OA
ATOM     30  H   UNL     1       0.957   0.841   1.171  0.00  0.00    +0.000 HD
ATOM     31  H   UNL     1       0.808   0.729  -0.549  0.00  0.00    +0.000 HD
ENDBRANCH  21  28
ENDBRANCH  19  24
ENDBRANCH  18  19
ENDBRANCH   1  18
TORSDOF 6
