REMARK  Name = 
REMARK  5 active torsions:
REMARK  status: ('A' for Active; 'I' for Inactive)
REMARK    1  A    between atoms: C_2  and  C_4
REMARK    2  A    between atoms: C_7  and  O_8
REMARK    3  A    between atoms: O_8  and  C_9
REMARK    4  A    between atoms: C_9  and  C_10
REMARK    5  A    between atoms: C_15  and  C_16
REMARK                            x       y       z     vdW  Elec       q    Type
REMARK                         _______ _______ _______ _____ _____    ______ ____
ROOT
ATOM      1  C   UNL     1       5.055  -0.315   5.802  0.00  0.00    +0.000 C 
ENDROOT
BRANCH   1   2
ATOM      2  C   UNL     1       6.024  -0.023   6.927  0.00  0.00    +0.000 A 
ATOM      3  C   UNL     1       6.231   1.297   7.338  0.00  0.00    +0.000 A 
ATOM      4  C   UNL     1       7.086   1.562   8.398  0.00  0.00    +0.000 A 
ATOM      5  F   UNL     1       7.277   2.829   8.788  0.00  0.00    +0.000 F 
ATOM      6  C   UNL     1       7.744   0.535   9.069  0.00  0.00    +0.000 A 
ATOM      7  C   UNL     1       7.543  -0.808   8.707  0.00  0.00    +0.000 A 
ATOM      8  C   UNL     1       6.664  -1.058   7.632  0.00  0.00    +0.000 A 
BRANCH   7   9
ATOM      9  C   UNL     1       8.205  -1.917   9.429  0.00  0.00    +0.000 A 
ATOM     10  C   UNL     1       8.511  -1.848  10.796  0.00  0.00    +0.000 A 
ATOM     11  C   UNL     1       9.111  -2.925  11.450  0.00  0.00    +0.000 A 
ATOM     12  C   UNL     1       9.390  -4.065  10.719  0.00  0.00    +0.000 A 
ATOM     13  N   UNL     1       9.129  -4.187   9.404  0.00  0.00    +0.000 NA
ATOM     14  C   UNL     1       8.555  -3.116   8.798  0.00  0.00    +0.000 A 
ENDBRANCH   7   9
ENDBRANCH   1   2
BRANCH   1  15
ATOM     15  O   UNL     1       5.464  -1.475   5.070  0.00  0.00    +0.000 OA
BRANCH  15  19
ATOM     16  C   UNL     1       2.895  -2.408   1.989  0.00  0.00    +0.000 A 
ATOM     17  C   UNL     1       4.006  -3.218   2.231  0.00  0.00    +0.000 A 
ATOM     18  C   UNL     1       4.873  -2.891   3.276  0.00  0.00    +0.000 A 
ATOM     19  C   UNL     1       4.590  -1.770   4.043  0.00  0.00    +0.000 A 
ATOM     20  N   UNL     1       3.525  -0.968   3.828  0.00  0.00    +0.000 NA
ATOM     21  C   UNL     1       2.709  -1.298   2.801  0.00  0.00    +0.000 A 
BRANCH  16  23
ATOM     22  N   UNL     1       1.763  -3.939   0.477  0.00  0.00    +0.000 N 
ATOM     23  C   UNL     1       1.924  -2.652   0.904  0.00  0.00    +0.000 C 
ATOM     24  O   UNL     1       1.254  -1.742   0.433  0.00  0.00    +0.000 OA
ATOM     25  H   UNL     1       1.008  -4.096  -0.180  0.00  0.00    +0.000 HD
ATOM     26  H   UNL     1       2.090  -4.734   1.007  0.00  0.00    +0.000 HD
ENDBRANCH  16  23
ENDBRANCH  15  19
ENDBRANCH   1  15
TORSDOF 5
