REMARK  Name = 
REMARK  8 active torsions:
REMARK  status: ('A' for Active; 'I' for Inactive)
REMARK    1  A    between atoms: N_1  and  C_2
REMARK    2  A    between atoms: C_2  and  C_3
REMARK    3  A    between atoms: C_3  and  N_4
REMARK    4  A    between atoms: C_3  and  C_17
REMARK    5  A    between atoms: C_5  and  C_7
REMARK    6  A    between atoms: C_20  and  C_21
REMARK    7  A    between atoms: C_21  and  N_22
REMARK    8  A    between atoms: C_23  and  C_25
REMARK                            x       y       z     vdW  Elec       q    Type
REMARK                         _______ _______ _______ _____ _____    ______ ____
ROOT
ATOM      1  C   UNL     1       2.824  -0.064   1.244  0.00  0.00    +0.000 C 
ENDROOT
BRANCH   1   2
ATOM      2  C   UNL     1       4.351   0.069   1.258  0.00  0.00    +0.000 A 
ATOM      3  C   UNL     1       5.070   0.074   0.054  0.00  0.00    +0.000 A 
ATOM      4  C   UNL     1       6.469   0.164   0.049  0.00  0.00    +0.000 A 
ATOM      5  C   UNL     1       7.191   0.247   1.248  0.00  0.00    +0.000 A 
ATOM      6  C   UNL     1       6.476   0.284   2.451  0.00  0.00    +0.000 A 
ATOM      7  C   UNL     1       5.076   0.192   2.457  0.00  0.00    +0.000 A 
BRANCH   5   8
ATOM      8  C   UNL     1       8.699   0.300   1.236  0.00  0.00    +0.000 C 
BRANCH   8   9
ATOM      9  N   UNL     1       9.198   1.649   1.140  0.00  0.00    +0.000 N 
ATOM     10  C   UNL     1      10.545   1.919   1.173  0.00  0.00    +0.000 C 
ATOM     11  O   UNL     1      11.392   1.037   1.319  0.00  0.00    +0.000 OA
ATOM     12  H   UNL     1       8.546   2.387   0.915  0.00  0.00    +0.000 HD
BRANCH  10  13
ATOM     13  C   UNL     1      10.903   3.314   1.014  0.00  0.00    +0.000 A 
ATOM     14  C   UNL     1      10.137   4.464   0.883  0.00  0.00    +0.000 A 
ATOM     15  C   UNL     1      11.011   5.573   0.770  0.00  0.00    +0.000 A 
ATOM     16  C   UNL     1      12.296   5.088   0.835  0.00  0.00    +0.000 A 
ATOM     17  N   UNL     1      12.223   3.728   0.983  0.00  0.00    +0.000 N 
ATOM     18  H   UNL     1      13.011   3.096   1.060  0.00  0.00    +0.000 HD
ENDBRANCH  10  13
ENDBRANCH   8   9
ENDBRANCH   5   8
ENDBRANCH   1   2
BRANCH   1  19
ATOM     19  N   UNL     1       2.235   1.187   1.703  0.00  0.00    +0.000 N 
ATOM     20  C   UNL     1       0.888   1.450   1.689  0.00  0.00    +0.000 C 
ATOM     21  O   UNL     1       0.065   0.677   1.211  0.00  0.00    +0.000 OA
ATOM     22  H   UNL     1       2.860   1.828   2.172  0.00  0.00    +0.000 HD
BRANCH  20  23
ATOM     23  C   UNL     1       0.490   2.755   2.231  0.00  0.00    +0.000 A 
ATOM     24  C   UNL     1      -0.705   3.342   1.839  0.00  0.00    +0.000 A 
ATOM     25  S   UNL     1      -0.933   4.909   2.480  0.00  0.00    +0.000 S 
ATOM     26  C   UNL     1       0.534   4.829   3.341  0.00  0.00    +0.000 A 
ATOM     27  N   UNL     1       0.973   5.880   4.085  0.00  0.00    +0.000 NA
ATOM     28  C   UNL     1       2.088   5.669   4.702  0.00  0.00    +0.000 A 
ATOM     29  N   UNL     1       2.791   4.490   4.664  0.00  0.00    +0.000 N 
ATOM     30  C   UNL     1       2.373   3.400   3.947  0.00  0.00    +0.000 A 
ATOM     31  O   UNL     1       3.005   2.347   3.967  0.00  0.00    +0.000 OA
ATOM     32  C   UNL     1       1.162   3.609   3.178  0.00  0.00    +0.000 A 
ATOM     33  H   UNL     1       3.643   4.380   5.193  0.00  0.00    +0.000 HD
ENDBRANCH  20  23
ENDBRANCH   1  19
BRANCH   1  34
ATOM     34  C   UNL     1       2.323  -1.286   2.076  0.00  0.00    +0.000 C 
BRANCH  34  35
ATOM     35  N   UNL     1       2.850  -2.581   1.629  0.00  0.00    +0.000 NA
ATOM     36  H   UNL     1       2.595  -3.293   2.313  0.00  0.00    +0.000 HD
ATOM     37  H   UNL     1       3.870  -2.546   1.615  0.00  0.00    +0.000 HD
ENDBRANCH  34  35
ENDBRANCH   1  34
TORSDOF 8
