REMARK  Name = 
REMARK  7 active torsions:
REMARK  status: ('A' for Active; 'I' for Inactive)
REMARK    1  A    between atoms: C_2  and  C_19
REMARK    2  A    between atoms: N_3  and  C_4
REMARK    3  A    between atoms: C_4  and  C_5
REMARK    4  A    between atoms: C_8  and  C_9
REMARK    5  A    between atoms: C_9  and  C_10
REMARK    6  A    between atoms: C_10  and  C_11
REMARK    7  A    between atoms: C_11  and  N_12
REMARK                            x       y       z     vdW  Elec       q    Type
REMARK                         _______ _______ _______ _____ _____    ______ ____
ROOT
ATOM      1  O   UNL     1       0.123   3.352  -1.426  0.00  0.00    +0.000 OA
ATOM      2  C   UNL     1       0.836   2.481  -1.915  0.00  0.00    +0.000 C 
ATOM      3  N   UNL     1       2.004   2.055  -1.338  0.00  0.00    +0.000 N 
ATOM      4  H   UNL     1       2.533   1.315  -1.777  0.00  0.00    +0.000 HD
ENDROOT
BRANCH   2   5
ATOM      5  C   UNL     1       0.531   1.857  -3.201  0.00  0.00    +0.000 A 
ATOM      6  C   UNL     1      -0.130   2.559  -4.197  0.00  0.00    +0.000 A 
ATOM      7  S   UNL     1      -0.341   1.652  -5.628  0.00  0.00    +0.000 S 
ATOM      8  C   UNL     1       0.402   0.282  -4.941  0.00  0.00    +0.000 A 
ATOM      9  N   UNL     1       0.550  -0.871  -5.647  0.00  0.00    +0.000 NA
ATOM     10  C   UNL     1       1.097  -1.837  -4.985  0.00  0.00    +0.000 A 
ATOM     11  N   UNL     1       1.505  -1.761  -3.678  0.00  0.00    +0.000 N 
ATOM     12  C   UNL     1       1.403  -0.606  -2.931  0.00  0.00    +0.000 A 
ATOM     13  O   UNL     1       1.829  -0.557  -1.784  0.00  0.00    +0.000 OA
ATOM     14  C   UNL     1       0.799   0.511  -3.638  0.00  0.00    +0.000 A 
ATOM     15  H   UNL     1       1.931  -2.552  -3.219  0.00  0.00    +0.000 HD
ENDBRANCH   2   5
BRANCH   3  16
ATOM     16  C   UNL     1       2.415   2.445  -0.017  0.00  0.00    +0.000 C 
BRANCH  16  17
ATOM     17  C   UNL     1       3.366   3.597  -0.068  0.00  0.00    +0.000 A 
ATOM     18  C   UNL     1       2.905   4.914  -0.066  0.00  0.00    +0.000 A 
ATOM     19  C   UNL     1       3.816   5.963  -0.111  0.00  0.00    +0.000 A 
ATOM     20  C   UNL     1       5.174   5.666  -0.168  0.00  0.00    +0.000 A 
ATOM     21  N   UNL     1       5.645   4.396  -0.197  0.00  0.00    +0.000 NA
ATOM     22  C   UNL     1       4.737   3.398  -0.157  0.00  0.00    +0.000 A 
BRANCH  20  23
ATOM     23  C   UNL     1       6.200   6.767  -0.167  0.00  0.00    +0.000 C 
BRANCH  23  24
ATOM     24  C   UNL     1       7.101   6.734  -1.406  0.00  0.00    +0.000 C 
BRANCH  24  25
ATOM     25  C   UNL     1       6.362   7.051  -2.717  0.00  0.00    +0.000 C 
BRANCH  25  26
ATOM     26  N   UNL     1       5.631   8.321  -2.656  0.00  0.00    +0.000 NA
ATOM     27  C   UNL     1       6.506   9.479  -2.506  0.00  0.00    +0.000 C 
ATOM     28  C   UNL     1       6.224  10.395  -3.676  0.00  0.00    +0.000 C 
ATOM     29  O   UNL     1       5.342   9.706  -4.555  0.00  0.00    +0.000 OA
ATOM     30  C   UNL     1       4.848   8.568  -3.858  0.00  0.00    +0.000 C 
ENDBRANCH  25  26
ENDBRANCH  24  25
ENDBRANCH  23  24
ENDBRANCH  20  23
ENDBRANCH  16  17
ENDBRANCH   3  16
TORSDOF 7
