REMARK  Name = 
REMARK  6 active torsions:
REMARK  status: ('A' for Active; 'I' for Inactive)
REMARK    1  A    between atoms: N_1  and  C_2
REMARK    2  A    between atoms: C_2  and  C_3
REMARK    3  A    between atoms: C_6  and  C_7
REMARK    4  A    between atoms: C_7  and  O_8
REMARK    5  A    between atoms: O_8  and  C_9
REMARK    6  A    between atoms: C_14  and  C_15
REMARK                            x       y       z     vdW  Elec       q    Type
REMARK                         _______ _______ _______ _____ _____    ______ ____
ROOT
ATOM      1  O   UNL     1       3.038  -6.360  -0.514  0.00  0.00    +0.000 OA
ENDROOT
BRANCH   1   2
ATOM      2  C   UNL     1       3.357  -7.684  -0.667  0.00  0.00    +0.000 A 
ATOM      3  C   UNL     1       4.529  -8.168  -1.245  0.00  0.00    +0.000 A 
ATOM      4  C   UNL     1       4.738  -9.544  -1.370  0.00  0.00    +0.000 A 
ATOM      5  C   UNL     1       3.784 -10.457  -0.911  0.00  0.00    +0.000 A 
ATOM      6 CL   UNL     1       4.140 -12.127  -1.188  0.00  0.00    +0.000 Cl
ATOM      7  C   UNL     1       2.611  -9.991  -0.307  0.00  0.00    +0.000 A 
ATOM      8  C   UNL     1       2.402  -8.598  -0.204  0.00  0.00    +0.000 A 
BRANCH   7   9
ATOM      9  C   UNL     1       1.535 -10.867   0.230  0.00  0.00    +0.000 C 
ATOM     10  N   UNL     1       1.878 -12.091   0.728  0.00  0.00    +0.000 N 
ATOM     11  O   UNL     1       0.367 -10.491   0.259  0.00  0.00    +0.000 OA
ATOM     12  H   UNL     1       2.809 -12.479   0.640  0.00  0.00    +0.000 HD
ATOM     13  H   UNL     1       1.132 -12.704   1.025  0.00  0.00    +0.000 HD
ENDBRANCH   7   9
ENDBRANCH   1   2
BRANCH   1  14
ATOM     14  C   UNL     1       4.039  -5.413  -0.909  0.00  0.00    +0.000 C 
BRANCH  14  18
ATOM     15  C   UNL     1       2.757  -1.462  -0.194  0.00  0.00    +0.000 A 
ATOM     16  C   UNL     1       3.460  -2.181   0.767  0.00  0.00    +0.000 A 
ATOM     17  N   UNL     1       3.888  -3.454   0.573  0.00  0.00    +0.000 NA
ATOM     18  C   UNL     1       3.579  -4.006  -0.629  0.00  0.00    +0.000 A 
ATOM     19  C   UNL     1       2.880  -3.284  -1.590  0.00  0.00    +0.000 A 
ATOM     20  N   UNL     1       2.465  -2.006  -1.404  0.00  0.00    +0.000 NA
BRANCH  15  21
ATOM     21  C   UNL     1       2.268  -0.064   0.098  0.00  0.00    +0.000 C 
BRANCH  21  22
ATOM     22  N   UNL     1       3.351   0.887   0.360  0.00  0.00    +0.000 NA
ATOM     23  H   UNL     1       2.941   1.801   0.549  0.00  0.00    +0.000 HD
ATOM     24  H   UNL     1       3.888   1.000  -0.502  0.00  0.00    +0.000 HD
ENDBRANCH  21  22
ENDBRANCH  15  21
ENDBRANCH  14  18
ENDBRANCH   1  14
TORSDOF 6
