REMARK  Name = 
REMARK  10 active torsions:
REMARK  status: ('A' for Active; 'I' for Inactive)
REMARK    1  A    between atoms: C_1  and  C_2
REMARK    2  A    between atoms: C_2  and  C_3
REMARK    3  A    between atoms: C_2  and  C_14
REMARK    4  A    between atoms: C_3  and  N_4
REMARK    5  A    between atoms: N_4  and  C_5
REMARK    6  A    between atoms: C_8  and  C_9
REMARK    7  A    between atoms: C_16  and  O_17
REMARK    8  A    between atoms: O_17  and  C_18
REMARK    9  A    between atoms: N_20  and  C_21
REMARK   10  A    between atoms: C_24  and  C_25
REMARK                            x       y       z     vdW  Elec       q    Type
REMARK                         _______ _______ _______ _____ _____    ______ ____
ROOT
ATOM      1  C   UNL     1       3.863  -1.052  -0.237  0.00  0.00    +0.000 C 
ATOM      2  C   UNL     1       2.590  -0.242   0.025  0.00  0.00    +0.000 C 
ENDROOT
BRANCH   2   3
ATOM      3  C   UNL     1       2.895   0.936   0.949  0.00  0.00    +0.000 A 
ATOM      4  C   UNL     1       2.800   2.252   0.466  0.00  0.00    +0.000 A 
ATOM      5  C   UNL     1       3.040   3.337   1.311  0.00  0.00    +0.000 A 
ATOM      6  C   UNL     1       3.351   3.120   2.654  0.00  0.00    +0.000 A 
ATOM      7  C   UNL     1       3.450   1.820   3.164  0.00  0.00    +0.000 A 
ATOM      8  C   UNL     1       3.244   0.735   2.296  0.00  0.00    +0.000 A 
BRANCH   7   9
ATOM      9  C   UNL     1       3.742   1.571   4.622  0.00  0.00    +0.000 C 
ATOM     10  F   UNL     1       3.812   2.705   5.372  0.00  0.00    +0.000 F 
ATOM     11  F   UNL     1       2.789   0.794   5.212  0.00  0.00    +0.000 F 
ATOM     12  F   UNL     1       4.922   0.918   4.815  0.00  0.00    +0.000 F 
ENDBRANCH   7   9
BRANCH   5  13
ATOM     13  O   UNL     1       2.944   4.655   0.939  0.00  0.00    +0.000 OA
BRANCH  13  14
ATOM     14  C   UNL     1       3.089   5.000  -0.458  0.00  0.00    +0.000 C 
ATOM     15  C   UNL     1       4.493   4.866  -1.088  0.00  0.00    +0.000 C 
ATOM     16  N   UNL     1       4.436   6.262  -1.560  0.00  0.00    +0.000 NA
ATOM     17  C   UNL     1       4.120   6.315  -2.986  0.00  0.00    +0.000 C 
ATOM     18  C   UNL     1       3.231   6.511  -0.749  0.00  0.00    +0.000 C 
ENDBRANCH  13  14
ENDBRANCH   5  13
ENDBRANCH   2   3
BRANCH   2  19
ATOM     19  C   UNL     1       1.431  -1.097   0.599  0.00  0.00    +0.000 C 
BRANCH  19  20
ATOM     20  N   UNL     1       1.023  -2.166  -0.321  0.00  0.00    +0.000 N 
ATOM     21  H   UNL     1       1.810  -2.731  -0.633  0.00  0.00    +0.000 HD
BRANCH  20  22
ATOM     22  C   UNL     1      -0.043  -2.997   0.067  0.00  0.00    +0.000 A 
ATOM     23  C   UNL     1      -1.099  -2.570   0.880  0.00  0.00    +0.000 A 
ATOM     24  C   UNL     1      -2.184  -3.408   1.164  0.00  0.00    +0.000 A 
ATOM     25  C   UNL     1      -2.255  -4.686   0.605  0.00  0.00    +0.000 A 
ATOM     26  C   UNL     1      -1.221  -5.125  -0.224  0.00  0.00    +0.000 A 
ATOM     27  C   UNL     1      -0.138  -4.279  -0.500  0.00  0.00    +0.000 A 
BRANCH  25  28
ATOM     28  C   UNL     1      -3.444  -5.522   0.919  0.00  0.00    +0.000 C 
ATOM     29  N   UNL     1      -3.787  -6.494   0.019  0.00  0.00    +0.000 N 
ATOM     30  O   UNL     1      -4.123  -5.326   1.918  0.00  0.00    +0.000 OA
ATOM     31  H   UNL     1      -3.415  -6.520  -0.918  0.00  0.00    +0.000 HD
ATOM     32  H   UNL     1      -4.671  -6.956   0.186  0.00  0.00    +0.000 HD
ENDBRANCH  25  28
ENDBRANCH  20  22
ENDBRANCH  19  20
ENDBRANCH   2  19
TORSDOF 8
