REMARK  Name = 
REMARK  6 active torsions:
REMARK  status: ('A' for Active; 'I' for Inactive)
REMARK    1  A    between atoms: C_1  and  N_2
REMARK    2  A    between atoms: N_2  and  C_3
REMARK    3  A    between atoms: C_3  and  C_4
REMARK    4  A    between atoms: C_3  and  C_16
REMARK    5  A    between atoms: C_7  and  C_8
REMARK    6  A    between atoms: C_8  and  N_9
REMARK                            x       y       z     vdW  Elec       q    Type
REMARK                         _______ _______ _______ _____ _____    ______ ____
ROOT
ATOM      1  C   UNL     1       3.133   1.169  -0.325  0.00  0.00    +0.000 C 
ENDROOT
BRANCH   1   2
ATOM      2  C   UNL     1       4.584   0.755  -0.242  0.00  0.00    +0.000 A 
ATOM      3  C   UNL     1       5.263   0.421   0.922  0.00  0.00    +0.000 A 
ATOM      4  S   UNL     1       6.852  -0.139   0.644  0.00  0.00    +0.000 S 
ATOM      5  C   UNL     1       6.713   0.119  -1.032  0.00  0.00    +0.000 A 
ATOM      6  N   UNL     1       7.726  -0.195  -1.883  0.00  0.00    +0.000 NA
ATOM      7  C   UNL     1       7.505   0.130  -3.114  0.00  0.00    +0.000 A 
ATOM      8  N   UNL     1       6.371   0.755  -3.568  0.00  0.00    +0.000 N 
ATOM      9  C   UNL     1       5.308   1.067  -2.750  0.00  0.00    +0.000 A 
ATOM     10  O   UNL     1       4.312   1.638  -3.181  0.00  0.00    +0.000 OA
ATOM     11  C   UNL     1       5.494   0.679  -1.364  0.00  0.00    +0.000 A 
ATOM     12  H   UNL     1       6.283   1.022  -4.537  0.00  0.00    +0.000 HD
ENDBRANCH   1   2
BRANCH   1  13
ATOM     13  C   UNL     1       2.326  -0.071   0.034  0.00  0.00    +0.000 A 
ATOM     14  C   UNL     1       1.967  -0.407   1.347  0.00  0.00    +0.000 A 
ATOM     15  C   UNL     1       1.107  -1.478   1.590  0.00  0.00    +0.000 A 
ATOM     16  C   UNL     1       0.622  -2.210   0.509  0.00  0.00    +0.000 A 
ATOM     17  N   UNL     1       1.002  -1.951  -0.767  0.00  0.00    +0.000 NA
ATOM     18  C   UNL     1       1.843  -0.906  -0.971  0.00  0.00    +0.000 A 
BRANCH  16  19
ATOM     19  C   UNL     1      -0.452  -3.251   0.709  0.00  0.00    +0.000 C 
BRANCH  19  20
ATOM     20  N   UNL     1      -1.761  -2.628   0.675  0.00  0.00    +0.000 N 
ATOM     21  C   UNL     1      -2.362  -2.009  -0.381  0.00  0.00    +0.000 A 
ATOM     22  N   UNL     1      -3.558  -1.597  -0.027  0.00  0.00    +0.000 NA
ATOM     23  C   UNL     1      -3.647  -1.997   1.275  0.00  0.00    +0.000 A 
ATOM     24  N   UNL     1      -2.575  -2.635   1.753  0.00  0.00    +0.000 NA
ENDBRANCH  19  20
ENDBRANCH  16  19
ENDBRANCH   1  13
BRANCH   1  26
ATOM     25  C   UNL     1       3.393   3.546   0.085  0.00  0.00    +0.000 C 
ATOM     26  N   UNL     1       2.840   2.290   0.580  0.00  0.00    +0.000 NA
ATOM     27  H   UNL     1       1.824   2.391   0.609  0.00  0.00    +0.000 HD
ENDBRANCH   1  26
TORSDOF 5
