REMARK  Name = 
REMARK  5 active torsions:
REMARK  status: ('A' for Active; 'I' for Inactive)
REMARK    1  A    between atoms: C_2  and  C_4
REMARK    2  A    between atoms: N_8  and  C_9
REMARK    3  A    between atoms: C_9  and  C_10
REMARK    4  A    between atoms: C_10  and  C_11
REMARK    5  A    between atoms: C_15  and  C_16
REMARK                            x       y       z     vdW  Elec       q    Type
REMARK                         _______ _______ _______ _____ _____    ______ ____
ROOT
ATOM      1  C   UNL     1       4.599   4.706  -3.884  0.00  0.00    +0.000 C 
ENDROOT
BRANCH   1   6
ATOM      2  C   UNL     1       3.071   0.845  -0.913  0.00  0.00    +0.000 A 
ATOM      3  C   UNL     1       2.672   2.173  -0.980  0.00  0.00    +0.000 A 
ATOM      4  C   UNL     1       3.298   3.022  -1.889  0.00  0.00    +0.000 A 
ATOM      5  C   UNL     1       4.312   2.539  -2.715  0.00  0.00    +0.000 A 
ATOM      6  N   UNL     1       4.952   3.325  -3.642  0.00  0.00    +0.000 N 
ATOM      7  N   UNL     1       4.722   1.258  -2.640  0.00  0.00    +0.000 NA
ATOM      8  C   UNL     1       4.109   0.442  -1.740  0.00  0.00    +0.000 A 
ATOM      9  H   UNL     1       5.656   2.842  -4.187  0.00  0.00    +0.000 HD
BRANCH   2  11
ATOM     10  N   UNL     1       1.135   0.112   0.348  0.00  0.00    +0.000 N 
ATOM     11  C   UNL     1       2.438  -0.120   0.007  0.00  0.00    +0.000 C 
ATOM     12  O   UNL     1       3.041  -1.102   0.418  0.00  0.00    +0.000 OA
ATOM     13  H   UNL     1       0.675  -0.600   0.901  0.00  0.00    +0.000 HD
ATOM     14  H   UNL     1       0.547   0.760  -0.158  0.00  0.00    +0.000 HD
ENDBRANCH   2  11
ENDBRANCH   1   6
BRANCH   1  15
ATOM     15  C   UNL     1       5.432   5.337  -5.000  0.00  0.00    +0.000 C 
BRANCH  15  16
ATOM     16  C   UNL     1       5.039   6.783  -5.178  0.00  0.00    +0.000 A 
ATOM     17  C   UNL     1       5.648   7.786  -4.436  0.00  0.00    +0.000 A 
ATOM     18  N   UNL     1       5.282   9.082  -4.487  0.00  0.00    +0.000 NA
ATOM     19  C   UNL     1       4.256   9.395  -5.317  0.00  0.00    +0.000 A 
ATOM     20  C   UNL     1       3.561   8.489  -6.123  0.00  0.00    +0.000 A 
ATOM     21  C   UNL     1       3.988   7.154  -6.030  0.00  0.00    +0.000 A 
BRANCH  20  22
ATOM     22  C   UNL     1       2.443   8.906  -7.002  0.00  0.00    +0.000 A 
ATOM     23  C   UNL     1       2.417  10.177  -7.609  0.00  0.00    +0.000 A 
ATOM     24  C   UNL     1       1.363  10.574  -8.439  0.00  0.00    +0.000 A 
ATOM     25  C   UNL     1       0.309   9.703  -8.693  0.00  0.00    +0.000 A 
ATOM     26  C   UNL     1       0.312   8.442  -8.108  0.00  0.00    +0.000 A 
ATOM     27 CL   UNL     1      -0.984   7.353  -8.420  0.00  0.00    +0.000 Cl
ATOM     28  C   UNL     1       1.358   8.048  -7.268  0.00  0.00    +0.000 A 
ENDBRANCH  20  22
ENDBRANCH  15  16
ENDBRANCH   1  15
TORSDOF 5
