REMARK  Name = 
REMARK  5 active torsions:
REMARK  status: ('A' for Active; 'I' for Inactive)
REMARK    1  A    between atoms: C_2  and  C_3
REMARK    2  A    between atoms: C_7  and  N_8
REMARK    3  A    between atoms: N_8  and  C_9
REMARK    4  A    between atoms: C_9  and  C_10
REMARK    5  A    between atoms: C_14  and  C_15
REMARK                            x       y       z     vdW  Elec       q    Type
REMARK                         _______ _______ _______ _____ _____    ______ ____
ROOT
ATOM      1  C   UNL     1      -2.575   4.885   0.191  0.00  0.00    +0.000 A 
ATOM      2  C   UNL     1      -3.940   4.648   0.392  0.00  0.00    +0.000 A 
ATOM      3  C   UNL     1      -4.823   5.716   0.538  0.00  0.00    +0.000 A 
ATOM      4  C   UNL     1      -4.348   7.030   0.498  0.00  0.00    +0.000 A 
ATOM      5  C   UNL     1      -2.982   7.311   0.322  0.00  0.00    +0.000 A 
ATOM      6  C   UNL     1      -2.118   6.214   0.134  0.00  0.00    +0.000 A 
ENDROOT
BRANCH   5   7
ATOM      7  C   UNL     1      -2.460   8.698   0.393  0.00  0.00    +0.000 A 
ATOM      8  C   UNL     1      -1.350   9.112  -0.370  0.00  0.00    +0.000 A 
ATOM      9  C   UNL     1      -0.836  10.409  -0.266  0.00  0.00    +0.000 A 
ATOM     10  C   UNL     1      -1.436  11.321   0.592  0.00  0.00    +0.000 A 
ATOM     11  F   UNL     1      -0.934  12.562   0.668  0.00  0.00    +0.000 F 
ATOM     12  C   UNL     1      -2.536  10.948   1.354  0.00  0.00    +0.000 A 
ATOM     13 CL   UNL     1      -3.292  12.071   2.417  0.00  0.00    +0.000 Cl
ATOM     14  C   UNL     1      -3.036   9.646   1.264  0.00  0.00    +0.000 A 
ENDBRANCH   5   7
BRANCH   1  15
ATOM     15  C   UNL     1      -1.591   3.741   0.089  0.00  0.00    +0.000 C 
BRANCH  15  16
ATOM     16  N   UNL     1      -1.539   3.222  -1.268  0.00  0.00    +0.000 N 
ATOM     17  H   UNL     1      -1.689   3.922  -1.991  0.00  0.00    +0.000 HD
BRANCH  16  22
ATOM     18  C   UNL     1       0.895   0.391  -1.124  0.00  0.00    +0.000 A 
ATOM     19  C   UNL     1       0.887   0.059  -2.468  0.00  0.00    +0.000 A 
ATOM     20  N   UNL     1       0.170   0.725  -3.395  0.00  0.00    +0.000 NA
ATOM     21  C   UNL     1      -0.580   1.765  -2.948  0.00  0.00    +0.000 A 
ATOM     22  C   UNL     1      -0.648   2.210  -1.622  0.00  0.00    +0.000 A 
ATOM     23  C   UNL     1       0.108   1.475  -0.703  0.00  0.00    +0.000 A 
BRANCH  18  25
ATOM     24  N   UNL     1       2.317  -0.966   0.559  0.00  0.00    +0.000 NA
ATOM     25  C   UNL     1       1.679  -0.361  -0.195  0.00  0.00    +0.000 C 
ENDBRANCH  18  25
ENDBRANCH  16  22
ENDBRANCH  15  16
ENDBRANCH   1  15
TORSDOF 5
