REMARK  Name = 
REMARK  5 active torsions:
REMARK  status: ('A' for Active; 'I' for Inactive)
REMARK    1  A    between atoms: C_2  and  C_4
REMARK    2  A    between atoms: C_7  and  N_8
REMARK    3  A    between atoms: N_8  and  C_9
REMARK    4  A    between atoms: C_9  and  C_10
REMARK    5  A    between atoms: C_14  and  C_15
REMARK                            x       y       z     vdW  Elec       q    Type
REMARK                         _______ _______ _______ _____ _____    ______ ____
ROOT
ATOM      1  C   UNL     1       5.014  -0.113  -6.040  0.00  0.00    +0.000 C 
ATOM      2  C   UNL     1       5.060   1.385  -6.327  0.00  0.00    +0.000 C 
ATOM      3  C   UNL     1       3.754   0.672  -6.369  0.00  0.00    +0.000 C 
ENDROOT
BRANCH   1   4
ATOM      4  C   UNL     1       5.545  -1.053  -7.122  0.00  0.00    +0.000 A 
ATOM      5  C   UNL     1       4.872  -2.232  -7.473  0.00  0.00    +0.000 A 
ATOM      6  C   UNL     1       5.314  -3.028  -8.529  0.00  0.00    +0.000 A 
ATOM      7  C   UNL     1       6.429  -2.644  -9.275  0.00  0.00    +0.000 A 
ATOM      8  C   UNL     1       7.133  -1.467  -8.977  0.00  0.00    +0.000 A 
ATOM      9  C   UNL     1       6.697  -0.724  -7.864  0.00  0.00    +0.000 A 
BRANCH   8  10
ATOM     10  C   UNL     1       8.206  -0.949  -9.859  0.00  0.00    +0.000 A 
ATOM     11  C   UNL     1       8.095  -1.078 -11.260  0.00  0.00    +0.000 A 
ATOM     12  C   UNL     1       9.033  -0.504 -12.122  0.00  0.00    +0.000 A 
ATOM     13  C   UNL     1      10.095   0.217 -11.595  0.00  0.00    +0.000 A 
ATOM     14  F   UNL     1      10.976   0.793 -12.424  0.00  0.00    +0.000 F 
ATOM     15  C   UNL     1      10.250   0.357 -10.226  0.00  0.00    +0.000 A 
ATOM     16  C   UNL     1       9.316  -0.230  -9.374  0.00  0.00    +0.000 A 
ATOM     17  F   UNL     1       9.502  -0.070  -8.054  0.00  0.00    +0.000 F 
ENDBRANCH   8  10
ENDBRANCH   1   4
BRANCH   1  18
ATOM     18  N   UNL     1       5.343  -0.518  -4.661  0.00  0.00    +0.000 N 
ATOM     19  H   UNL     1       6.326  -0.682  -4.449  0.00  0.00    +0.000 HD
BRANCH  18  23
ATOM     20  C   UNL     1       3.205  -3.306  -2.533  0.00  0.00    +0.000 A 
ATOM     21  C   UNL     1       4.568  -3.138  -2.352  0.00  0.00    +0.000 A 
ATOM     22  N   UNL     1       5.290  -2.222  -3.056  0.00  0.00    +0.000 NA
ATOM     23  C   UNL     1       4.606  -1.475  -3.953  0.00  0.00    +0.000 A 
ATOM     24  C   UNL     1       3.227  -1.650  -4.101  0.00  0.00    +0.000 A 
ATOM     25  N   UNL     1       2.491  -2.561  -3.416  0.00  0.00    +0.000 NA
BRANCH  20  27
ATOM     26  N   UNL     1       1.127  -4.447  -2.086  0.00  0.00    +0.000 N 
ATOM     27  C   UNL     1       2.454  -4.338  -1.771  0.00  0.00    +0.000 C 
ATOM     28  O   UNL     1       2.985  -5.044  -0.925  0.00  0.00    +0.000 OA
ATOM     29  H   UNL     1       0.554  -5.137  -1.619  0.00  0.00    +0.000 HD
ATOM     30  H   UNL     1       0.727  -3.845  -2.795  0.00  0.00    +0.000 HD
ENDBRANCH  20  27
ENDBRANCH  18  23
ENDBRANCH   1  18
TORSDOF 5
