REMARK  Name = 
REMARK  7 active torsions:
REMARK  status: ('A' for Active; 'I' for Inactive)
REMARK    1  A    between atoms: C_2  and  C_20
REMARK    2  A    between atoms: N_3  and  C_4
REMARK    3  A    between atoms: C_4  and  C_5
REMARK    4  A    between atoms: C_8  and  C_9
REMARK    5  A    between atoms: C_9  and  N_10
REMARK    6  A    between atoms: N_10  and  C_11
REMARK    7  A    between atoms: C_11  and  C_12
REMARK                            x       y       z     vdW  Elec       q    Type
REMARK                         _______ _______ _______ _____ _____    ______ ____
ROOT
ATOM      1  C   UNL     1       2.255  -2.460   0.161  0.00  0.00    +0.000 C 
ENDROOT
BRANCH   1   2
ATOM      2  C   UNL     1       3.198  -3.627   0.181  0.00  0.00    +0.000 A 
ATOM      3  C   UNL     1       4.579  -3.442   0.228  0.00  0.00    +0.000 A 
ATOM      4  C   UNL     1       5.425  -4.546   0.292  0.00  0.00    +0.000 A 
ATOM      5  C   UNL     1       4.872  -5.824   0.301  0.00  0.00    +0.000 A 
ATOM      6  N   UNL     1       3.532  -6.035   0.233  0.00  0.00    +0.000 NA
ATOM      7  C   UNL     1       2.735  -4.940   0.164  0.00  0.00    +0.000 A 
BRANCH   5   8
ATOM      8  C   UNL     1       5.776  -7.042   0.360  0.00  0.00    +0.000 C 
BRANCH   8   9
ATOM      9  N   UNL     1       5.606  -7.987  -0.755  0.00  0.00    +0.000 NA
ATOM     10  H   UNL     1       4.613  -8.232  -0.778  0.00  0.00    +0.000 HD
BRANCH   9  11
ATOM     11  C   UNL     1       5.924  -7.370  -2.053  0.00  0.00    +0.000 C 
BRANCH  11  12
ATOM     12  C   UNL     1       5.724  -8.334  -3.209  0.00  0.00    +0.000 A 
ATOM     13  C   UNL     1       6.450  -9.523  -3.274  0.00  0.00    +0.000 A 
ATOM     14  C   UNL     1       6.227 -10.393  -4.338  0.00  0.00    +0.000 A 
ATOM     15  C   UNL     1       5.296 -10.053  -5.311  0.00  0.00    +0.000 A 
ATOM     16  C   UNL     1       4.623  -8.851  -5.179  0.00  0.00    +0.000 A 
ATOM     17  N   UNL     1       4.814  -7.988  -4.158  0.00  0.00    +0.000 NA
ENDBRANCH  11  12
ENDBRANCH   9  11
ENDBRANCH   8   9
ENDBRANCH   5   8
ENDBRANCH   1   2
BRANCH   1  20
ATOM     18  O   UNL     1       3.518  -0.366  -1.301  0.00  0.00    +0.000 OA
ATOM     19  C   UNL     1       2.623  -1.019  -1.826  0.00  0.00    +0.000 C 
ATOM     20  N   UNL     1       1.953  -2.022  -1.175  0.00  0.00    +0.000 N 
ATOM     21  H   UNL     1       1.349  -2.635  -1.708  0.00  0.00    +0.000 HD
BRANCH  19  22
ATOM     22  C   UNL     1       2.162  -0.743  -3.193  0.00  0.00    +0.000 A 
ATOM     23  C   UNL     1       2.326   0.515  -3.760  0.00  0.00    +0.000 A 
ATOM     24  S   UNL     1       1.733   0.616  -5.361  0.00  0.00    +0.000 S 
ATOM     25  C   UNL     1       1.265  -1.021  -5.356  0.00  0.00    +0.000 A 
ATOM     26  N   UNL     1       0.699  -1.602  -6.448  0.00  0.00    +0.000 NA
ATOM     27  C   UNL     1       0.425  -2.856  -6.305  0.00  0.00    +0.000 A 
ATOM     28  N   UNL     1       0.650  -3.585  -5.166  0.00  0.00    +0.000 N 
ATOM     29  C   UNL     1       1.141  -3.021  -4.016  0.00  0.00    +0.000 A 
ATOM     30  O   UNL     1       1.166  -3.663  -2.972  0.00  0.00    +0.000 OA
ATOM     31  C   UNL     1       1.525  -1.627  -4.140  0.00  0.00    +0.000 A 
ATOM     32  H   UNL     1       0.372  -4.551  -5.094  0.00  0.00    +0.000 HD
ENDBRANCH  19  22
ENDBRANCH   1  20
TORSDOF 7
