REMARK  Name = 
REMARK  8 active torsions:
REMARK  status: ('A' for Active; 'I' for Inactive)
REMARK    1  A    between atoms: C_1  and  O_2
REMARK    2  A    between atoms: O_2  and  C_3
REMARK    3  A    between atoms: C_10  and  C_11
REMARK    4  A    between atoms: N_13  and  C_14
REMARK    5  A    between atoms: C_14  and  C_15
REMARK    6  A    between atoms: C_18  and  N_19
REMARK    7  A    between atoms: N_19  and  C_20
REMARK    8  A    between atoms: C_20  and  C_21
REMARK                            x       y       z     vdW  Elec       q    Type
REMARK                         _______ _______ _______ _____ _____    ______ ____
ROOT
ATOM      1  C   UNL     1       3.050  -0.277   3.365  0.00  0.00    +0.000 C 
ENDROOT
BRANCH   1   2
ATOM      2  C   UNL     1       1.936   0.739   3.327  0.00  0.00    +0.000 A 
ATOM      3  C   UNL     1       0.598   0.339   3.390  0.00  0.00    +0.000 A 
ATOM      4  C   UNL     1      -0.437   1.287   3.377  0.00  0.00    +0.000 A 
ATOM      5  C   UNL     1      -0.173   2.656   3.258  0.00  0.00    +0.000 A 
ATOM      6  C   UNL     1       1.172   3.044   3.175  0.00  0.00    +0.000 A 
ATOM      7  C   UNL     1       2.213   2.104   3.201  0.00  0.00    +0.000 A 
BRANCH   5   8
ATOM      8  N   UNL     1      -1.152   3.654   3.332  0.00  0.00    +0.000 N 
ATOM      9  H   UNL     1      -0.969   4.406   2.673  0.00  0.00    +0.000 HD
BRANCH   8  10
ATOM     10  C   UNL     1      -2.560   3.304   3.498  0.00  0.00    +0.000 C 
BRANCH  10  11
ATOM     11  C   UNL     1      -3.483   4.535   3.628  0.00  0.00    +0.000 C 
ATOM     12  C   UNL     1      -3.515   5.409   2.362  0.00  0.00    +0.000 C 
ATOM     13  C   UNL     1      -4.446   6.612   2.525  0.00  0.00    +0.000 C 
ATOM     14  C   UNL     1      -4.087   7.435   3.758  0.00  0.00    +0.000 C 
ATOM     15  C   UNL     1      -4.097   6.574   5.016  0.00  0.00    +0.000 C 
ATOM     16  C   UNL     1      -3.165   5.370   4.879  0.00  0.00    +0.000 C 
ENDBRANCH  10  11
ENDBRANCH   8  10
ENDBRANCH   5   8
ENDBRANCH   1   2
BRANCH   1  19
ATOM     17  C   UNL     1       4.356  -1.661   1.802  0.00  0.00    +0.000 C 
ATOM     18  O   UNL     1       4.961  -2.195   2.726  0.00  0.00    +0.000 OA
ATOM     19  N   UNL     1       3.402  -0.709   2.036  0.00  0.00    +0.000 N 
ATOM     20  H   UNL     1       2.952  -0.240   1.262  0.00  0.00    +0.000 HD
BRANCH  17  28
ATOM     21  C   UNL     1       2.949  -0.704  -1.192  0.00  0.00    +0.000 A 
ATOM     22  N   UNL     1       2.592  -0.509  -2.477  0.00  0.00    +0.000 NA
ATOM     23  C   UNL     1       3.244  -1.191  -3.419  0.00  0.00    +0.000 A 
ATOM     24  N   UNL     1       4.234  -2.061  -3.238  0.00  0.00    +0.000 NA
ATOM     25  C   UNL     1       4.564  -2.220  -1.946  0.00  0.00    +0.000 A 
ATOM     26  S   UNL     1       5.810  -3.296  -1.525  0.00  0.00    +0.000 S 
ATOM     27  C   UNL     1       5.618  -2.950   0.127  0.00  0.00    +0.000 A 
ATOM     28  C   UNL     1       4.619  -2.021   0.397  0.00  0.00    +0.000 A 
ATOM     29  C   UNL     1       3.989  -1.585  -0.850  0.00  0.00    +0.000 A 
BRANCH  21  31
ATOM     30  C   UNL     1       0.980   0.416  -0.621  0.00  0.00    +0.000 C 
ATOM     31  O   UNL     1       2.292   0.028  -0.224  0.00  0.00    +0.000 OA
ENDBRANCH  21  31
ENDBRANCH  17  28
ENDBRANCH   1  19
TORSDOF 7
