REMARK  Name = 
REMARK  6 active torsions:
REMARK  status: ('A' for Active; 'I' for Inactive)
REMARK    1  A    between atoms: N_1  and  C_2
REMARK    2  A    between atoms: C_2  and  C_3
REMARK    3  A    between atoms: C_3  and  C_4
REMARK    4  A    between atoms: C_7  and  O_8
REMARK    5  A    between atoms: O_8  and  C_9
REMARK    6  A    between atoms: C_9  and  C_10
REMARK                            x       y       z     vdW  Elec       q    Type
REMARK                         _______ _______ _______ _____ _____    ______ ____
ROOT
ATOM      1  C   UNL     1       4.342   1.167  -0.856  0.00  0.00    +0.000 A 
ATOM      2  C   UNL     1       5.049   2.354  -0.622  0.00  0.00    +0.000 A 
ATOM      3  C   UNL     1       6.444   2.338  -0.533  0.00  0.00    +0.000 A 
ATOM      4  C   UNL     1       7.143   1.139  -0.671  0.00  0.00    +0.000 A 
ATOM      5  C   UNL     1       6.446  -0.030  -0.980  0.00  0.00    +0.000 A 
ATOM      6  C   UNL     1       5.054  -0.019  -1.060  0.00  0.00    +0.000 A 
ENDROOT
BRANCH   1   7
ATOM      7  C   UNL     1       2.835   1.153  -0.904  0.00  0.00    +0.000 C 
BRANCH   7   8
ATOM      8  C   UNL     1       2.308   1.346  -2.327  0.00  0.00    +0.000 C 
BRANCH   8   9
ATOM      9  N   UNL     1       0.846   1.292  -2.352  0.00  0.00    +0.000 NA
ATOM     10  H   UNL     1       0.522   1.470  -3.302  0.00  0.00    +0.000 HD
ATOM     11  H   UNL     1       0.466   2.044  -1.779  0.00  0.00    +0.000 HD
ENDBRANCH   8   9
ENDBRANCH   7   8
ENDBRANCH   1   7
BRANCH   4  12
ATOM     12  O   UNL     1       8.499   1.209  -0.473  0.00  0.00    +0.000 OA
BRANCH  12  13
ATOM     13  C   UNL     1       9.098  -0.031  -0.084  0.00  0.00    +0.000 C 
BRANCH  13  14
ATOM     14  C   UNL     1      10.420   0.185   0.616  0.00  0.00    +0.000 A 
ATOM     15  C   UNL     1      10.797  -0.694   1.645  0.00  0.00    +0.000 A 
ATOM     16  C   UNL     1      12.025  -0.547   2.292  0.00  0.00    +0.000 A 
ATOM     17  C   UNL     1      12.889   0.472   1.904  0.00  0.00    +0.000 A 
ATOM     18 CL   UNL     1      14.404   0.654   2.699  0.00  0.00    +0.000 Cl
ATOM     19  C   UNL     1      12.536   1.344   0.875  0.00  0.00    +0.000 A 
ATOM     20  C   UNL     1      11.306   1.198   0.229  0.00  0.00    +0.000 A 
ENDBRANCH  13  14
ENDBRANCH  12  13
ENDBRANCH   4  12
TORSDOF 6
