REMARK  Name = 
REMARK  5 active torsions:
REMARK  status: ('A' for Active; 'I' for Inactive)
REMARK    1  A    between atoms: C_2  and  C_4
REMARK    2  A    between atoms: C_7  and  N_8
REMARK    3  A    between atoms: N_8  and  C_9
REMARK    4  A    between atoms: C_9  and  C_10
REMARK    5  A    between atoms: C_14  and  C_15
REMARK                            x       y       z     vdW  Elec       q    Type
REMARK                         _______ _______ _______ _____ _____    ______ ____
ROOT
ATOM      1  C   UNL     1       4.354  -5.196   3.454  0.00  0.00    +0.000 C 
ENDROOT
BRANCH   1   2
ATOM      2  C   UNL     1       5.002  -6.008   4.557  0.00  0.00    +0.000 A 
ATOM      3  C   UNL     1       5.760  -5.391   5.557  0.00  0.00    +0.000 A 
ATOM      4  C   UNL     1       6.317  -6.154   6.582  0.00  0.00    +0.000 A 
ATOM      5  C   UNL     1       6.109  -7.536   6.624  0.00  0.00    +0.000 A 
ATOM      6  C   UNL     1       5.341  -8.192   5.647  0.00  0.00    +0.000 A 
ATOM      7  C   UNL     1       4.823  -7.405   4.603  0.00  0.00    +0.000 A 
BRANCH   6   8
ATOM      8  C   UNL     1       5.030  -9.637   5.743  0.00  0.00    +0.000 A 
ATOM      9  C   UNL     1       4.759 -10.238   6.981  0.00  0.00    +0.000 A 
ATOM     10  C   UNL     1       4.416 -11.582   7.029  0.00  0.00    +0.000 A 
ATOM     11  N   UNL     1       4.318 -12.369   5.943  0.00  0.00    +0.000 NA
ATOM     12  C   UNL     1       4.581 -11.783   4.759  0.00  0.00    +0.000 A 
ATOM     13  F   UNL     1       4.473 -12.541   3.658  0.00  0.00    +0.000 F 
ATOM     14  C   UNL     1       4.940 -10.453   4.609  0.00  0.00    +0.000 A 
ENDBRANCH   6   8
ENDBRANCH   1   2
BRANCH   1  15
ATOM     15  N   UNL     1       2.930  -5.510   3.434  0.00  0.00    +0.000 N 
ATOM     16  H   UNL     1       2.509  -5.398   4.352  0.00  0.00    +0.000 HD
BRANCH  15  20
ATOM     17  C   UNL     1       0.589  -3.770   0.549  0.00  0.00    +0.000 A 
ATOM     18  C   UNL     1       1.933  -3.447   0.652  0.00  0.00    +0.000 A 
ATOM     19  N   UNL     1       2.744  -3.986   1.603  0.00  0.00    +0.000 NA
ATOM     20  C   UNL     1       2.170  -4.858   2.460  0.00  0.00    +0.000 A 
ATOM     21  C   UNL     1       0.806  -5.166   2.340  0.00  0.00    +0.000 A 
ATOM     22  N   UNL     1      -0.020  -4.636   1.401  0.00  0.00    +0.000 NA
BRANCH  17  24
ATOM     23  N   UNL     1      -1.551  -3.562  -0.563  0.00  0.00    +0.000 N 
ATOM     24  C   UNL     1      -0.236  -3.181  -0.542  0.00  0.00    +0.000 C 
ATOM     25  O   UNL     1       0.229  -2.413  -1.374  0.00  0.00    +0.000 OA
ATOM     26  H   UNL     1      -2.156  -3.224  -1.297  0.00  0.00    +0.000 HD
ATOM     27  H   UNL     1      -1.900  -4.216   0.129  0.00  0.00    +0.000 HD
ENDBRANCH  17  24
ENDBRANCH  15  20
ENDBRANCH   1  15
TORSDOF 5
