REMARK  Name = 
REMARK  3 active torsions:
REMARK  status: ('A' for Active; 'I' for Inactive)
REMARK    1  A    between atoms: C_2  and  C_4
REMARK    2  A    between atoms: N_8  and  C_9
REMARK    3  A    between atoms: C_9  and  C_10
REMARK                            x       y       z     vdW  Elec       q    Type
REMARK                         _______ _______ _______ _____ _____    ______ ____
ROOT
ATOM      1  C   UNL     1       3.235  -1.371  -0.327  0.00  0.00    +0.000 A 
ATOM      2  C   UNL     1       3.765  -1.784   0.891  0.00  0.00    +0.000 A 
ATOM      3  C   UNL     1       4.484  -2.977   0.946  0.00  0.00    +0.000 A 
ATOM      4  C   UNL     1       4.641  -3.749  -0.205  0.00  0.00    +0.000 A 
ATOM      5  N   UNL     1       5.255  -4.986  -0.066  0.00  0.00    +0.000 N 
ATOM      6  N   UNL     1       4.124  -3.362  -1.386  0.00  0.00    +0.000 NA
ATOM      7  C   UNL     1       3.437  -2.191  -1.427  0.00  0.00    +0.000 A 
ATOM      8  H   UNL     1       6.176  -4.930   0.351  0.00  0.00    +0.000 HD
ENDROOT
BRANCH   1  10
ATOM      9  N   UNL     1       2.662   0.868   0.417  0.00  0.00    +0.000 N 
ATOM     10  C   UNL     1       2.444  -0.135  -0.487  0.00  0.00    +0.000 C 
ATOM     11  O   UNL     1       1.649   0.003  -1.405  0.00  0.00    +0.000 OA
ATOM     12  H   UNL     1       2.183   1.743   0.242  0.00  0.00    +0.000 HD
ATOM     13  H   UNL     1       3.460   0.888   1.035  0.00  0.00    +0.000 HD
ENDBRANCH   1  10
BRANCH   5  14
ATOM     14  C   UNL     1       5.149  -5.947  -1.149  0.00  0.00    +0.000 C 
BRANCH  14  15
ATOM     15  C   UNL     1       4.785  -7.281  -0.536  0.00  0.00    +0.000 A 
ATOM     16  C   UNL     1       3.646  -7.386   0.274  0.00  0.00    +0.000 A 
ATOM     17  C   UNL     1       3.331  -8.612   0.833  0.00  0.00    +0.000 A 
ATOM     18  N   UNL     1       4.055  -9.732   0.632  0.00  0.00    +0.000 NA
ATOM     19  C   UNL     1       5.142  -9.614  -0.163  0.00  0.00    +0.000 A 
ATOM     20  C   UNL     1       5.544  -8.430  -0.762  0.00  0.00    +0.000 A 
ENDBRANCH  14  15
ENDBRANCH   5  14
TORSDOF 3
