REMARK  Name = 
REMARK  6 active torsions:
REMARK  status: ('A' for Active; 'I' for Inactive)
REMARK    1  A    between atoms: N_1  and  C_2
REMARK    2  A    between atoms: C_2  and  C_3
REMARK    3  A    between atoms: C_3  and  C_4
REMARK    4  A    between atoms: C_7  and  C_8
REMARK    5  A    between atoms: C_8  and  C_9
REMARK    6  A    between atoms: C_16  and  C_17
REMARK                            x       y       z     vdW  Elec       q    Type
REMARK                         _______ _______ _______ _____ _____    ______ ____
ROOT
ATOM      1  C   UNL     1       9.522   0.668  -1.795  0.00  0.00    +0.000 A 
ATOM      2  N   UNL     1      10.291   1.489  -2.530  0.00  0.00    +0.000 NA
ATOM      3  O   UNL     1      10.395   0.888  -3.770  0.00  0.00    +0.000 OA
ATOM      4  C   UNL     1       9.733  -0.296  -3.752  0.00  0.00    +0.000 A 
ATOM      5  C   UNL     1       9.458  -1.090  -4.855  0.00  0.00    +0.000 A 
ATOM      6  C   UNL     1       8.747  -2.263  -4.600  0.00  0.00    +0.000 A 
ATOM      7  F   UNL     1       8.384  -2.997  -5.664  0.00  0.00    +0.000 F 
ATOM      8  C   UNL     1       8.404  -2.663  -3.301  0.00  0.00    +0.000 A 
ATOM      9  C   UNL     1       8.685  -1.812  -2.210  0.00  0.00    +0.000 A 
ATOM     10  C   UNL     1       9.309  -0.574  -2.464  0.00  0.00    +0.000 A 
ENDROOT
BRANCH   8  11
ATOM     11  C   UNL     1       7.731  -3.960  -3.029  0.00  0.00    +0.000 C 
ATOM     12  N   UNL     1       7.329  -4.716  -4.092  0.00  0.00    +0.000 N 
ATOM     13  O   UNL     1       7.543  -4.355  -1.879  0.00  0.00    +0.000 OA
ATOM     14  H   UNL     1       7.465  -4.432  -5.054  0.00  0.00    +0.000 HD
ATOM     15  H   UNL     1       6.901  -5.614  -3.911  0.00  0.00    +0.000 HD
ENDBRANCH   8  11
BRANCH   1  16
ATOM     16  C   UNL     1       8.862   1.206  -0.568  0.00  0.00    +0.000 C 
BRANCH  16  20
ATOM     17  C   UNL     1       4.630   0.978  -1.548  0.00  0.00    +0.000 A 
ATOM     18  C   UNL     1       5.184   0.153  -0.562  0.00  0.00    +0.000 A 
ATOM     19  C   UNL     1       6.539   0.248  -0.228  0.00  0.00    +0.000 A 
ATOM     20  C   UNL     1       7.373   1.170  -0.874  0.00  0.00    +0.000 A 
ATOM     21  C   UNL     1       6.808   2.014  -1.847  0.00  0.00    +0.000 A 
ATOM     22  C   UNL     1       5.452   1.918  -2.180  0.00  0.00    +0.000 A 
BRANCH  17  23
ATOM     23  C   UNL     1       3.173   0.850  -1.931  0.00  0.00    +0.000 C 
BRANCH  23  24
ATOM     24  C   UNL     1       2.255   1.730  -1.075  0.00  0.00    +0.000 C 
BRANCH  24  25
ATOM     25  N   UNL     1       0.857   1.582  -1.484  0.00  0.00    +0.000 NA
ATOM     26  H   UNL     1       0.267   2.158  -0.884  0.00  0.00    +0.000 HD
ATOM     27  H   UNL     1       0.556   0.619  -1.337  0.00  0.00    +0.000 HD
ENDBRANCH  24  25
ENDBRANCH  23  24
ENDBRANCH  17  23
ENDBRANCH  16  20
ENDBRANCH   1  16
TORSDOF 6
