REMARK  Name = 
REMARK  5 active torsions:
REMARK  status: ('A' for Active; 'I' for Inactive)
REMARK    1  A    between atoms: C_2  and  C_4
REMARK    2  A    between atoms: N_8  and  C_9
REMARK    3  A    between atoms: C_9  and  C_10
REMARK    4  A    between atoms: C_14  and  C_15
REMARK    5  A    between atoms: C_19  and  O_20
REMARK                            x       y       z     vdW  Elec       q    Type
REMARK                         _______ _______ _______ _____ _____    ______ ____
ROOT
ATOM      1  C   UNL     1       5.033  -3.477  -4.865  0.00  0.00    +0.000 C 
ATOM      2  C   UNL     1       5.164  -2.481  -6.010  0.00  0.00    +0.000 C 
ATOM      3  C   UNL     1       3.841  -3.108  -5.725  0.00  0.00    +0.000 C 
ENDROOT
BRANCH   1   8
ATOM      4  C   UNL     1       3.162  -3.715  -0.024  0.00  0.00    +0.000 A 
ATOM      5  C   UNL     1       2.448  -3.644  -1.221  0.00  0.00    +0.000 A 
ATOM      6  C   UNL     1       3.134  -3.408  -2.409  0.00  0.00    +0.000 A 
ATOM      7  C   UNL     1       4.514  -3.237  -2.391  0.00  0.00    +0.000 A 
ATOM      8  N   UNL     1       5.262  -2.902  -3.524  0.00  0.00    +0.000 N 
ATOM      9  N   UNL     1       5.215  -3.294  -1.237  0.00  0.00    +0.000 NA
ATOM     10  C   UNL     1       4.532  -3.525  -0.085  0.00  0.00    +0.000 A 
ATOM     11  H   UNL     1       6.231  -2.926  -3.208  0.00  0.00    +0.000 HD
BRANCH   4  13
ATOM     12  N   UNL     1       1.316  -4.583   1.303  0.00  0.00    +0.000 N 
ATOM     13  C   UNL     1       2.520  -3.937   1.290  0.00  0.00    +0.000 C 
ATOM     14  O   UNL     1       3.061  -3.583   2.328  0.00  0.00    +0.000 OA
ATOM     15  H   UNL     1       0.939  -4.809   2.215  0.00  0.00    +0.000 HD
ATOM     16  H   UNL     1       0.960  -5.094   0.508  0.00  0.00    +0.000 HD
ENDBRANCH   4  13
ENDBRANCH   1   8
BRANCH   1  17
ATOM     17  C   UNL     1       5.646  -4.866  -5.032  0.00  0.00    +0.000 A 
ATOM     18  C   UNL     1       6.937  -5.053  -5.551  0.00  0.00    +0.000 A 
ATOM     19  C   UNL     1       7.522  -6.317  -5.597  0.00  0.00    +0.000 A 
ATOM     20  C   UNL     1       6.837  -7.423  -5.090  0.00  0.00    +0.000 A 
ATOM     21  C   UNL     1       5.556  -7.289  -4.533  0.00  0.00    +0.000 A 
ATOM     22  C   UNL     1       4.972  -6.008  -4.558  0.00  0.00    +0.000 A 
BRANCH  21  23
ATOM     23  C   UNL     1       4.889  -8.407  -3.825  0.00  0.00    +0.000 A 
ATOM     24  C   UNL     1       5.634  -9.299  -3.029  0.00  0.00    +0.000 A 
ATOM     25  C   UNL     1       5.014 -10.283  -2.253  0.00  0.00    +0.000 A 
ATOM     26  C   UNL     1       3.628 -10.392  -2.242  0.00  0.00    +0.000 A 
ATOM     27  C   UNL     1       2.877  -9.526  -3.028  0.00  0.00    +0.000 A 
ATOM     28  C   UNL     1       3.491  -8.563  -3.828  0.00  0.00    +0.000 A 
BRANCH  27  29
ATOM     29  O   UNL     1       1.513  -9.569  -3.019  0.00  0.00    +0.000 OA
ATOM     30  H   UNL     1       1.232 -10.210  -2.345  0.00  0.00    +0.000 HD
ENDBRANCH  27  29
ENDBRANCH  21  23
ENDBRANCH   1  17
TORSDOF 5
