REMARK  Name = 
REMARK  4 active torsions:
REMARK  status: ('A' for Active; 'I' for Inactive)
REMARK    1  A    between atoms: C_2  and  C_4
REMARK    2  A    between atoms: C_7  and  N_8
REMARK    3  A    between atoms: N_8  and  C_9
REMARK    4  A    between atoms: C_9  and  C_10
REMARK                            x       y       z     vdW  Elec       q    Type
REMARK                         _______ _______ _______ _____ _____    ______ ____
ROOT
ATOM      1  N   UNL     1       4.967   3.319  -3.350  0.00  0.00    +0.000 N 
ATOM      2  H   UNL     1       4.145   2.770  -3.112  0.00  0.00    +0.000 HD
ENDROOT
BRANCH   1   6
ATOM      3  C   UNL     1       7.577   3.633  -0.024  0.00  0.00    +0.000 A 
ATOM      4  C   UNL     1       6.576   2.653  -0.056  0.00  0.00    +0.000 A 
ATOM      5  C   UNL     1       5.727   2.555  -1.165  0.00  0.00    +0.000 A 
ATOM      6  C   UNL     1       5.844   3.442  -2.245  0.00  0.00    +0.000 A 
ATOM      7  C   UNL     1       6.879   4.383  -2.218  0.00  0.00    +0.000 A 
ATOM      8  C   UNL     1       7.729   4.492  -1.111  0.00  0.00    +0.000 A 
BRANCH   3  10
ATOM      9  N   UNL     1       8.729   2.723   1.920  0.00  0.00    +0.000 N 
ATOM     10  C   UNL     1       8.483   3.817   1.139  0.00  0.00    +0.000 C 
ATOM     11  O   UNL     1       9.023   4.891   1.375  0.00  0.00    +0.000 OA
ATOM     12  H   UNL     1       9.442   2.840   2.630  0.00  0.00    +0.000 HD
ATOM     13  H   UNL     1       8.532   1.784   1.605  0.00  0.00    +0.000 HD
ENDBRANCH   3  10
ENDBRANCH   1   6
BRANCH   1  14
ATOM     14  C   UNL     1       4.697   4.469  -4.249  0.00  0.00    +0.000 C 
ATOM     15  C   UNL     1       4.230   5.792  -3.659  0.00  0.00    +0.000 C 
ATOM     16  C   UNL     1       3.247   4.935  -4.381  0.00  0.00    +0.000 C 
BRANCH  14  17
ATOM     17  C   UNL     1       5.477   4.482  -5.564  0.00  0.00    +0.000 A 
ATOM     18  C   UNL     1       5.136   3.609  -6.616  0.00  0.00    +0.000 A 
ATOM     19  C   UNL     1       5.661   3.774  -7.902  0.00  0.00    +0.000 A 
ATOM     20  C   UNL     1       6.566   4.801  -8.153  0.00  0.00    +0.000 A 
ATOM     21  C   UNL     1       6.977   5.613  -7.107  0.00  0.00    +0.000 A 
ATOM     22  F   UNL     1       7.851   6.601  -7.340  0.00  0.00    +0.000 F 
ATOM     23  C   UNL     1       6.457   5.453  -5.829  0.00  0.00    +0.000 A 
ENDBRANCH  14  17
ENDBRANCH   1  14
TORSDOF 4
