REMARK  Name = 
REMARK  8 active torsions:
REMARK  status: ('A' for Active; 'I' for Inactive)
REMARK    1  A    between atoms: C_1  and  C_2
REMARK    2  A    between atoms: C_2  and  C_3
REMARK    3  A    between atoms: C_3  and  N_4
REMARK    4  A    between atoms: C_3  and  C_17
REMARK    5  A    between atoms: C_5  and  C_7
REMARK    6  A    between atoms: C_20  and  C_21
REMARK    7  A    between atoms: C_21  and  N_22
REMARK    8  A    between atoms: C_23  and  C_25
REMARK                            x       y       z     vdW  Elec       q    Type
REMARK                         _______ _______ _______ _____ _____    ______ ____
ROOT
ATOM      1  C   UNL     1       2.870  -0.031   1.195  0.00  0.00    +0.000 C 
ENDROOT
BRANCH   1   2
ATOM      2  C   UNL     1       4.396  -0.053   1.318  0.00  0.00    +0.000 A 
ATOM      3  C   UNL     1       5.074   0.957   2.020  0.00  0.00    +0.000 A 
ATOM      4  C   UNL     1       6.473   0.938   2.146  0.00  0.00    +0.000 A 
ATOM      5  C   UNL     1       7.233  -0.088   1.571  0.00  0.00    +0.000 A 
ATOM      6  C   UNL     1       6.559  -1.107   0.886  0.00  0.00    +0.000 A 
ATOM      7  C   UNL     1       5.163  -1.089   0.759  0.00  0.00    +0.000 A 
BRANCH   5   8
ATOM      8  C   UNL     1       8.739  -0.087   1.647  0.00  0.00    +0.000 C 
BRANCH   8   9
ATOM      9  N   UNL     1       9.267  -0.788   2.789  0.00  0.00    +0.000 N 
ATOM     10  C   UNL     1      10.630  -0.914   2.966  0.00  0.00    +0.000 C 
ATOM     11  O   UNL     1      11.453  -0.472   2.174  0.00  0.00    +0.000 OA
ATOM     12  H   UNL     1       8.664  -1.167   3.512  0.00  0.00    +0.000 HD
BRANCH  10  13
ATOM     13  C   UNL     1      11.008  -1.624   4.191  0.00  0.00    +0.000 A 
ATOM     14  C   UNL     1      12.298  -1.888   4.619  0.00  0.00    +0.000 A 
ATOM     15  N   UNL     1      12.165  -2.567   5.799  0.00  0.00    +0.000 N 
ATOM     16  C   UNL     1      10.828  -2.693   6.049  0.00  0.00    +0.000 A 
ATOM     17  N   UNL     1      10.099  -2.139   5.107  0.00  0.00    +0.000 NA
ATOM     18  H   UNL     1      12.916  -2.911   6.379  0.00  0.00    +0.000 HD
ENDBRANCH  10  13
ENDBRANCH   8   9
ENDBRANCH   5   8
ENDBRANCH   1   2
BRANCH   1  19
ATOM     19  N   UNL     1       2.324  -1.179   1.912  0.00  0.00    +0.000 N 
ATOM     20  C   UNL     1       0.980  -1.382   2.117  0.00  0.00    +0.000 C 
ATOM     21  O   UNL     1       0.112  -0.657   1.641  0.00  0.00    +0.000 OA
ATOM     22  H   UNL     1       2.974  -1.652   2.533  0.00  0.00    +0.000 HD
BRANCH  20  23
ATOM     23  C   UNL     1       0.617  -2.553   2.920  0.00  0.00    +0.000 A 
ATOM     24  C   UNL     1      -0.578  -3.222   2.696  0.00  0.00    +0.000 A 
ATOM     25  S   UNL     1      -0.851  -4.509   3.784  0.00  0.00    +0.000 S 
ATOM     26  C   UNL     1       0.601  -4.189   4.612  0.00  0.00    +0.000 A 
ATOM     27  N   UNL     1       0.952  -4.890   5.724  0.00  0.00    +0.000 NA
ATOM     28  C   UNL     1       2.061  -4.508   6.267  0.00  0.00    +0.000 A 
ATOM     29  N   UNL     1       2.864  -3.510   5.785  0.00  0.00    +0.000 N 
ATOM     30  C   UNL     1       2.583  -2.820   4.631  0.00  0.00    +0.000 A 
ATOM     31  O   UNL     1       3.376  -2.013   4.161  0.00  0.00    +0.000 OA
ATOM     32  C   UNL     1       1.313  -3.160   4.026  0.00  0.00    +0.000 A 
ATOM     33  H   UNL     1       3.746  -3.285   6.226  0.00  0.00    +0.000 HD
ENDBRANCH  20  23
ENDBRANCH   1  19
BRANCH   1  35
ATOM     34  C   UNL     1       2.862   1.174  -1.082  0.00  0.00    +0.000 C 
ATOM     35  C   UNL     1       2.385  -0.020  -0.271  0.00  0.00    +0.000 C 
ENDBRANCH   1  35
TORSDOF 7
