REMARK  Name = 
REMARK  10 active torsions:
REMARK  status: ('A' for Active; 'I' for Inactive)
REMARK    1  A    between atoms: C_1  and  O_2
REMARK    2  A    between atoms: O_2  and  C_3
REMARK    3  A    between atoms: C_10  and  C_11
REMARK    4  A    between atoms: N_13  and  C_14
REMARK    5  A    between atoms: C_14  and  C_15
REMARK    6  A    between atoms: C_18  and  C_19
REMARK    7  A    between atoms: C_19  and  N_20
REMARK    8  A    between atoms: N_20  and  C_21
REMARK    9  A    between atoms: C_21  and  C_22
REMARK   10  A    between atoms: C_25  and  C_26
REMARK                            x       y       z     vdW  Elec       q    Type
REMARK                         _______ _______ _______ _____ _____    ______ ____
ROOT
ATOM      1  C   UNL     1       1.823  -1.291   3.112  0.00  0.00    +0.000 A 
ATOM      2  C   UNL     1       0.653  -1.864   3.627  0.00  0.00    +0.000 A 
ATOM      3  C   UNL     1      -0.373  -1.057   4.130  0.00  0.00    +0.000 A 
ATOM      4  C   UNL     1      -0.256   0.341   4.126  0.00  0.00    +0.000 A 
ATOM      5  C   UNL     1       0.903   0.913   3.585  0.00  0.00    +0.000 A 
ATOM      6  C   UNL     1       1.929   0.106   3.080  0.00  0.00    +0.000 A 
ENDROOT
BRANCH   1   7
ATOM      7  C   UNL     1       2.922  -2.160   2.552  0.00  0.00    +0.000 C 
BRANCH   7  10
ATOM      8  C   UNL     1       3.541  -3.195   0.403  0.00  0.00    +0.000 C 
ATOM      9  O   UNL     1       4.524  -3.739   0.902  0.00  0.00    +0.000 OA
ATOM     10  N   UNL     1       2.713  -2.406   1.147  0.00  0.00    +0.000 N 
ATOM     11  H   UNL     1       1.932  -1.935   0.709  0.00  0.00    +0.000 HD
BRANCH   8  19
ATOM     12  C   UNL     1       0.951  -2.084  -1.576  0.00  0.00    +0.000 A 
ATOM     13  N   UNL     1       0.080  -1.787  -2.560  0.00  0.00    +0.000 NA
ATOM     14  C   UNL     1       0.322  -2.270  -3.781  0.00  0.00    +0.000 A 
ATOM     15  N   UNL     1       1.347  -3.034  -4.152  0.00  0.00    +0.000 NA
ATOM     16  C   UNL     1       2.195  -3.301  -3.144  0.00  0.00    +0.000 A 
ATOM     17  S   UNL     1       3.562  -4.264  -3.434  0.00  0.00    +0.000 S 
ATOM     18  C   UNL     1       4.060  -4.136  -1.814  0.00  0.00    +0.000 A 
ATOM     19  C   UNL     1       3.211  -3.367  -1.024  0.00  0.00    +0.000 A 
ATOM     20  C   UNL     1       2.092  -2.870  -1.825  0.00  0.00    +0.000 A 
BRANCH  12  22
ATOM     21  C   UNL     1      -0.649  -1.238  -0.091  0.00  0.00    +0.000 C 
ATOM     22  O   UNL     1       0.720  -1.557  -0.324  0.00  0.00    +0.000 OA
ENDBRANCH  12  22
ENDBRANCH   8  19
ENDBRANCH   7  10
ENDBRANCH   1   7
BRANCH   4  23
ATOM     23  C   UNL     1      -1.360   1.209   4.693  0.00  0.00    +0.000 C 
BRANCH  23  24
ATOM     24  N   UNL     1      -1.591   0.897   6.102  0.00  0.00    +0.000 NA
ATOM     25  H   UNL     1      -0.728   1.068   6.620  0.00  0.00    +0.000 HD
BRANCH  24  26
ATOM     26  C   UNL     1      -2.643   1.739   6.684  0.00  0.00    +0.000 C 
BRANCH  26  27
ATOM     27  C   UNL     1      -2.871   1.414   8.151  0.00  0.00    +0.000 A 
ATOM     28  C   UNL     1      -3.256   0.129   8.529  0.00  0.00    +0.000 A 
ATOM     29  C   UNL     1      -3.421  -0.161   9.881  0.00  0.00    +0.000 A 
ATOM     30  C   UNL     1      -3.207   0.835  10.830  0.00  0.00    +0.000 A 
ATOM     31  C   UNL     1      -3.361   0.573  12.294  0.00  0.00    +0.000 C 
ATOM     32  C   UNL     1      -2.838   2.092  10.364  0.00  0.00    +0.000 A 
ATOM     33  N   UNL     1      -2.663   2.403   9.057  0.00  0.00    +0.000 NA
ENDBRANCH  26  27
ENDBRANCH  24  26
ENDBRANCH  23  24
ENDBRANCH   4  23
TORSDOF 8
