REMARK  Name = 
REMARK  9 active torsions:
REMARK  status: ('A' for Active; 'I' for Inactive)
REMARK    1  A    between atoms: C_1  and  C_2
REMARK    2  A    between atoms: C_2  and  N_3
REMARK    3  A    between atoms: N_3  and  C_4
REMARK    4  A    between atoms: N_3  and  C_25
REMARK    5  A    between atoms: C_4  and  C_5
REMARK    6  A    between atoms: C_8  and  C_9
REMARK    7  A    between atoms: C_9  and  N_10
REMARK    8  A    between atoms: C_11  and  C_13
REMARK    9  A    between atoms: C_25  and  C_26
REMARK                            x       y       z     vdW  Elec       q    Type
REMARK                         _______ _______ _______ _____ _____    ______ ____
ROOT
ATOM      1  C   UNL     1       0.888  -2.434  -0.019  0.00  0.00    +0.000 A 
ATOM      2  C   UNL     1       0.041  -1.903  -0.998  0.00  0.00    +0.000 A 
ATOM      3  C   UNL     1      -1.341  -2.003  -0.852  0.00  0.00    +0.000 A 
ATOM      4  C   UNL     1      -1.850  -2.660   0.263  0.00  0.00    +0.000 A 
ATOM      5  N   UNL     1      -1.052  -3.242   1.192  0.00  0.00    +0.000 NA
ATOM      6  C   UNL     1       0.284  -3.120   1.026  0.00  0.00    +0.000 A 
ENDROOT
BRANCH   1   7
ATOM      7  C   UNL     1       2.385  -2.253  -0.071  0.00  0.00    +0.000 C 
BRANCH   7   8
ATOM      8  N   UNL     1       2.933  -1.013   0.527  0.00  0.00    +0.000 NA
BRANCH   8  10
ATOM      9  C   UNL     1       3.376  -2.042   2.803  0.00  0.00    +0.000 C 
ATOM     10  C   UNL     1       2.781  -0.901   1.984  0.00  0.00    +0.000 C 
ENDBRANCH   8  10
BRANCH   8  11
ATOM     11  C   UNL     1       2.435   0.196  -0.164  0.00  0.00    +0.000 C 
BRANCH  11  12
ATOM     12  C   UNL     1       3.143   1.527   0.198  0.00  0.00    +0.000 C 
ATOM     13  C   UNL     1       2.507   2.682  -0.600  0.00  0.00    +0.000 C 
ATOM     14  C   UNL     1       3.248   4.006  -0.427  0.00  0.00    +0.000 C 
ATOM     15  C   UNL     1       4.736   3.859  -0.712  0.00  0.00    +0.000 C 
ATOM     16  C   UNL     1       5.350   2.787   0.179  0.00  0.00    +0.000 C 
ATOM     17  C   UNL     1       4.662   1.441  -0.027  0.00  0.00    +0.000 C 
ENDBRANCH  11  12
ENDBRANCH   8  11
ENDBRANCH   7   8
ENDBRANCH   1   7
BRANCH   4  18
ATOM     18  C   UNL     1      -3.331  -2.658   0.547  0.00  0.00    +0.000 C 
BRANCH  18  19
ATOM     19  N   UNL     1      -3.713  -1.497   1.325  0.00  0.00    +0.000 N 
ATOM     20  C   UNL     1      -4.277  -0.387   0.758  0.00  0.00    +0.000 C 
ATOM     21  O   UNL     1      -4.508  -0.316  -0.447  0.00  0.00    +0.000 OA
ATOM     22  H   UNL     1      -3.290  -1.432   2.246  0.00  0.00    +0.000 HD
BRANCH  20  23
ATOM     23  C   UNL     1      -4.668   0.692   1.676  0.00  0.00    +0.000 A 
ATOM     24  C   UNL     1      -5.649   1.595   1.286  0.00  0.00    +0.000 A 
ATOM     25  S   UNL     1      -6.034   2.747   2.482  0.00  0.00    +0.000 S 
ATOM     26  C   UNL     1      -4.877   2.106   3.552  0.00  0.00    +0.000 A 
ATOM     27  N   UNL     1      -4.681   2.653   4.780  0.00  0.00    +0.000 NA
ATOM     28  C   UNL     1      -3.753   2.088   5.478  0.00  0.00    +0.000 A 
ATOM     29  N   UNL     1      -2.997   1.024   5.054  0.00  0.00    +0.000 N 
ATOM     30  C   UNL     1      -3.188   0.415   3.836  0.00  0.00    +0.000 A 
ATOM     31  O   UNL     1      -2.540  -0.575   3.514  0.00  0.00    +0.000 OA
ATOM     32  C   UNL     1      -4.210   1.024   3.007  0.00  0.00    +0.000 A 
ATOM     33  H   UNL     1      -2.297   0.613   5.654  0.00  0.00    +0.000 HD
ENDBRANCH  20  23
ENDBRANCH  18  19
ENDBRANCH   4  18
TORSDOF 8
