REMARK  Name = 
REMARK  6 active torsions:
REMARK  status: ('A' for Active; 'I' for Inactive)
REMARK    1  A    between atoms: N_1  and  C_2
REMARK    2  A    between atoms: C_2  and  C_3
REMARK    3  A    between atoms: C_6  and  O_7
REMARK    4  A    between atoms: O_7  and  C_8
REMARK    5  A    between atoms: C_8  and  C_9
REMARK    6  A    between atoms: C_12  and  C_13
REMARK                            x       y       z     vdW  Elec       q    Type
REMARK                         _______ _______ _______ _____ _____    ______ ____
ROOT
ATOM      1  C   UNL     1       3.380   6.322  -1.262  0.00  0.00    +0.000 C 
ENDROOT
BRANCH   1   2
ATOM      2  C   UNL     1       3.989   7.639  -1.685  0.00  0.00    +0.000 A 
ATOM      3  N   UNL     1       3.339   8.314  -2.680  0.00  0.00    +0.000 NA
ATOM      4  C   UNL     1       3.797   9.539  -3.025  0.00  0.00    +0.000 A 
ATOM      5  C   UNL     1       4.881  10.153  -2.421  0.00  0.00    +0.000 A 
ATOM      6  C   UNL     1       5.536   9.451  -1.402  0.00  0.00    +0.000 A 
ATOM      7  C   UNL     1       5.089   8.185  -1.024  0.00  0.00    +0.000 A 
ATOM      8 CL   UNL     1       5.890   7.390   0.278  0.00  0.00    +0.000 Cl
BRANCH   5   9
ATOM      9  C   UNL     1       5.318  11.521  -2.841  0.00  0.00    +0.000 C 
ATOM     10  F   UNL     1       4.561  12.051  -3.841  0.00  0.00    +0.000 F 
ATOM     11  F   UNL     1       5.264  12.419  -1.819  0.00  0.00    +0.000 F 
ATOM     12  F   UNL     1       6.601  11.544  -3.292  0.00  0.00    +0.000 F 
ENDBRANCH   5   9
ENDBRANCH   1   2
BRANCH   1  13
ATOM     13  O   UNL     1       4.275   5.218  -1.450  0.00  0.00    +0.000 OA
BRANCH  13  17
ATOM     14  C   UNL     1       2.950   1.397  -0.336  0.00  0.00    +0.000 A 
ATOM     15  C   UNL     1       2.102   2.496  -0.154  0.00  0.00    +0.000 A 
ATOM     16  C   UNL     1       2.514   3.782  -0.508  0.00  0.00    +0.000 A 
ATOM     17  C   UNL     1       3.782   4.000  -1.046  0.00  0.00    +0.000 A 
ATOM     18  C   UNL     1       4.646   2.913  -1.204  0.00  0.00    +0.000 A 
ATOM     19  C   UNL     1       4.233   1.622  -0.857  0.00  0.00    +0.000 A 
BRANCH  14  20
ATOM     20  C   UNL     1       2.499   0.016   0.064  0.00  0.00    +0.000 C 
BRANCH  20  21
ATOM     21  N   UNL     1       1.286  -0.395  -0.635  0.00  0.00    +0.000 NA
ATOM     22  H   UNL     1       1.053  -1.347  -0.366  0.00  0.00    +0.000 HD
ATOM     23  H   UNL     1       1.476  -0.418  -1.637  0.00  0.00    +0.000 HD
ENDBRANCH  20  21
ENDBRANCH  14  20
ENDBRANCH  13  17
ENDBRANCH   1  13
TORSDOF 6
