REMARK  Name = 
REMARK  9 active torsions:
REMARK  status: ('A' for Active; 'I' for Inactive)
REMARK    1  A    between atoms: C_1  and  C_2
REMARK    2  A    between atoms: C_2  and  C_3
REMARK    3  A    between atoms: C_5  and  N_6
REMARK    4  A    between atoms: C_9  and  C_10
REMARK    5  A    between atoms: C_10  and  C_11
REMARK    6  A    between atoms: C_10  and  C_12
REMARK    7  A    between atoms: C_10  and  C_13
REMARK    8  A    between atoms: C_13  and  N_14
REMARK    9  A    between atoms: C_18  and  C_19
REMARK                            x       y       z     vdW  Elec       q    Type
REMARK                         _______ _______ _______ _____ _____    ______ ____
ROOT
ATOM      1  C   UNL     1      -4.452   0.553   4.725  0.00  0.00    +0.000 C 
ATOM      2  C   UNL     1      -3.457  -0.586   5.071  0.00  0.00    +0.000 C 
ATOM      3  C   UNL     1      -3.822   1.893   5.168  0.00  0.00    +0.000 C 
ENDROOT
BRANCH   1   7
ATOM      4  N   UNL     1      -2.799   0.933   0.048  0.00  0.00    +0.000 N 
ATOM      5  C   UNL     1      -3.892   0.792   0.928  0.00  0.00    +0.000 A 
ATOM      6  C   UNL     1      -3.656   0.806   2.302  0.00  0.00    +0.000 A 
ATOM      7  C   UNL     1      -4.704   0.554   3.204  0.00  0.00    +0.000 A 
ATOM      8  C   UNL     1      -5.958   0.292   2.638  0.00  0.00    +0.000 A 
ATOM      9  C   UNL     1      -6.123   0.379   1.267  0.00  0.00    +0.000 A 
ATOM     10  N   UNL     1      -5.120   0.618   0.409  0.00  0.00    +0.000 NA
ATOM     11  H   UNL     1      -2.514   1.907   0.076  0.00  0.00    +0.000 HD
BRANCH   4  16
ATOM     12  C   UNL     1      -2.530  -1.176  -3.855  0.00  0.00    +0.000 C 
ATOM     13  C   UNL     1      -1.964  -1.161  -2.436  0.00  0.00    +0.000 C 
ATOM     14  C   UNL     1      -0.931  -2.264  -2.229  0.00  0.00    +0.000 C 
ATOM     15  C   UNL     1      -3.056  -1.112  -1.334  0.00  0.00    +0.000 C 
ATOM     16  C   UNL     1      -2.888   0.429  -1.294  0.00  0.00    +0.000 C 
ATOM     17  C   UNL     1      -1.500   0.240  -1.937  0.00  0.00    +0.000 C 
ENDBRANCH   4  16
ENDBRANCH   1   7
BRANCH   1  18
ATOM     18  C   UNL     1      -5.727   0.302   5.591  0.00  0.00    +0.000 C 
BRANCH  18  19
ATOM     19  N   UNL     1      -6.732   1.372   5.471  0.00  0.00    +0.000 N 
ATOM     20  C   UNL     1      -7.943   1.067   6.112  0.00  0.00    +0.000 A 
ATOM     21  C   UNL     1      -9.016   1.940   5.980  0.00  0.00    +0.000 A 
ATOM     22  C   UNL     1     -10.212   1.665   6.652  0.00  0.00    +0.000 A 
ATOM     23  C   UNL     1     -10.307   0.522   7.448  0.00  0.00    +0.000 A 
ATOM     24  C   UNL     1      -9.188  -0.284   7.528  0.00  0.00    +0.000 A 
ATOM     25  N   UNL     1      -8.025  -0.033   6.886  0.00  0.00    +0.000 NA
ATOM     26  H   UNL     1      -6.914   1.656   4.516  0.00  0.00    +0.000 HD
BRANCH  23  27
ATOM     27  C   UNL     1     -11.572   0.227   8.166  0.00  0.00    +0.000 C 
ATOM     28  N   UNL     1     -11.654  -0.895   8.935  0.00  0.00    +0.000 N 
ATOM     29  O   UNL     1     -12.539   0.982   8.074  0.00  0.00    +0.000 OA
ATOM     30  H   UNL     1     -10.921  -1.568   9.091  0.00  0.00    +0.000 HD
ATOM     31  H   UNL     1     -12.533  -1.049   9.414  0.00  0.00    +0.000 HD
ENDBRANCH  23  27
ENDBRANCH  18  19
ENDBRANCH   1  18
TORSDOF 5
