REMARK  Name = 
REMARK  7 active torsions:
REMARK  status: ('A' for Active; 'I' for Inactive)
REMARK    1  A    between atoms: C_1  and  O_2
REMARK    2  A    between atoms: O_2  and  C_3
REMARK    3  A    between atoms: C_3  and  C_4
REMARK    4  A    between atoms: C_4  and  N_5
REMARK    5  A    between atoms: C_4  and  C_15
REMARK    6  A    between atoms: N_5  and  C_6
REMARK    7  A    between atoms: C_9  and  C_10
REMARK                            x       y       z     vdW  Elec       q    Type
REMARK                         _______ _______ _______ _____ _____    ______ ____
ROOT
ATOM      1  N   UNL     1       2.843   1.033   0.702  0.00  0.00    +0.000 N 
ATOM      2  H   UNL     1       2.402   0.753   1.576  0.00  0.00    +0.000 HD
ENDROOT
BRANCH   1   3
ATOM      3  C   UNL     1       2.037   1.928   0.017  0.00  0.00    +0.000 A 
ATOM      4  C   UNL     1       0.782   1.461  -0.410  0.00  0.00    +0.000 A 
ATOM      5  C   UNL     1      -0.137   2.298  -1.050  0.00  0.00    +0.000 A 
ATOM      6  C   UNL     1       0.170   3.643  -1.253  0.00  0.00    +0.000 A 
ATOM      7  C   UNL     1       1.422   4.123  -0.852  0.00  0.00    +0.000 A 
ATOM      8  C   UNL     1       2.345   3.267  -0.224  0.00  0.00    +0.000 A 
BRANCH   6   9
ATOM      9  C   UNL     1      -0.863   4.511  -1.879  0.00  0.00    +0.000 C 
ATOM     10  N   UNL     1      -0.813   5.849  -1.606  0.00  0.00    +0.000 N 
ATOM     11  O   UNL     1      -1.757   4.048  -2.576  0.00  0.00    +0.000 OA
ATOM     12  H   UNL     1      -0.260   6.228  -0.851  0.00  0.00    +0.000 HD
ATOM     13  H   UNL     1      -1.608   6.392  -1.920  0.00  0.00    +0.000 HD
ENDBRANCH   6   9
ENDBRANCH   1   3
BRANCH   1  14
ATOM     14  C   UNL     1       4.309   1.063   0.811  0.00  0.00    +0.000 C 
BRANCH  14  15
ATOM     15  C   UNL     1       4.830   2.062   1.842  0.00  0.00    +0.000 A 
ATOM     16  C   UNL     1       4.474   1.911   3.196  0.00  0.00    +0.000 A 
ATOM     17  C   UNL     1       5.055   2.705   4.189  0.00  0.00    +0.000 A 
ATOM     18  C   UNL     1       5.995   3.673   3.849  0.00  0.00    +0.000 A 
ATOM     19  C   UNL     1       6.339   3.860   2.514  0.00  0.00    +0.000 A 
ATOM     20  C   UNL     1       5.762   3.064   1.521  0.00  0.00    +0.000 A 
ENDBRANCH  14  15
BRANCH  14  21
ATOM     21  C   UNL     1       4.990   1.051  -0.581  0.00  0.00    +0.000 C 
BRANCH  21  23
ATOM     22  C   UNL     1       7.053   0.614  -1.675  0.00  0.00    +0.000 C 
ATOM     23  O   UNL     1       6.326   0.539  -0.458  0.00  0.00    +0.000 OA
ENDBRANCH  21  23
ENDBRANCH  14  21
ENDBRANCH   1  14
TORSDOF 6
