REMARK  Name = 
REMARK  7 active torsions:
REMARK  status: ('A' for Active; 'I' for Inactive)
REMARK    1  A    between atoms: C_1  and  O_2
REMARK    2  A    between atoms: O_2  and  C_3
REMARK    3  A    between atoms: N_6  and  C_7
REMARK    4  A    between atoms: C_7  and  C_8
REMARK    5  A    between atoms: C_13  and  C_14
REMARK    6  A    between atoms: C_18  and  C_19
REMARK    7  A    between atoms: C_24  and  O_25
REMARK                            x       y       z     vdW  Elec       q    Type
REMARK                         _______ _______ _______ _____ _____    ______ ____
ROOT
ATOM      1  C   UNL     1       7.670  -2.762   4.069  0.00  0.00    +0.000 A 
ATOM      2  C   UNL     1       7.954  -1.425   4.370  0.00  0.00    +0.000 A 
ATOM      3  C   UNL     1       9.029  -1.108   5.196  0.00  0.00    +0.000 A 
ATOM      4  C   UNL     1       9.834  -2.122   5.713  0.00  0.00    +0.000 A 
ATOM      5  F   UNL     1      10.864  -1.752   6.490  0.00  0.00    +0.000 F 
ATOM      6  C   UNL     1       9.601  -3.480   5.434  0.00  0.00    +0.000 A 
ATOM      7  C   UNL     1       8.501  -3.771   4.597  0.00  0.00    +0.000 A 
ENDROOT
BRANCH   6   8
ATOM      8  C   UNL     1      10.451  -4.561   5.989  0.00  0.00    +0.000 A 
ATOM      9  C   UNL     1      11.059  -4.472   7.245  0.00  0.00    +0.000 A 
ATOM     10  N   UNL     1      11.841  -5.427   7.811  0.00  0.00    +0.000 NA
ATOM     11  C   UNL     1      12.039  -6.552   7.095  0.00  0.00    +0.000 A 
ATOM     12  C   UNL     1      11.489  -6.773   5.842  0.00  0.00    +0.000 A 
ATOM     13  C   UNL     1      11.721  -8.050   5.098  0.00  0.00    +0.000 C 
ATOM     14  C   UNL     1      10.695  -5.757   5.293  0.00  0.00    +0.000 A 
ENDBRANCH   6   8
BRANCH   1  15
ATOM     15  C   UNL     1       6.482  -3.118   3.202  0.00  0.00    +0.000 C 
BRANCH  15  19
ATOM     16  C   UNL     1       5.580  -4.511  -1.175  0.00  0.00    +0.000 A 
ATOM     17  N   UNL     1       6.429  -4.084  -0.203  0.00  0.00    +0.000 NA
ATOM     18  C   UNL     1       5.903  -3.451   0.863  0.00  0.00    +0.000 A 
ATOM     19  N   UNL     1       6.823  -2.989   1.798  0.00  0.00    +0.000 N 
ATOM     20  C   UNL     1       4.532  -3.230   0.978  0.00  0.00    +0.000 A 
ATOM     21  C   UNL     1       3.668  -3.688  -0.016  0.00  0.00    +0.000 A 
ATOM     22  C   UNL     1       4.199  -4.342  -1.116  0.00  0.00    +0.000 A 
ATOM     23  H   UNL     1       7.725  -3.385   1.542  0.00  0.00    +0.000 HD
BRANCH  16  25
ATOM     24  C   UNL     1       7.507  -5.277  -2.264  0.00  0.00    +0.000 C 
ATOM     25  O   UNL     1       6.091  -5.157  -2.285  0.00  0.00    +0.000 OA
ENDBRANCH  16  25
BRANCH  22  26
ATOM     26  O   UNL     1       3.387  -4.798  -2.113  0.00  0.00    +0.000 OA
ATOM     27  H   UNL     1       2.463  -4.601  -1.892  0.00  0.00    +0.000 HD
ENDBRANCH  22  26
ENDBRANCH  15  19
ENDBRANCH   1  15
TORSDOF 5
