REMARK  Name = 
REMARK  4 active torsions:
REMARK  status: ('A' for Active; 'I' for Inactive)
REMARK    1  A    between atoms: C_2  and  C_4
REMARK    2  A    between atoms: N_8  and  C_9
REMARK    3  A    between atoms: C_9  and  C_10
REMARK    4  A    between atoms: C_15  and  C_16
REMARK                            x       y       z     vdW  Elec       q    Type
REMARK                         _______ _______ _______ _____ _____    ______ ____
ROOT
ATOM      1  C   UNL     1       5.100  -3.731  -4.686  0.00  0.00    +0.000 C 
ATOM      2  C   UNL     1       5.253  -2.760  -5.850  0.00  0.00    +0.000 C 
ATOM      3  C   UNL     1       3.929  -3.391  -5.589  0.00  0.00    +0.000 C 
ENDROOT
BRANCH   1   8
ATOM      4  C   UNL     1       3.198  -3.535   0.161  0.00  0.00    +0.000 A 
ATOM      5  C   UNL     1       2.501  -3.542  -1.045  0.00  0.00    +0.000 A 
ATOM      6  C   UNL     1       3.202  -3.425  -2.243  0.00  0.00    +0.000 A 
ATOM      7  C   UNL     1       4.585  -3.312  -2.222  0.00  0.00    +0.000 A 
ATOM      8  N   UNL     1       5.355  -3.114  -3.373  0.00  0.00    +0.000 N 
ATOM      9  N   UNL     1       5.273  -3.288  -1.059  0.00  0.00    +0.000 NA
ATOM     10  C   UNL     1       4.575  -3.389   0.104  0.00  0.00    +0.000 A 
ATOM     11  H   UNL     1       6.323  -3.137  -3.055  0.00  0.00    +0.000 HD
BRANCH   4  13
ATOM     12  N   UNL     1       1.324  -4.297   1.493  0.00  0.00    +0.000 N 
ATOM     13  C   UNL     1       2.521  -3.635   1.469  0.00  0.00    +0.000 C 
ATOM     14  O   UNL     1       3.015  -3.170   2.485  0.00  0.00    +0.000 OA
ATOM     15  H   UNL     1       0.889  -4.429   2.397  0.00  0.00    +0.000 HD
ATOM     16  H   UNL     1       1.012  -4.889   0.736  0.00  0.00    +0.000 HD
ENDBRANCH   4  13
ENDBRANCH   1   8
BRANCH   1  17
ATOM     17  C   UNL     1       5.680  -5.137  -4.809  0.00  0.00    +0.000 A 
ATOM     18  C   UNL     1       6.987  -5.361  -5.267  0.00  0.00    +0.000 A 
ATOM     19  C   UNL     1       7.530  -6.643  -5.286  0.00  0.00    +0.000 A 
ATOM     20  C   UNL     1       6.769  -7.726  -4.854  0.00  0.00    +0.000 A 
ATOM     21  F   UNL     1       7.352  -8.934  -4.885  0.00  0.00    +0.000 F 
ATOM     22  C   UNL     1       5.450  -7.574  -4.401  0.00  0.00    +0.000 A 
ATOM     23  C   UNL     1       4.933  -6.261  -4.397  0.00  0.00    +0.000 A 
BRANCH  22  24
ATOM     24  C   UNL     1       4.636  -8.713  -3.923  0.00  0.00    +0.000 A 
ATOM     25  C   UNL     1       5.199  -9.813  -3.263  0.00  0.00    +0.000 A 
ATOM     26  C   UNL     1       4.402 -10.867  -2.817  0.00  0.00    +0.000 A 
ATOM     27  C   UNL     1       3.040 -10.794  -3.026  0.00  0.00    +0.000 A 
ATOM     28  N   UNL     1       2.437  -9.759  -3.644  0.00  0.00    +0.000 NA
ATOM     29  C   UNL     1       3.247  -8.760  -4.079  0.00  0.00    +0.000 A 
ENDBRANCH  22  24
ENDBRANCH   1  17
TORSDOF 4
