REMARK  Name = 
REMARK  5 active torsions:
REMARK  status: ('A' for Active; 'I' for Inactive)
REMARK    1  A    between atoms: C_1  and  N_2
REMARK    2  A    between atoms: C_4  and  N_5
REMARK    3  A    between atoms: C_4  and  C_15
REMARK    4  A    between atoms: N_5  and  C_6
REMARK    5  A    between atoms: C_9  and  C_10
REMARK                            x       y       z     vdW  Elec       q    Type
REMARK                         _______ _______ _______ _____ _____    ______ ____
ROOT
ATOM      1  N   UNL     1       4.539  -0.033   2.685  0.00  0.00    +0.000 N 
ATOM      2  H   UNL     1       3.997   0.631   3.229  0.00  0.00    +0.000 HD
ENDROOT
BRANCH   1   3
ATOM      3  C   UNL     1       5.155  -0.997   3.508  0.00  0.00    +0.000 A 
ATOM      4  C   UNL     1       5.448  -2.294   3.090  0.00  0.00    +0.000 A 
ATOM      5  C   UNL     1       6.066  -3.207   3.958  0.00  0.00    +0.000 A 
ATOM      6  C   UNL     1       6.447  -2.821   5.248  0.00  0.00    +0.000 A 
ATOM      7  C   UNL     1       6.215  -1.508   5.661  0.00  0.00    +0.000 A 
ATOM      8  C   UNL     1       5.581  -0.607   4.791  0.00  0.00    +0.000 A 
BRANCH   6   9
ATOM      9  C   UNL     1       7.047  -3.847   6.142  0.00  0.00    +0.000 C 
ATOM     10  N   UNL     1       7.867  -3.417   7.149  0.00  0.00    +0.000 N 
ATOM     11  O   UNL     1       6.835  -5.042   5.977  0.00  0.00    +0.000 OA
ATOM     12  H   UNL     1       8.246  -2.482   7.192  0.00  0.00    +0.000 HD
ATOM     13  H   UNL     1       8.342  -4.145   7.680  0.00  0.00    +0.000 HD
ENDBRANCH   6   9
ENDBRANCH   1   3
BRANCH   1  17
ATOM     14  C   UNL     1       0.953  -0.022   0.200  0.00  0.00    +0.000 C 
ATOM     15  N   UNL     1       2.404  -0.048   0.091  0.00  0.00    +0.000 NA
ATOM     16  C   UNL     1       2.996  -1.101   0.962  0.00  0.00    +0.000 C 
ATOM     17  C   UNL     1       4.163  -0.097   1.282  0.00  0.00    +0.000 C 
ATOM     18  C   UNL     1       3.031   0.970   0.969  0.00  0.00    +0.000 C 
BRANCH  17  19
ATOM     19  C   UNL     1       5.480  -0.056   0.356  0.00  0.00    +0.000 A 
ATOM     20  C   UNL     1       6.224   1.132   0.178  0.00  0.00    +0.000 A 
ATOM     21  C   UNL     1       7.388   1.176  -0.599  0.00  0.00    +0.000 A 
ATOM     22  C   UNL     1       7.848   0.023  -1.222  0.00  0.00    +0.000 A 
ATOM     23 CL   UNL     1       9.298   0.059  -2.142  0.00  0.00    +0.000 Cl
ATOM     24  C   UNL     1       7.138  -1.165  -1.093  0.00  0.00    +0.000 A 
ATOM     25  C   UNL     1       5.971  -1.194  -0.322  0.00  0.00    +0.000 A 
ENDBRANCH  17  19
ENDBRANCH   1  17
TORSDOF 4
