REMARK  Name = 
REMARK  8 active torsions:
REMARK  status: ('A' for Active; 'I' for Inactive)
REMARK    1  A    between atoms: N_1  and  C_2
REMARK    2  A    between atoms: C_2  and  C_3
REMARK    3  A    between atoms: C_3  and  N_4
REMARK    4  A    between atoms: C_3  and  C_17
REMARK    5  A    between atoms: C_5  and  C_7
REMARK    6  A    between atoms: C_20  and  O_21
REMARK    7  A    between atoms: O_21  and  C_22
REMARK    8  A    between atoms: C_22  and  C_23
REMARK                            x       y       z     vdW  Elec       q    Type
REMARK                         _______ _______ _______ _____ _____    ______ ____
ROOT
ATOM      1  C   UNL     1       2.896   0.462   1.384  0.00  0.00    +0.000 C 
ENDROOT
BRANCH   1   2
ATOM      2  C   UNL     1       4.412   0.453   1.473  0.00  0.00    +0.000 A 
ATOM      3  C   UNL     1       5.147   1.595   1.113  0.00  0.00    +0.000 A 
ATOM      4  C   UNL     1       6.540   1.608   1.224  0.00  0.00    +0.000 A 
ATOM      5  C   UNL     1       7.213   0.482   1.700  0.00  0.00    +0.000 A 
ATOM      6  C   UNL     1       6.498  -0.680   1.978  0.00  0.00    +0.000 A 
ATOM      7  C   UNL     1       5.112  -0.695   1.862  0.00  0.00    +0.000 A 
BRANCH   5   8
ATOM      8  O   UNL     1       8.564   0.615   1.865  0.00  0.00    +0.000 OA
BRANCH   8   9
ATOM      9  C   UNL     1       9.129  -0.299   2.813  0.00  0.00    +0.000 C 
BRANCH   9  10
ATOM     10  C   UNL     1      10.466   0.212   3.286  0.00  0.00    +0.000 A 
ATOM     11  C   UNL     1      10.560   1.481   3.854  0.00  0.00    +0.000 A 
ATOM     12  C   UNL     1      11.794   1.914   4.323  0.00  0.00    +0.000 A 
ATOM     13  C   UNL     1      12.893   1.072   4.217  0.00  0.00    +0.000 A 
ATOM     14  C   UNL     1      12.712  -0.178   3.648  0.00  0.00    +0.000 A 
ATOM     15  N   UNL     1      11.529  -0.630   3.186  0.00  0.00    +0.000 NA
ENDBRANCH   9  10
ENDBRANCH   8   9
ENDBRANCH   5   8
ENDBRANCH   1   2
BRANCH   1  16
ATOM     16  N   UNL     1       2.520  -0.039   0.073  0.00  0.00    +0.000 N 
ATOM     17  C   UNL     1       1.403   0.394  -0.586  0.00  0.00    +0.000 C 
ATOM     18  O   UNL     1       0.695   1.299  -0.154  0.00  0.00    +0.000 OA
ATOM     19  H   UNL     1       2.995  -0.879  -0.238  0.00  0.00    +0.000 HD
BRANCH  17  20
ATOM     20  C   UNL     1       1.113  -0.260  -1.865  0.00  0.00    +0.000 A 
ATOM     21  C   UNL     1       0.400   0.421  -2.841  0.00  0.00    +0.000 A 
ATOM     22  S   UNL     1       0.112  -0.502  -4.245  0.00  0.00    +0.000 S 
ATOM     23  C   UNL     1       0.908  -1.854  -3.585  0.00  0.00    +0.000 A 
ATOM     24  N   UNL     1       0.979  -3.025  -4.269  0.00  0.00    +0.000 NA
ATOM     25  C   UNL     1       1.590  -3.976  -3.642  0.00  0.00    +0.000 A 
ATOM     26  N   UNL     1       2.151  -3.853  -2.399  0.00  0.00    +0.000 N 
ATOM     27  C   UNL     1       2.141  -2.676  -1.685  0.00  0.00    +0.000 A 
ATOM     28  O   UNL     1       2.718  -2.578  -0.607  0.00  0.00    +0.000 OA
ATOM     29  C   UNL     1       1.426  -1.591  -2.329  0.00  0.00    +0.000 A 
ATOM     30  H   UNL     1       2.645  -4.626  -1.977  0.00  0.00    +0.000 HD
ENDBRANCH  17  20
ENDBRANCH   1  16
BRANCH   1  31
ATOM     31  C   UNL     1       2.175  -0.350   2.506  0.00  0.00    +0.000 C 
BRANCH  31  32
ATOM     32  N   UNL     1       2.444   0.125   3.869  0.00  0.00    +0.000 NA
ATOM     33  H   UNL     1       1.916  -0.438   4.534  0.00  0.00    +0.000 HD
ATOM     34  H   UNL     1       2.102   1.080   3.965  0.00  0.00    +0.000 HD
ENDBRANCH  31  32
ENDBRANCH   1  31
TORSDOF 8
