REMARK  Name = 
REMARK  7 active torsions:
REMARK  status: ('A' for Active; 'I' for Inactive)
REMARK    1  A    between atoms: C_1  and  C_2
REMARK    2  A    between atoms: C_5  and  C_6
REMARK    3  A    between atoms: C_6  and  C_7
REMARK    4  A    between atoms: C_10  and  C_11
REMARK    5  A    between atoms: C_11  and  N_12
REMARK    6  A    between atoms: C_13  and  C_15
REMARK    7  A    between atoms: N_21  and  C_22
REMARK                            x       y       z     vdW  Elec       q    Type
REMARK                         _______ _______ _______ _____ _____    ______ ____
ROOT
ATOM      1  C   UNL     1      -5.808  -5.098   0.076  0.00  0.00    +0.000 C 
ENDROOT
BRANCH   1   5
ATOM      2  C   UNL     1      -4.012  -1.154   0.008  0.00  0.00    +0.000 A 
ATOM      3  C   UNL     1      -3.825  -2.004   1.106  0.00  0.00    +0.000 A 
ATOM      4  C   UNL     1      -4.425  -3.266   1.140  0.00  0.00    +0.000 A 
ATOM      5  C   UNL     1      -5.211  -3.712   0.069  0.00  0.00    +0.000 A 
ATOM      6  C   UNL     1      -5.451  -2.838  -0.997  0.00  0.00    +0.000 A 
ATOM      7  C   UNL     1      -4.851  -1.575  -1.032  0.00  0.00    +0.000 A 
BRANCH   2   8
ATOM      8  C   UNL     1      -3.283   0.169  -0.076  0.00  0.00    +0.000 C 
BRANCH   8  13
ATOM      9  C   UNL     1       1.978  -0.294  -2.397  0.00  0.00    +0.000 C 
ATOM     10  C   UNL     1       0.592  -0.160  -1.841  0.00  0.00    +0.000 A 
ATOM     11  C   UNL     1      -0.488   0.121  -2.670  0.00  0.00    +0.000 A 
ATOM     12  C   UNL     1      -1.759   0.235  -2.107  0.00  0.00    +0.000 A 
ATOM     13  C   UNL     1      -1.929   0.071  -0.730  0.00  0.00    +0.000 A 
ATOM     14  C   UNL     1      -0.789  -0.214   0.014  0.00  0.00    +0.000 A 
ATOM     15  N   UNL     1       0.456  -0.325  -0.508  0.00  0.00    +0.000 NA
ENDBRANCH   8  13
ENDBRANCH   2   8
ENDBRANCH   1   5
BRANCH   1  16
ATOM     16  N   UNL     1      -7.127  -5.083   0.647  0.00  0.00    +0.000 N 
ATOM     17  C   UNL     1      -7.904  -6.214   0.713  0.00  0.00    +0.000 C 
ATOM     18  O   UNL     1      -7.590  -7.263   0.155  0.00  0.00    +0.000 OA
ATOM     19  H   UNL     1      -7.304  -4.337   1.308  0.00  0.00    +0.000 HD
BRANCH  17  20
ATOM     20  C   UNL     1      -9.173  -6.072   1.440  0.00  0.00    +0.000 A 
ATOM     21  C   UNL     1     -10.237  -6.920   1.161  0.00  0.00    +0.000 A 
ATOM     22  S   UNL     1     -11.648  -6.555   2.049  0.00  0.00    +0.000 S 
ATOM     23  C   UNL     1     -10.870  -5.286   2.875  0.00  0.00    +0.000 A 
ATOM     24  N   UNL     1     -11.527  -4.546   3.805  0.00  0.00    +0.000 NA
ATOM     25  C   UNL     1     -10.809  -3.632   4.371  0.00  0.00    +0.000 A 
ATOM     26  N   UNL     1      -9.479  -3.379   4.103  0.00  0.00    +0.000 N 
ATOM     27  C   UNL     1      -8.762  -2.330   4.797  0.00  0.00    +0.000 C 
ATOM     28  C   UNL     1      -8.777  -4.118   3.157  0.00  0.00    +0.000 A 
ATOM     29  O   UNL     1      -7.591  -3.908   2.905  0.00  0.00    +0.000 OA
ATOM     30  C   UNL     1      -9.555  -5.143   2.482  0.00  0.00    +0.000 A 
ENDBRANCH  17  20
ENDBRANCH   1  16
TORSDOF 5
