REMARK  Name = 
REMARK  11 active torsions:
REMARK  status: ('A' for Active; 'I' for Inactive)
REMARK    1  A    between atoms: C_1  and  O_2
REMARK    2  A    between atoms: O_2  and  C_3
REMARK    3  A    between atoms: C_5  and  C_6
REMARK    4  A    between atoms: C_6  and  N_7
REMARK    5  A    between atoms: N_7  and  CA_8
REMARK    6  A    between atoms: CA_8  and  C_9
REMARK    7  A    between atoms: CA_8  and  C_11
REMARK    8  A    between atoms: C_9  and  O_10
REMARK    9  A    between atoms: C_14  and  C_15
REMARK   10  A    between atoms: C_15  and  N_16
REMARK   11  A    between atoms: C_17  and  C_19
REMARK                            x       y       z     vdW  Elec       q    Type
REMARK                         _______ _______ _______ _____ _____    ______ ____
ROOT
ATOM      1  C   UNL     1       7.351  -6.371   2.374  0.00  0.00    +0.000 A 
ATOM      2  C   UNL     1       8.321  -6.803   1.467  0.00  0.00    +0.000 A 
ATOM      3  C   UNL     1       8.490  -8.170   1.265  0.00  0.00    +0.000 A 
ATOM      4  C   UNL     1       7.726  -9.077   1.998  0.00  0.00    +0.000 A 
ATOM      5  C   UNL     1       6.798  -8.558   2.892  0.00  0.00    +0.000 A 
ATOM      6  N   UNL     1       6.604  -7.236   3.101  0.00  0.00    +0.000 NA
ENDROOT
BRANCH   1   7
ATOM      7  CA  UNL     1       7.072  -4.883   2.581  0.00  0.00    +0.000 C 
BRANCH   7   8
ATOM      8  N   UNL     1       7.101  -4.096   1.320  0.00  0.00    +0.000 NA
ATOM      9  H   UNL     1       6.911  -3.120   1.550  0.00  0.00    +0.000 HD
BRANCH   8  10
ATOM     10  C   UNL     1       6.064  -4.552   0.383  0.00  0.00    +0.000 C 
BRANCH  10  13
ATOM     11  C   UNL     1       7.011  -3.217  -2.937  0.00  0.00    +0.000 C 
ATOM     12  C   UNL     1       7.412  -3.939  -1.740  0.00  0.00    +0.000 C 
ATOM     13  C   UNL     1       6.212  -3.904  -0.946  0.00  0.00    +0.000 C 
ATOM     14  C   UNL     1       5.308  -3.239  -1.689  0.00  0.00    +0.000 C 
ATOM     15  N   UNL     1       5.776  -2.803  -2.921  0.00  0.00    +0.000 NA
BRANCH  11  17
ATOM     16  C   UNL     1       7.517  -2.356  -5.050  0.00  0.00    +0.000 C 
ATOM     17  O   UNL     1       7.940  -3.073  -3.889  0.00  0.00    +0.000 OA
ENDBRANCH  11  17
ENDBRANCH  10  13
ENDBRANCH   8  10
ENDBRANCH   7   8
BRANCH   7  18
ATOM     18  C   UNL     1       8.090  -4.336   3.613  0.00  0.00    +0.000 C 
BRANCH  18  19
ATOM     19  O   UNL     1       7.919  -4.913   4.911  0.00  0.00    +0.000 OA
ATOM     20  H   UNL     1       7.872  -5.883   4.796  0.00  0.00    +0.000 HD
ENDBRANCH  18  19
ENDBRANCH   7  18
ENDBRANCH   1   7
BRANCH   4  21
ATOM     21  C   UNL     1       7.869 -10.554   1.800  0.00  0.00    +0.000 C 
BRANCH  21  22
ATOM     22  N   UNL     1       6.965 -11.038   0.791  0.00  0.00    +0.000 N 
ATOM     23  C   UNL     1       6.834 -12.385   0.556  0.00  0.00    +0.000 C 
ATOM     24  O   UNL     1       7.440 -13.218   1.222  0.00  0.00    +0.000 OA
ATOM     25  H   UNL     1       6.651 -10.379   0.084  0.00  0.00    +0.000 HD
BRANCH  23  26
ATOM     26  C   UNL     1       5.885 -12.780  -0.490  0.00  0.00    +0.000 A 
ATOM     27  C   UNL     1       5.335 -14.054  -0.466  0.00  0.00    +0.000 A 
ATOM     28  S   UNL     1       4.213 -14.339  -1.718  0.00  0.00    +0.000 S 
ATOM     29  C   UNL     1       4.463 -12.787  -2.367  0.00  0.00    +0.000 A 
ATOM     30  N   UNL     1       3.810 -12.387  -3.492  0.00  0.00    +0.000 NA
ATOM     31  C   UNL     1       4.121 -11.200  -3.895  0.00  0.00    +0.000 A 
ATOM     32  N   UNL     1       5.020 -10.373  -3.272  0.00  0.00    +0.000 N 
ATOM     33  C   UNL     1       5.674 -10.720  -2.114  0.00  0.00    +0.000 A 
ATOM     34  O   UNL     1       6.434  -9.938  -1.550  0.00  0.00    +0.000 OA
ATOM     35  C   UNL     1       5.375 -12.054  -1.628  0.00  0.00    +0.000 A 
ATOM     36  H   UNL     1       5.209  -9.451  -3.636  0.00  0.00    +0.000 HD
ENDBRANCH  23  26
ENDBRANCH  21  22
ENDBRANCH   4  21
TORSDOF 10
