REMARK  Name = 
REMARK  9 active torsions:
REMARK  status: ('A' for Active; 'I' for Inactive)
REMARK    1  A    between atoms: C_1  and  O_2
REMARK    2  A    between atoms: O_2  and  C_3
REMARK    3  A    between atoms: C_10  and  C_11
REMARK    4  A    between atoms: N_13  and  C_14
REMARK    5  A    between atoms: C_14  and  C_15
REMARK    6  A    between atoms: C_18  and  C_19
REMARK    7  A    between atoms: C_19  and  O_20
REMARK    8  A    between atoms: O_20  and  C_21
REMARK    9  A    between atoms: C_21  and  C_22
REMARK                            x       y       z     vdW  Elec       q    Type
REMARK                         _______ _______ _______ _____ _____    ______ ____
ROOT
ATOM      1  C   UNL     1       3.247  -2.798   1.875  0.00  0.00    +0.000 C 
ENDROOT
BRANCH   1   2
ATOM      2  C   UNL     1       2.252  -2.118   2.784  0.00  0.00    +0.000 A 
ATOM      3  C   UNL     1       1.255  -2.859   3.432  0.00  0.00    +0.000 A 
ATOM      4  C   UNL     1       0.312  -2.225   4.250  0.00  0.00    +0.000 A 
ATOM      5  C   UNL     1       0.337  -0.834   4.427  0.00  0.00    +0.000 A 
ATOM      6  C   UNL     1       1.328  -0.093   3.770  0.00  0.00    +0.000 A 
ATOM      7  C   UNL     1       2.272  -0.727   2.955  0.00  0.00    +0.000 A 
BRANCH   5   8
ATOM      8  C   UNL     1      -0.693  -0.152   5.294  0.00  0.00    +0.000 C 
BRANCH   8   9
ATOM      9  O   UNL     1      -0.605  -0.670   6.617  0.00  0.00    +0.000 OA
BRANCH   9  10
ATOM     10  C   UNL     1      -1.518  -0.027   7.506  0.00  0.00    +0.000 C 
BRANCH  10  11
ATOM     11  C   UNL     1      -1.366  -0.582   8.902  0.00  0.00    +0.000 A 
ATOM     12  C   UNL     1      -0.122  -1.031   9.372  0.00  0.00    +0.000 A 
ATOM     13  C   UNL     1       0.020  -1.508  10.676  0.00  0.00    +0.000 A 
ATOM     14  C   UNL     1      -1.077  -1.530  11.533  0.00  0.00    +0.000 A 
ATOM     15  C   UNL     1      -2.316  -1.074  11.087  0.00  0.00    +0.000 A 
ATOM     16  C   UNL     1      -2.460  -0.598   9.781  0.00  0.00    +0.000 A 
ENDBRANCH  10  11
ENDBRANCH   9  10
ENDBRANCH   8   9
ENDBRANCH   5   8
ENDBRANCH   1   2
BRANCH   1  19
ATOM     17  C   UNL     1       3.444  -3.450  -0.495  0.00  0.00    +0.000 C 
ATOM     18  O   UNL     1       4.542  -3.971  -0.301  0.00  0.00    +0.000 OA
ATOM     19  N   UNL     1       2.748  -2.860   0.523  0.00  0.00    +0.000 N 
ATOM     20  H   UNL     1       1.857  -2.424   0.341  0.00  0.00    +0.000 HD
BRANCH  17  28
ATOM     21  C   UNL     1       0.436  -2.292  -1.707  0.00  0.00    +0.000 A 
ATOM     22  N   UNL     1      -0.622  -1.891  -2.439  0.00  0.00    +0.000 NA
ATOM     23  C   UNL     1      -0.594  -2.114  -3.756  0.00  0.00    +0.000 A 
ATOM     24  N   UNL     1       0.375  -2.708  -4.447  0.00  0.00    +0.000 NA
ATOM     25  C   UNL     1       1.413  -3.083  -3.680  0.00  0.00    +0.000 A 
ATOM     26  S   UNL     1       2.741  -3.865  -4.394  0.00  0.00    +0.000 S 
ATOM     27  C   UNL     1       3.541  -3.976  -2.899  0.00  0.00    +0.000 A 
ATOM     28  C   UNL     1       2.834  -3.425  -1.837  0.00  0.00    +0.000 A 
ATOM     29  C   UNL     1       1.549  -2.907  -2.307  0.00  0.00    +0.000 A 
BRANCH  21  31
ATOM     30  C   UNL     1      -0.902  -1.936   0.179  0.00  0.00    +0.000 C 
ATOM     31  O   UNL     1       0.417  -2.044  -0.351  0.00  0.00    +0.000 OA
ENDBRANCH  21  31
ENDBRANCH  17  28
ENDBRANCH   1  19
TORSDOF 8
