REMARK  Name = 
REMARK  7 active torsions:
REMARK  status: ('A' for Active; 'I' for Inactive)
REMARK    1  A    between atoms: N_1  and  C_2
REMARK    2  A    between atoms: C_2  and  C_3
REMARK    3  A    between atoms: C_6  and  N_7
REMARK    4  A    between atoms: N_7  and  C_8
REMARK    5  A    between atoms: C_8  and  C_9
REMARK    6  A    between atoms: C_13  and  C_14
REMARK    7  A    between atoms: C_14  and  O_15
REMARK                            x       y       z     vdW  Elec       q    Type
REMARK                         _______ _______ _______ _____ _____    ______ ____
ROOT
ATOM      1  N   UNL     1       4.462  -2.715  -4.467  0.00  0.00    +0.000 N 
ATOM      2  H   UNL     1       3.907  -3.561  -4.588  0.00  0.00    +0.000 HD
ENDROOT
BRANCH   1   6
ATOM      3  C   UNL     1       2.955  -0.463  -1.213  0.00  0.00    +0.000 A 
ATOM      4  C   UNL     1       2.633  -0.089  -2.525  0.00  0.00    +0.000 A 
ATOM      5  C   UNL     1       3.109  -0.825  -3.618  0.00  0.00    +0.000 A 
ATOM      6  C   UNL     1       3.936  -1.934  -3.428  0.00  0.00    +0.000 A 
ATOM      7  C   UNL     1       4.195  -2.346  -2.115  0.00  0.00    +0.000 A 
ATOM      8  C   UNL     1       3.728  -1.611  -1.020  0.00  0.00    +0.000 A 
BRANCH   3   9
ATOM      9  C   UNL     1       2.500   0.366  -0.040  0.00  0.00    +0.000 C 
BRANCH   9  10
ATOM     10  N   UNL     1       1.047   0.443   0.039  0.00  0.00    +0.000 NA
ATOM     11  H   UNL     1       0.788   0.920   0.901  0.00  0.00    +0.000 HD
ATOM     12  H   UNL     1       0.675  -0.503   0.112  0.00  0.00    +0.000 HD
ENDBRANCH   9  10
ENDBRANCH   3   9
ENDBRANCH   1   6
BRANCH   1  13
ATOM     13  C   UNL     1       4.718  -2.059  -5.744  0.00  0.00    +0.000 C 
BRANCH  13  14
ATOM     14  C   UNL     1       5.823  -2.786  -6.480  0.00  0.00    +0.000 A 
ATOM     15  C   UNL     1       5.618  -3.290  -7.769  0.00  0.00    +0.000 A 
ATOM     16  C   UNL     1       6.675  -3.866  -8.475  0.00  0.00    +0.000 A 
ATOM     17  C   UNL     1       7.949  -3.933  -7.908  0.00  0.00    +0.000 A 
ATOM     18  C   UNL     1       8.178  -3.453  -6.612  0.00  0.00    +0.000 A 
ATOM     19  C   UNL     1       7.104  -2.884  -5.909  0.00  0.00    +0.000 A 
BRANCH  18  20
ATOM     20  C   UNL     1       9.560  -3.423  -6.009  0.00  0.00    +0.000 C 
BRANCH  20  21
ATOM     21  O   UNL     1      10.381  -4.482  -6.485  0.00  0.00    +0.000 OA
ATOM     22  H   UNL     1       9.915  -5.307  -6.268  0.00  0.00    +0.000 HD
ENDBRANCH  20  21
ENDBRANCH  18  20
ENDBRANCH  13  14
ENDBRANCH   1  13
TORSDOF 7
