REMARK  Name = 
REMARK  6 active torsions:
REMARK  status: ('A' for Active; 'I' for Inactive)
REMARK    1  A    between atoms: C_1  and  C_2
REMARK    2  A    between atoms: C_4  and  C_5
REMARK    3  A    between atoms: C_9  and  C_10
REMARK    4  A    between atoms: C_10  and  N_11
REMARK    5  A    between atoms: C_14  and  C_15
REMARK    6  A    between atoms: C_17  and  C_18
REMARK                            x       y       z     vdW  Elec       q    Type
REMARK                         _______ _______ _______ _____ _____    ______ ____
ROOT
ATOM      1  C   UNL     1      -5.042  -3.928  -1.818  0.00  0.00    +0.000 C 
ENDROOT
BRANCH   1   2
ATOM      2  N   UNL     1      -4.668  -4.720  -2.967  0.00  0.00    +0.000 N 
ATOM      3  C   UNL     1      -5.666  -4.881  -3.919  0.00  0.00    +0.000 A 
ATOM      4  N   UNL     1      -5.630  -6.040  -4.592  0.00  0.00    +0.000 NA
ATOM      5  C   UNL     1      -6.541  -6.249  -5.567  0.00  0.00    +0.000 A 
ATOM      6  C   UNL     1      -6.463  -7.545  -6.317  0.00  0.00    +0.000 C 
ATOM      7  C   UNL     1      -7.504  -5.322  -5.878  0.00  0.00    +0.000 A 
ATOM      8  C   UNL     1      -7.472  -4.174  -5.120  0.00  0.00    +0.000 A 
ATOM      9  N   UNL     1      -6.574  -3.927  -4.134  0.00  0.00    +0.000 NA
ATOM     10  H   UNL     1      -4.332  -5.653  -2.757  0.00  0.00    +0.000 HD
BRANCH   8  11
ATOM     11  C   UNL     1      -8.473  -3.096  -5.391  0.00  0.00    +0.000 C 
ATOM     12  N   UNL     1      -8.381  -1.994  -4.585  0.00  0.00    +0.000 N 
ATOM     13  O   UNL     1      -9.314  -3.182  -6.275  0.00  0.00    +0.000 OA
ATOM     14  H   UNL     1      -7.631  -1.931  -3.906  0.00  0.00    +0.000 HD
ATOM     15  H   UNL     1      -8.980  -1.200  -4.760  0.00  0.00    +0.000 HD
ENDBRANCH   8  11
ENDBRANCH   1   2
BRANCH   1  20
ATOM     16  C   UNL     1      -2.019  -2.396  -0.011  0.00  0.00    +0.000 A 
ATOM     17  C   UNL     1      -1.867  -3.320   1.035  0.00  0.00    +0.000 A 
ATOM     18  C   UNL     1      -2.660  -4.470   1.112  0.00  0.00    +0.000 A 
ATOM     19  C   UNL     1      -3.654  -4.696   0.165  0.00  0.00    +0.000 A 
ATOM     20  C   UNL     1      -3.876  -3.773  -0.863  0.00  0.00    +0.000 A 
ATOM     21  C   UNL     1      -3.025  -2.658  -0.965  0.00  0.00    +0.000 A 
BRANCH  16  25
ATOM     22  C   UNL     1      -1.307   2.405  -1.330  0.00  0.00    +0.000 C 
ATOM     23  C   UNL     1      -0.819   1.128  -0.718  0.00  0.00    +0.000 A 
ATOM     24  C   UNL     1      -1.650   0.012  -0.647  0.00  0.00    +0.000 A 
ATOM     25  C   UNL     1      -1.173  -1.185  -0.093  0.00  0.00    +0.000 A 
ATOM     26  C   UNL     1       0.145  -1.180   0.386  0.00  0.00    +0.000 A 
ATOM     27  C   UNL     1       0.901  -0.025   0.287  0.00  0.00    +0.000 A 
ATOM     28  N   UNL     1       0.450   1.122  -0.255  0.00  0.00    +0.000 NA
ENDBRANCH  16  25
ENDBRANCH   1  20
TORSDOF 4
