REMARK  Name = 
REMARK  8 active torsions:
REMARK  status: ('A' for Active; 'I' for Inactive)
REMARK    1  A    between atoms: C_2  and  C_4
REMARK    2  A    between atoms: N_8  and  C_9
REMARK    3  A    between atoms: C_9  and  C_10
REMARK    4  A    between atoms: C_10  and  C_11
REMARK    5  A    between atoms: C_15  and  O_16
REMARK    6  A    between atoms: O_16  and  C_17
REMARK    7  A    between atoms: N_19  and  C_20
REMARK    8  A    between atoms: C_20  and  C_21
REMARK                            x       y       z     vdW  Elec       q    Type
REMARK                         _______ _______ _______ _____ _____    ______ ____
ROOT
ATOM      1  C   UNL     1       6.141  -6.966  -0.271  0.00  0.00    +0.000 C 
ENDROOT
BRANCH   1   2
ATOM      2  C   UNL     1       5.878  -8.249  -1.035  0.00  0.00    +0.000 A 
ATOM      3  C   UNL     1       6.588  -9.402  -0.673  0.00  0.00    +0.000 A 
ATOM      4  C   UNL     1       6.359 -10.617  -1.325  0.00  0.00    +0.000 A 
ATOM      5  C   UNL     1       5.421 -10.702  -2.357  0.00  0.00    +0.000 A 
ATOM      6  C   UNL     1       4.720  -9.564  -2.739  0.00  0.00    +0.000 A 
ATOM      7  C   UNL     1       4.944  -8.352  -2.078  0.00  0.00    +0.000 A 
BRANCH   6   8
ATOM      8  O   UNL     1       3.755  -9.517  -3.713  0.00  0.00    +0.000 OA
BRANCH   8   9
ATOM      9  C   UNL     1       3.773 -10.498  -4.775  0.00  0.00    +0.000 C 
ATOM     10  C   UNL     1       4.926 -10.441  -5.798  0.00  0.00    +0.000 C 
ATOM     11  N   UNL     1       3.964 -10.390  -6.918  0.00  0.00    +0.000 NA
ATOM     12  C   UNL     1       2.854 -10.161  -5.972  0.00  0.00    +0.000 C 
BRANCH  11  13
ATOM     13  C   UNL     1       3.841 -11.707  -7.563  0.00  0.00    +0.000 C 
BRANCH  13  14
ATOM     14  C   UNL     1       2.892 -11.666  -8.760  0.00  0.00    +0.000 C 
ATOM     15  F   UNL     1       2.829 -12.912  -9.308  0.00  0.00    +0.000 F 
ENDBRANCH  13  14
ENDBRANCH  11  13
ENDBRANCH   8   9
ENDBRANCH   6   8
ENDBRANCH   1   2
BRANCH   1  16
ATOM     16  C   UNL     1       5.310  -5.755  -0.709  0.00  0.00    +0.000 C 
BRANCH  16  21
ATOM     17  C   UNL     1       3.753  -0.947  -0.597  0.00  0.00    +0.000 A 
ATOM     18  C   UNL     1       3.050  -2.100  -0.921  0.00  0.00    +0.000 A 
ATOM     19  C   UNL     1       3.649  -3.339  -0.702  0.00  0.00    +0.000 A 
ATOM     20  C   UNL     1       4.938  -3.407  -0.179  0.00  0.00    +0.000 A 
ATOM     21  N   UNL     1       5.556  -4.605   0.148  0.00  0.00    +0.000 N 
ATOM     22  N   UNL     1       5.643  -2.293   0.101  0.00  0.00    +0.000 NA
ATOM     23  C   UNL     1       5.046  -1.091  -0.118  0.00  0.00    +0.000 A 
ATOM     24  H   UNL     1       6.529  -4.397   0.361  0.00  0.00    +0.000 HD
BRANCH  17  26
ATOM     25  N   UNL     1       1.814   0.508  -0.651  0.00  0.00    +0.000 N 
ATOM     26  C   UNL     1       3.173   0.400  -0.745  0.00  0.00    +0.000 C 
ATOM     27  O   UNL     1       3.879   1.387  -0.906  0.00  0.00    +0.000 OA
ATOM     28  H   UNL     1       1.439   1.450  -0.645  0.00  0.00    +0.000 HD
ATOM     29  H   UNL     1       1.241  -0.222  -0.254  0.00  0.00    +0.000 HD
ENDBRANCH  17  26
ENDBRANCH  16  21
ENDBRANCH   1  16
TORSDOF 8
