REMARK  Name = 
REMARK  6 active torsions:
REMARK  status: ('A' for Active; 'I' for Inactive)
REMARK    1  A    between atoms: C_2  and  C_4
REMARK    2  A    between atoms: C_7  and  N_8
REMARK    3  A    between atoms: N_8  and  C_9
REMARK    4  A    between atoms: C_9  and  C_10
REMARK    5  A    between atoms: C_10  and  C_11
REMARK    6  A    between atoms: C_15  and  C_16
REMARK                            x       y       z     vdW  Elec       q    Type
REMARK                         _______ _______ _______ _____ _____    ______ ____
ROOT
ATOM      1  C   UNL     1       5.336  -4.731   3.711  0.00  0.00    +0.000 C 
ENDROOT
BRANCH   1   2
ATOM      2  N   UNL     1       5.705  -3.371   3.331  0.00  0.00    +0.000 N 
ATOM      3  H   UNL     1       6.116  -2.810   4.073  0.00  0.00    +0.000 HD
BRANCH   2   7
ATOM      4  C   UNL     1       3.401  -1.108   0.614  0.00  0.00    +0.000 A 
ATOM      5  C   UNL     1       2.950  -2.368   1.009  0.00  0.00    +0.000 A 
ATOM      6  C   UNL     1       3.691  -3.120   1.929  0.00  0.00    +0.000 A 
ATOM      7  C   UNL     1       4.873  -2.625   2.494  0.00  0.00    +0.000 A 
ATOM      8  C   UNL     1       5.309  -1.356   2.087  0.00  0.00    +0.000 A 
ATOM      9  C   UNL     1       4.587  -0.605   1.151  0.00  0.00    +0.000 A 
BRANCH   4  11
ATOM     10  N   UNL     1       1.344  -0.513  -0.551  0.00  0.00    +0.000 N 
ATOM     11  C   UNL     1       2.689  -0.311  -0.418  0.00  0.00    +0.000 C 
ATOM     12  O   UNL     1       3.274   0.512  -1.112  0.00  0.00    +0.000 OA
ATOM     13  H   UNL     1       0.862   0.097  -1.200  0.00  0.00    +0.000 HD
ATOM     14  H   UNL     1       0.793  -0.986   0.149  0.00  0.00    +0.000 HD
ENDBRANCH   4  11
ENDBRANCH   2   7
ENDBRANCH   1   2
BRANCH   1  15
ATOM     15  C   UNL     1       6.403  -5.349   4.619  0.00  0.00    +0.000 C 
BRANCH  15  16
ATOM     16  C   UNL     1       6.037  -6.768   4.982  0.00  0.00    +0.000 A 
ATOM     17  C   UNL     1       5.277  -7.036   6.123  0.00  0.00    +0.000 A 
ATOM     18  C   UNL     1       4.899  -8.342   6.417  0.00  0.00    +0.000 A 
ATOM     19  C   UNL     1       5.262  -9.387   5.563  0.00  0.00    +0.000 A 
ATOM     20  C   UNL     1       5.999  -9.154   4.387  0.00  0.00    +0.000 A 
ATOM     21  C   UNL     1       6.391  -7.827   4.128  0.00  0.00    +0.000 A 
BRANCH  20  22
ATOM     22  C   UNL     1       6.313 -10.248   3.445  0.00  0.00    +0.000 A 
ATOM     23  C   UNL     1       7.498 -10.282   2.694  0.00  0.00    +0.000 A 
ATOM     24  C   UNL     1       7.740 -11.321   1.795  0.00  0.00    +0.000 A 
ATOM     25  C   UNL     1       6.793 -12.316   1.669  0.00  0.00    +0.000 A 
ATOM     26  N   UNL     1       5.635 -12.337   2.359  0.00  0.00    +0.000 NA
ATOM     27  C   UNL     1       5.427 -11.306   3.218  0.00  0.00    +0.000 A 
ENDBRANCH  20  22
ENDBRANCH  15  16
ENDBRANCH   1  15
TORSDOF 6
