REMARK  Name = 
REMARK  8 active torsions:
REMARK  status: ('A' for Active; 'I' for Inactive)
REMARK    1  A    between atoms: C_1  and  C_2
REMARK    2  A    between atoms: C_2  and  N_3
REMARK    3  A    between atoms: N_3  and  C_4
REMARK    4  A    between atoms: C_4  and  C_5
REMARK    5  A    between atoms: C_8  and  C_9
REMARK    6  A    between atoms: C_9  and  N_10
REMARK    7  A    between atoms: C_11  and  C_13
REMARK    8  A    between atoms: C_20  and  C_22
REMARK                            x       y       z     vdW  Elec       q    Type
REMARK                         _______ _______ _______ _____ _____    ______ ____
ROOT
ATOM      1  C   UNL     1       1.897   1.737   1.470  0.00  0.00    +0.000 C 
ENDROOT
BRANCH   1   2
ATOM      2  C   UNL     1       0.437   1.394   1.563  0.00  0.00    +0.000 A 
ATOM      3  C   UNL     1      -0.461   1.721   0.547  0.00  0.00    +0.000 A 
ATOM      4  C   UNL     1      -1.832   1.598   0.774  0.00  0.00    +0.000 A 
ATOM      5  C   UNL     1      -2.277   1.128   2.008  0.00  0.00    +0.000 A 
ATOM      6  N   UNL     1      -1.420   0.737   2.985  0.00  0.00    +0.000 NA
ATOM      7  C   UNL     1      -0.097   0.874   2.740  0.00  0.00    +0.000 A 
BRANCH   5   8
ATOM      8  C   UNL     1      -3.753   1.109   2.336  0.00  0.00    +0.000 C 
BRANCH   8   9
ATOM      9  N   UNL     1      -4.201   2.336   2.961  0.00  0.00    +0.000 N 
ATOM     10  C   UNL     1      -4.680   3.403   2.244  0.00  0.00    +0.000 C 
ATOM     11  O   UNL     1      -4.777   3.411   1.021  0.00  0.00    +0.000 OA
ATOM     12  H   UNL     1      -4.061   2.471   3.957  0.00  0.00    +0.000 HD
BRANCH  10  13
ATOM     13  C   UNL     1      -5.086   4.539   3.082  0.00  0.00    +0.000 A 
ATOM     14  C   UNL     1      -5.633   5.708   2.579  0.00  0.00    +0.000 A 
ATOM     15  S   UNL     1      -6.008   6.791   3.852  0.00  0.00    +0.000 S 
ATOM     16  C   UNL     1      -5.419   5.641   4.978  0.00  0.00    +0.000 A 
ATOM     17  N   UNL     1      -4.963   4.512   4.478  0.00  0.00    +0.000 NA
ENDBRANCH  10  13
ENDBRANCH   8   9
ENDBRANCH   5   8
ENDBRANCH   1   2
BRANCH   1  18
ATOM     18  N   UNL     1       2.811   0.851   0.750  0.00  0.00    +0.000 N 
ATOM     19  C   UNL     1       4.096   1.251   0.328  0.00  0.00    +0.000 C 
ATOM     20  O   UNL     1       4.841   0.478  -0.271  0.00  0.00    +0.000 OA
BRANCH  19  21
ATOM     21  C   UNL     1       4.584   2.601   0.646  0.00  0.00    +0.000 A 
ATOM     22  C   UNL     1       4.578   3.164   1.912  0.00  0.00    +0.000 A 
ATOM     23  S   UNL     1       5.331   4.697   1.978  0.00  0.00    +0.000 S 
ATOM     24  C   UNL     1       5.796   4.597   0.342  0.00  0.00    +0.000 A 
ATOM     25  N   UNL     1       6.578   5.552  -0.228  0.00  0.00    +0.000 NA
ATOM     26  C   UNL     1       6.904   5.307  -1.451  0.00  0.00    +0.000 A 
ATOM     27  N   UNL     1       6.487   4.212  -2.170  0.00  0.00    +0.000 N 
ATOM     28  C   UNL     1       5.593   3.287  -1.674  0.00  0.00    +0.000 A 
ATOM     29  O   UNL     1       5.060   2.461  -2.406  0.00  0.00    +0.000 OA
ATOM     30  C   UNL     1       5.299   3.461  -0.264  0.00  0.00    +0.000 A 
ATOM     31  H   UNL     1       6.723   4.114  -3.146  0.00  0.00    +0.000 HD
ENDBRANCH  19  21
BRANCH  18  33
ATOM     32  C   UNL     1       2.038  -0.808  -0.919  0.00  0.00    +0.000 C 
ATOM     33  C   UNL     1       2.458  -0.552   0.522  0.00  0.00    +0.000 C 
ENDBRANCH  18  33
ENDBRANCH   1  18
TORSDOF 7
