REMARK  Name = 
REMARK  7 active torsions:
REMARK  status: ('A' for Active; 'I' for Inactive)
REMARK    1  A    between atoms: N_1  and  C_2
REMARK    2  A    between atoms: C_2  and  N_3
REMARK    3  A    between atoms: C_2  and  C_16
REMARK    4  A    between atoms: C_4  and  C_6
REMARK    5  A    between atoms: C_19  and  C_20
REMARK    6  A    between atoms: C_20  and  N_21
REMARK    7  A    between atoms: C_22  and  C_24
REMARK                            x       y       z     vdW  Elec       q    Type
REMARK                         _______ _______ _______ _____ _____    ______ ____
ROOT
ATOM      1  C   UNL     1       2.511   0.082  -0.098  0.00  0.00    +0.000 C 
ENDROOT
BRANCH   1   2
ATOM      2  C   UNL     1       2.932  -0.022   1.360  0.00  0.00    +0.000 A 
ATOM      3  C   UNL     1       3.176   1.131   2.119  0.00  0.00    +0.000 A 
ATOM      4  C   UNL     1       3.547   1.037   3.467  0.00  0.00    +0.000 A 
ATOM      5  C   UNL     1       3.693  -0.211   4.088  0.00  0.00    +0.000 A 
ATOM      6  C   UNL     1       3.436  -1.366   3.340  0.00  0.00    +0.000 A 
ATOM      7  C   UNL     1       3.070  -1.272   1.993  0.00  0.00    +0.000 A 
BRANCH   5   8
ATOM      8  C   UNL     1       4.147  -0.312   5.520  0.00  0.00    +0.000 C 
BRANCH   8   9
ATOM      9  N   UNL     1       3.054  -0.342   6.460  0.00  0.00    +0.000 N 
ATOM     10  C   UNL     1       3.296  -0.442   7.812  0.00  0.00    +0.000 C 
ATOM     11  O   UNL     1       4.423  -0.584   8.282  0.00  0.00    +0.000 OA
ATOM     12  H   UNL     1       2.114  -0.068   6.187  0.00  0.00    +0.000 HD
BRANCH  10  13
ATOM     13  C   UNL     1       2.048  -0.454   8.701  0.00  0.00    +0.000 C 
ATOM     14  C   UNL     1       1.546  -1.863   8.949  0.00  0.00    +0.000 C 
ATOM     15  C   UNL     1       0.125  -1.629   9.422  0.00  0.00    +0.000 C 
ATOM     16  C   UNL     1      -0.309  -0.351   8.716  0.00  0.00    +0.000 C 
ATOM     17  N   UNL     1       0.881   0.192   8.046  0.00  0.00    +0.000 NA
ATOM     18  H   UNL     1       0.932   1.201   8.188  0.00  0.00    +0.000 HD
ENDBRANCH  10  13
ENDBRANCH   8   9
ENDBRANCH   5   8
ENDBRANCH   1   2
BRANCH   1  19
ATOM     19  N   UNL     1       1.316  -0.678  -0.316  0.00  0.00    +0.000 N 
ATOM     20  C   UNL     1       0.649  -0.751  -1.512  0.00  0.00    +0.000 C 
ATOM     21  O   UNL     1       1.089  -0.263  -2.548  0.00  0.00    +0.000 OA
ATOM     22  H   UNL     1       0.744  -0.765   0.517  0.00  0.00    +0.000 HD
BRANCH  20  23
ATOM     23  C   UNL     1      -0.568  -1.571  -1.502  0.00  0.00    +0.000 A 
ATOM     24  C   UNL     1      -0.973  -2.232  -2.654  0.00  0.00    +0.000 A 
ATOM     25  S   UNL     1      -2.361  -3.199  -2.432  0.00  0.00    +0.000 S 
ATOM     26  C   UNL     1      -2.496  -2.730  -0.801  0.00  0.00    +0.000 A 
ATOM     27  N   UNL     1      -3.501  -3.200  -0.013  0.00  0.00    +0.000 NA
ATOM     28  C   UNL     1      -3.486  -2.748   1.198  0.00  0.00    +0.000 A 
ATOM     29  N   UNL     1      -2.558  -1.869   1.693  0.00  0.00    +0.000 N 
ATOM     30  C   UNL     1      -1.521  -1.380   0.939  0.00  0.00    +0.000 A 
ATOM     31  O   UNL     1      -0.686  -0.615   1.412  0.00  0.00    +0.000 OA
ATOM     32  C   UNL     1      -1.489  -1.860  -0.430  0.00  0.00    +0.000 A 
ATOM     33  H   UNL     1      -2.599  -1.559   2.652  0.00  0.00    +0.000 HD
ENDBRANCH  20  23
ENDBRANCH   1  19
BRANCH   1  34
ATOM     34  N   UNL     1       3.522  -0.478  -0.968  0.00  0.00    +0.000 NA
ATOM     35  H   UNL     1       3.161  -0.383  -1.921  0.00  0.00    +0.000 HD
ATOM     36  H   UNL     1       3.552  -1.479  -0.801  0.00  0.00    +0.000 HD
ENDBRANCH   1  34
TORSDOF 7
