REMARK  Name = 
REMARK  8 active torsions:
REMARK  status: ('A' for Active; 'I' for Inactive)
REMARK    1  A    between atoms: C_2  and  C_21
REMARK    2  A    between atoms: N_3  and  C_4
REMARK    3  A    between atoms: C_4  and  C_5
REMARK    4  A    between atoms: C_8  and  C_9
REMARK    5  A    between atoms: C_9  and  C_10
REMARK    6  A    between atoms: C_10  and  N_11
REMARK    7  A    between atoms: N_11  and  C_12
REMARK    8  A    between atoms: C_12  and  C_13
REMARK                            x       y       z     vdW  Elec       q    Type
REMARK                         _______ _______ _______ _____ _____    ______ ____
ROOT
ATOM      1  C   UNL     1       3.283   3.213  -1.369  0.00  0.00    +0.000 A 
ATOM      2  C   UNL     1       2.861   4.546  -1.353  0.00  0.00    +0.000 A 
ATOM      3  C   UNL     1       3.712   5.568  -1.776  0.00  0.00    +0.000 A 
ATOM      4  C   UNL     1       5.009   5.279  -2.222  0.00  0.00    +0.000 A 
ATOM      5  C   UNL     1       5.419   3.941  -2.273  0.00  0.00    +0.000 A 
ATOM      6  C   UNL     1       4.562   2.916  -1.859  0.00  0.00    +0.000 A 
ENDROOT
BRANCH   1   7
ATOM      7  C   UNL     1       2.354   2.123  -0.900  0.00  0.00    +0.000 C 
BRANCH   7  10
ATOM      8  O   UNL     1      -0.240   2.964  -1.647  0.00  0.00    +0.000 OA
ATOM      9  C   UNL     1       0.332   2.109  -2.318  0.00  0.00    +0.000 C 
ATOM     10  N   UNL     1       1.562   1.604  -1.984  0.00  0.00    +0.000 N 
ATOM     11  H   UNL     1       2.065   1.049  -2.665  0.00  0.00    +0.000 HD
BRANCH   9  12
ATOM     12  C   UNL     1      -0.300   1.516  -3.504  0.00  0.00    +0.000 A 
ATOM     13  C   UNL     1      -1.681   1.548  -3.646  0.00  0.00    +0.000 A 
ATOM     14  S   UNL     1      -2.240   0.776  -5.061  0.00  0.00    +0.000 S 
ATOM     15  C   UNL     1      -0.652   0.418  -5.560  0.00  0.00    +0.000 A 
ATOM     16  N   UNL     1      -0.415  -0.233  -6.731  0.00  0.00    +0.000 NA
ATOM     17  C   UNL     1       0.836  -0.397  -7.006  0.00  0.00    +0.000 A 
ATOM     18  N   UNL     1       1.871   0.023  -6.213  0.00  0.00    +0.000 N 
ATOM     19  C   UNL     1       1.679   0.612  -4.988  0.00  0.00    +0.000 A 
ATOM     20  O   UNL     1       2.626   0.847  -4.246  0.00  0.00    +0.000 OA
ATOM     21  C   UNL     1       0.290   0.861  -4.649  0.00  0.00    +0.000 A 
ATOM     22  H   UNL     1       2.830  -0.161  -6.471  0.00  0.00    +0.000 HD
ENDBRANCH   9  12
ENDBRANCH   7  10
ENDBRANCH   1   7
BRANCH   4  23
ATOM     23  C   UNL     1       5.935   6.386  -2.673  0.00  0.00    +0.000 C 
BRANCH  23  24
ATOM     24  C   UNL     1       6.242   7.401  -1.560  0.00  0.00    +0.000 C 
BRANCH  24  25
ATOM     25  N   UNL     1       7.158   8.443  -2.044  0.00  0.00    +0.000 NA
ATOM     26  H   UNL     1       6.713   8.946  -2.815  0.00  0.00    +0.000 HD
BRANCH  25  27
ATOM     27  C   UNL     1       7.437   9.415  -0.975  0.00  0.00    +0.000 C 
BRANCH  27  28
ATOM     28  C   UNL     1       8.340  10.538  -1.429  0.00  0.00    +0.000 A 
ATOM     29  C   UNL     1       9.642  10.281  -1.848  0.00  0.00    +0.000 A 
ATOM     30  N   UNL     1      10.501  11.260  -2.235  0.00  0.00    +0.000 NA
ATOM     31  C   UNL     1       9.999  12.512  -2.192  0.00  0.00    +0.000 A 
ATOM     32  C   UNL     1       8.705  12.780  -1.783  0.00  0.00    +0.000 A 
ATOM     33  N   UNL     1       7.848  11.806  -1.397  0.00  0.00    +0.000 NA
ENDBRANCH  27  28
ENDBRANCH  25  27
ENDBRANCH  24  25
ENDBRANCH  23  24
ENDBRANCH   4  23
TORSDOF 8
