REMARK  Name = 
REMARK  8 active torsions:
REMARK  status: ('A' for Active; 'I' for Inactive)
REMARK    1  A    between atoms: C_1  and  O_2
REMARK    2  A    between atoms: O_2  and  C_3
REMARK    3  A    between atoms: C_3  and  C_5
REMARK    4  A    between atoms: C_8  and  O_9
REMARK    5  A    between atoms: O_9  and  C_10
REMARK    6  A    between atoms: C_10  and  C_11
REMARK    7  A    between atoms: C_14  and  C_15
REMARK    8  A    between atoms: C_15  and  N_16
REMARK                            x       y       z     vdW  Elec       q    Type
REMARK                         _______ _______ _______ _____ _____    ______ ____
ROOT
ATOM      1  O   UNL     1       8.705  -0.244  -1.115  0.00  0.00    +0.000 OA
ENDROOT
BRANCH   1   5
ATOM      2  C   UNL     1       4.870   0.745  -0.012  0.00  0.00    +0.000 A 
ATOM      3  C   UNL     1       5.471   1.417  -1.073  0.00  0.00    +0.000 A 
ATOM      4  C   UNL     1       6.762   1.039  -1.451  0.00  0.00    +0.000 A 
ATOM      5  C   UNL     1       7.413   0.022  -0.757  0.00  0.00    +0.000 A 
ATOM      6  C   UNL     1       6.707  -0.626   0.249  0.00  0.00    +0.000 A 
ATOM      7  N   UNL     1       5.464  -0.286   0.643  0.00  0.00    +0.000 NA
BRANCH   2   8
ATOM      8  C   UNL     1       3.522   1.171   0.469  0.00  0.00    +0.000 C 
ATOM      9  O   UNL     1       2.862   2.070  -0.031  0.00  0.00    +0.000 OA
BRANCH   8  11
ATOM     10  C   UNL     1       1.906   0.739   2.121  0.00  0.00    +0.000 C 
ATOM     11  O   UNL     1       3.169   0.422   1.545  0.00  0.00    +0.000 OA
ENDBRANCH   8  11
ENDBRANCH   2   8
ENDBRANCH   1   5
BRANCH   1  12
ATOM     12  C   UNL     1       9.478  -0.887  -0.093  0.00  0.00    +0.000 C 
BRANCH  12  13
ATOM     13  C   UNL     1      10.955  -0.724  -0.345  0.00  0.00    +0.000 A 
ATOM     14  C   UNL     1      11.826  -0.570   0.743  0.00  0.00    +0.000 A 
ATOM     15  C   UNL     1      13.200  -0.435   0.544  0.00  0.00    +0.000 A 
ATOM     16  C   UNL     1      13.731  -0.461  -0.751  0.00  0.00    +0.000 A 
ATOM     17  C   UNL     1      12.863  -0.642  -1.837  0.00  0.00    +0.000 A 
ATOM     18  C   UNL     1      11.490  -0.780  -1.636  0.00  0.00    +0.000 A 
BRANCH  16  19
ATOM     19  C   UNL     1      15.209  -0.269  -0.978  0.00  0.00    +0.000 C 
BRANCH  19  20
ATOM     20  N   UNL     1      15.807  -1.415  -1.651  0.00  0.00    +0.000 NA
ATOM     21  H   UNL     1      15.667  -2.243  -1.073  0.00  0.00    +0.000 HD
ATOM     22  H   UNL     1      16.812  -1.275  -1.717  0.00  0.00    +0.000 HD
ENDBRANCH  19  20
ENDBRANCH  16  19
ENDBRANCH  12  13
ENDBRANCH   1  12
TORSDOF 7
