REMARK  Name = 
REMARK  6 active torsions:
REMARK  status: ('A' for Active; 'I' for Inactive)
REMARK    1  A    between atoms: C_2  and  C_4
REMARK    2  A    between atoms: N_8  and  C_9
REMARK    3  A    between atoms: C_9  and  C_10
REMARK    4  A    between atoms: C_10  and  C_13
REMARK    5  A    between atoms: C_17  and  C_18
REMARK    6  A    between atoms: C_18  and  C_19
REMARK                            x       y       z     vdW  Elec       q    Type
REMARK                         _______ _______ _______ _____ _____    ______ ____
ROOT
ATOM      1  C   UNL     1       6.290  -5.994  -3.688  0.00  0.00    +0.000 C 
ATOM      2  F   UNL     1       6.542  -4.660  -3.829  0.00  0.00    +0.000 F 
ATOM      3  F   UNL     1       7.409  -6.510  -3.088  0.00  0.00    +0.000 F 
ENDROOT
BRANCH   1   4
ATOM      4  C   UNL     1       6.001  -6.680  -5.009  0.00  0.00    +0.000 A 
ATOM      5  C   UNL     1       6.372  -8.023  -5.159  0.00  0.00    +0.000 A 
ATOM      6  C   UNL     1       6.061  -8.708  -6.328  0.00  0.00    +0.000 A 
ATOM      7  C   UNL     1       5.352  -8.067  -7.354  0.00  0.00    +0.000 A 
ATOM      8  C   UNL     1       4.970  -6.720  -7.236  0.00  0.00    +0.000 A 
ATOM      9  C   UNL     1       5.327  -6.030  -6.062  0.00  0.00    +0.000 A 
BRANCH   8  10
ATOM     10  C   UNL     1       4.212  -5.996  -8.342  0.00  0.00    +0.000 C 
BRANCH  10  11
ATOM     11  C   UNL     1       2.695  -6.003  -8.132  0.00  0.00    +0.000 C 
ATOM     12  C   UNL     1       1.923  -7.332  -8.208  0.00  0.00    +0.000 C 
ATOM     13  N   UNL     1       0.998  -6.761  -9.194  0.00  0.00    +0.000 NA
ATOM     14  C   UNL     1       1.814  -5.550  -9.327  0.00  0.00    +0.000 C 
ATOM     15  H   UNL     1       0.058  -6.594  -8.835  0.00  0.00    +0.000 HD
ENDBRANCH  10  11
ENDBRANCH   8  10
ENDBRANCH   1   4
BRANCH   1  16
ATOM     16  C   UNL     1       5.097  -6.175  -2.713  0.00  0.00    +0.000 C 
BRANCH  16  21
ATOM     17  C   UNL     1       2.715  -5.745   1.785  0.00  0.00    +0.000 A 
ATOM     18  C   UNL     1       2.596  -6.726   0.809  0.00  0.00    +0.000 A 
ATOM     19  C   UNL     1       3.456  -6.697  -0.285  0.00  0.00    +0.000 A 
ATOM     20  C   UNL     1       4.424  -5.696  -0.378  0.00  0.00    +0.000 A 
ATOM     21  N   UNL     1       5.389  -5.689  -1.360  0.00  0.00    +0.000 N 
ATOM     22  N   UNL     1       4.524  -4.721   0.546  0.00  0.00    +0.000 NA
ATOM     23  C   UNL     1       3.662  -4.755   1.599  0.00  0.00    +0.000 A 
ATOM     24  H   UNL     1       5.987  -4.868  -1.286  0.00  0.00    +0.000 HD
BRANCH  17  26
ATOM     25  N   UNL     1       1.467  -6.954   3.478  0.00  0.00    +0.000 N 
ATOM     26  C   UNL     1       1.881  -5.731   2.999  0.00  0.00    +0.000 C 
ATOM     27  O   UNL     1       1.604  -4.699   3.577  0.00  0.00    +0.000 OA
ATOM     28  H   UNL     1       1.005  -6.945   4.374  0.00  0.00    +0.000 HD
ATOM     29  H   UNL     1       1.903  -7.816   3.184  0.00  0.00    +0.000 HD
ENDBRANCH  17  26
ENDBRANCH  16  21
ENDBRANCH   1  16
TORSDOF 6
