REMARK  Name = 
REMARK  7 active torsions:
REMARK  status: ('A' for Active; 'I' for Inactive)
REMARK    1  A    between atoms: C_1  and  C_2
REMARK    2  A    between atoms: C_2  and  C_3
REMARK    3  A    between atoms: C_2  and  C_4
REMARK    4  A    between atoms: C_2  and  C_18
REMARK    5  A    between atoms: C_5  and  C_6
REMARK    6  A    between atoms: C_10  and  C_11
REMARK    7  A    between atoms: C_21  and  C_22
REMARK                            x       y       z     vdW  Elec       q    Type
REMARK                         _______ _______ _______ _____ _____    ______ ____
ROOT
ATOM      1  C   UNL     1       1.432  -1.116  -0.494  0.00  0.00    +0.000 C 
ATOM      2  C   UNL     1       2.399  -0.040   0.061  0.00  0.00    +0.000 C 
ATOM      3  C   UNL     1       3.641  -0.780   0.615  0.00  0.00    +0.000 C 
ENDROOT
BRANCH   2   4
ATOM      4  C   UNL     1       1.647   0.756   1.143  0.00  0.00    +0.000 A 
ATOM      5  C   UNL     1       0.495   1.494   0.818  0.00  0.00    +0.000 A 
ATOM      6  C   UNL     1      -0.225   2.161   1.808  0.00  0.00    +0.000 A 
ATOM      7  C   UNL     1       0.227   2.077   3.113  0.00  0.00    +0.000 A 
ATOM      8  N   UNL     1       1.341   1.391   3.484  0.00  0.00    +0.000 NA
ATOM      9  C   UNL     1       2.014   0.757   2.492  0.00  0.00    +0.000 A 
BRANCH   7  10
ATOM     10  C   UNL     1      -0.544   2.745   4.209  0.00  0.00    +0.000 C 
ATOM     11  N   UNL     1      -0.022   2.601   5.468  0.00  0.00    +0.000 N 
ATOM     12  O   UNL     1      -1.577   3.371   4.009  0.00  0.00    +0.000 OA
ATOM     13  H   UNL     1       0.821   2.051   5.592  0.00  0.00    +0.000 HD
ATOM     14  H   UNL     1      -0.504   2.997   6.257  0.00  0.00    +0.000 HD
ENDBRANCH   7  10
ENDBRANCH   2   4
BRANCH   2  15
ATOM     15  C   UNL     1       2.907   0.891  -1.044  0.00  0.00    +0.000 C 
ATOM     16  C   UNL     1       2.583   0.833  -2.349  0.00  0.00    +0.000 C 
BRANCH  16  17
ATOM     17  C   UNL     1       3.153   1.752  -3.331  0.00  0.00    +0.000 A 
ATOM     18  C   UNL     1       2.513   2.947  -3.635  0.00  0.00    +0.000 A 
ATOM     19  C   UNL     1       3.063   3.814  -4.577  0.00  0.00    +0.000 A 
ATOM     20  C   UNL     1       4.280   3.502  -5.186  0.00  0.00    +0.000 A 
ATOM     21  C   UNL     1       4.973   2.325  -4.862  0.00  0.00    +0.000 A 
ATOM     22  C   UNL     1       4.370   1.439  -3.951  0.00  0.00    +0.000 A 
BRANCH  21  23
ATOM     23  C   UNL     1       6.313   2.060  -5.417  0.00  0.00    +0.000 A 
ATOM     24  C   UNL     1       6.782   0.769  -5.656  0.00  0.00    +0.000 A 
ATOM     25  C   UNL     1       8.087   0.589  -6.092  0.00  0.00    +0.000 A 
ATOM     26  C   UNL     1       8.903   1.699  -6.281  0.00  0.00    +0.000 A 
ATOM     27  C   UNL     1       8.364   2.950  -6.035  0.00  0.00    +0.000 A 
ATOM     28  N   UNL     1       7.097   3.155  -5.615  0.00  0.00    +0.000 NA
ENDBRANCH  21  23
ENDBRANCH  16  17
ENDBRANCH   2  15
TORSDOF 5
