REMARK  Name = 
REMARK  6 active torsions:
REMARK  status: ('A' for Active; 'I' for Inactive)
REMARK    1  A    between atoms: C_1  and  N_2
REMARK    2  A    between atoms: C_3  and  C_5
REMARK    3  A    between atoms: C_8  and  N_9
REMARK    4  A    between atoms: N_9  and  C_10
REMARK    5  A    between atoms: C_10  and  C_11
REMARK    6  A    between atoms: C_10  and  C_12
REMARK                            x       y       z     vdW  Elec       q    Type
REMARK                         _______ _______ _______ _____ _____    ______ ____
ROOT
ATOM      1  C   UNL     1       4.620   1.018  -0.566  0.00  0.00    +0.000 A 
ATOM      2  C   UNL     1       5.205  -0.078  -1.184  0.00  0.00    +0.000 A 
ATOM      3  C   UNL     1       6.601  -0.157  -1.239  0.00  0.00    +0.000 A 
ATOM      4  C   UNL     1       7.392   0.848  -0.682  0.00  0.00    +0.000 A 
ATOM      5  C   UNL     1       6.685   1.910  -0.094  0.00  0.00    +0.000 A 
ATOM      6  N   UNL     1       5.333   2.027  -0.004  0.00  0.00    +0.000 NA
ENDROOT
BRANCH   1   9
ATOM      7  C   UNL     1       1.227   2.512   0.225  0.00  0.00    +0.000 C 
ATOM      8  N   UNL     1       2.640   2.275   0.094  0.00  0.00    +0.000 N 
ATOM      9  C   UNL     1       3.125   1.137  -0.513  0.00  0.00    +0.000 C 
ATOM     10  O   UNL     1       2.401   0.266  -0.995  0.00  0.00    +0.000 OA
ATOM     11  H   UNL     1       3.321   2.977   0.372  0.00  0.00    +0.000 HD
ENDBRANCH   1   9
BRANCH   4  12
ATOM     12  N   UNL     1       8.778   0.927  -0.824  0.00  0.00    +0.000 N 
ATOM     13  H   UNL     1       9.189   1.623  -0.207  0.00  0.00    +0.000 HD
BRANCH  12  14
ATOM     14  C   UNL     1       9.639  -0.255  -0.969  0.00  0.00    +0.000 C 
ATOM     15  C   UNL     1      10.868   0.124  -1.813  0.00  0.00    +0.000 C 
BRANCH  14  16
ATOM     16  C   UNL     1      10.090  -0.760   0.397  0.00  0.00    +0.000 A 
ATOM     17  C   UNL     1       9.837  -2.079   0.799  0.00  0.00    +0.000 A 
ATOM     18  C   UNL     1      10.297  -2.545   2.036  0.00  0.00    +0.000 A 
ATOM     19  C   UNL     1      11.000  -1.696   2.890  0.00  0.00    +0.000 A 
ATOM     20  C   UNL     1      11.248  -0.381   2.510  0.00  0.00    +0.000 A 
ATOM     21  C   UNL     1      10.803   0.081   1.273  0.00  0.00    +0.000 A 
ENDBRANCH  14  16
ENDBRANCH  12  14
ENDBRANCH   4  12
TORSDOF 4
