REMARK  Name = 
REMARK  6 active torsions:
REMARK  status: ('A' for Active; 'I' for Inactive)
REMARK    1  A    between atoms: N_1  and  C_2
REMARK    2  A    between atoms: C_2  and  C_3
REMARK    3  A    between atoms: C_3  and  C_4
REMARK    4  A    between atoms: C_7  and  C_8
REMARK    5  A    between atoms: C_8  and  N_9
REMARK    6  A    between atoms: C_14  and  C_15
REMARK                            x       y       z     vdW  Elec       q    Type
REMARK                         _______ _______ _______ _____ _____    ______ ____
ROOT
ATOM      1  N   UNL     1       9.436   0.160   0.256  0.00  0.00    +0.000 N 
ATOM      2  C   UNL     1       9.678   1.496   0.419  0.00  0.00    +0.000 A 
ATOM      3  N   UNL     1      10.324   2.006  -0.606  0.00  0.00    +0.000 NA
ATOM      4  C   UNL     1      10.542   0.953  -1.462  0.00  0.00    +0.000 A 
ATOM      5  C   UNL     1      11.219   0.925  -2.683  0.00  0.00    +0.000 A 
ATOM      6  C   UNL     1      11.299  -0.322  -3.300  0.00  0.00    +0.000 A 
ATOM      7  N   UNL     1      10.764  -1.472  -2.798  0.00  0.00    +0.000 NA
ATOM      8  C   UNL     1      10.107  -1.427  -1.615  0.00  0.00    +0.000 A 
ATOM      9  C   UNL     1       9.998  -0.221  -0.944  0.00  0.00    +0.000 A 
ENDROOT
BRANCH   6  10
ATOM     10  C   UNL     1      12.041  -0.458  -4.599  0.00  0.00    +0.000 C 
ATOM     11  N   UNL     1      12.111  -1.704  -5.163  0.00  0.00    +0.000 N 
ATOM     12  O   UNL     1      12.580   0.501  -5.143  0.00  0.00    +0.000 OA
ATOM     13  H   UNL     1      11.708  -2.517  -4.714  0.00  0.00    +0.000 HD
ATOM     14  H   UNL     1      12.627  -1.812  -6.023  0.00  0.00    +0.000 HD
ENDBRANCH   6  10
BRANCH   1  15
ATOM     15  C   UNL     1       8.848  -0.713   1.268  0.00  0.00    +0.000 C 
BRANCH  15  19
ATOM     16  C   UNL     1       4.517  -0.883   0.905  0.00  0.00    +0.000 A 
ATOM     17  C   UNL     1       5.326  -1.814   0.241  0.00  0.00    +0.000 A 
ATOM     18  C   UNL     1       6.721  -1.784   0.381  0.00  0.00    +0.000 A 
ATOM     19  C   UNL     1       7.344  -0.802   1.165  0.00  0.00    +0.000 A 
ATOM     20  C   UNL     1       6.530   0.107   1.855  0.00  0.00    +0.000 A 
ATOM     21  C   UNL     1       5.135   0.061   1.734  0.00  0.00    +0.000 A 
BRANCH  16  22
ATOM     22  C   UNL     1       3.013  -0.881   0.723  0.00  0.00    +0.000 C 
BRANCH  22  23
ATOM     23  C   UNL     1       2.277  -1.753   1.750  0.00  0.00    +0.000 C 
BRANCH  23  24
ATOM     24  N   UNL     1       0.825  -1.727   1.557  0.00  0.00    +0.000 NA
ATOM     25  H   UNL     1       0.385  -2.318   2.262  0.00  0.00    +0.000 HD
ATOM     26  H   UNL     1       0.586  -2.143   0.657  0.00  0.00    +0.000 HD
ENDBRANCH  23  24
ENDBRANCH  22  23
ENDBRANCH  16  22
ENDBRANCH  15  19
ENDBRANCH   1  15
TORSDOF 6
