REMARK  Name = 
REMARK  8 active torsions:
REMARK  status: ('A' for Active; 'I' for Inactive)
REMARK    1  A    between atoms: C_1  and  C_2
REMARK    2  A    between atoms: C_2  and  N_3
REMARK    3  A    between atoms: N_3  and  C_4
REMARK    4  A    between atoms: C_4  and  C_5
REMARK    5  A    between atoms: C_8  and  C_9
REMARK    6  A    between atoms: C_9  and  N_10
REMARK    7  A    between atoms: C_11  and  C_13
REMARK    8  A    between atoms: C_20  and  C_22
REMARK                            x       y       z     vdW  Elec       q    Type
REMARK                         _______ _______ _______ _____ _____    ______ ____
ROOT
ATOM      1  C   UNL     1       1.813   1.721  -1.686  0.00  0.00    +0.000 C 
ENDROOT
BRANCH   1   2
ATOM      2  C   UNL     1       0.341   1.436  -1.528  0.00  0.00    +0.000 A 
ATOM      3  C   UNL     1      -0.447   2.286  -0.732  0.00  0.00    +0.000 A 
ATOM      4  C   UNL     1      -1.840   2.242  -0.804  0.00  0.00    +0.000 A 
ATOM      5  C   UNL     1      -2.474   1.331  -1.656  0.00  0.00    +0.000 A 
ATOM      6  C   UNL     1      -1.689   0.432  -2.393  0.00  0.00    +0.000 A 
ATOM      7  C   UNL     1      -0.293   0.476  -2.323  0.00  0.00    +0.000 A 
BRANCH   5   8
ATOM      8  C   UNL     1      -3.968   1.380  -1.845  0.00  0.00    +0.000 C 
BRANCH   8   9
ATOM      9  N   UNL     1      -4.326   2.310  -2.892  0.00  0.00    +0.000 N 
ATOM     10  C   UNL     1      -5.639   2.518  -3.259  0.00  0.00    +0.000 C 
ATOM     11  O   UNL     1      -6.557   1.923  -2.699  0.00  0.00    +0.000 OA
ATOM     12  H   UNL     1      -3.594   2.813  -3.378  0.00  0.00    +0.000 HD
BRANCH  10  13
ATOM     13  C   UNL     1      -5.859   3.466  -4.333  0.00  0.00    +0.000 A 
ATOM     14  C   UNL     1      -7.071   3.839  -4.886  0.00  0.00    +0.000 A 
ATOM     15  N   UNL     1      -7.012   4.767  -5.912  0.00  0.00    +0.000 NA
ATOM     16  C   UNL     1      -5.757   5.089  -6.126  0.00  0.00    +0.000 A 
ATOM     17  S   UNL     1      -4.596   4.314  -5.130  0.00  0.00    +0.000 S 
ENDBRANCH  10  13
ENDBRANCH   8   9
ENDBRANCH   5   8
ENDBRANCH   1   2
BRANCH   1  18
ATOM     18  N   UNL     1       2.826   1.020  -0.907  0.00  0.00    +0.000 N 
ATOM     19  C   UNL     1       4.206   1.154  -1.175  0.00  0.00    +0.000 C 
ATOM     20  O   UNL     1       5.043   0.567  -0.491  0.00  0.00    +0.000 OA
BRANCH  19  21
ATOM     21  C   UNL     1       4.670   2.047  -2.257  0.00  0.00    +0.000 A 
ATOM     22  C   UNL     1       4.231   3.345  -2.475  0.00  0.00    +0.000 A 
ATOM     23  S   UNL     1       5.037   4.147  -3.749  0.00  0.00    +0.000 S 
ATOM     24  C   UNL     1       6.114   2.848  -3.947  0.00  0.00    +0.000 A 
ATOM     25  N   UNL     1       7.165   2.936  -4.804  0.00  0.00    +0.000 NA
ATOM     26  C   UNL     1       7.939   1.903  -4.793  0.00  0.00    +0.000 A 
ATOM     27  N   UNL     1       7.727   0.772  -4.045  0.00  0.00    +0.000 N 
ATOM     28  C   UNL     1       6.596   0.583  -3.278  0.00  0.00    +0.000 A 
ATOM     29  O   UNL     1       6.307  -0.523  -2.838  0.00  0.00    +0.000 OA
ATOM     30  C   UNL     1       5.779   1.774  -3.143  0.00  0.00    +0.000 A 
ATOM     31  H   UNL     1       8.324  -0.033  -4.148  0.00  0.00    +0.000 HD
ENDBRANCH  19  21
BRANCH  18  33
ATOM     32  C   UNL     1       2.470  -1.266   0.002  0.00  0.00    +0.000 C 
ATOM     33  C   UNL     1       2.446   0.232   0.269  0.00  0.00    +0.000 C 
ENDBRANCH  18  33
ENDBRANCH   1  18
TORSDOF 7
