REMARK  Name = 
REMARK  7 active torsions:
REMARK  status: ('A' for Active; 'I' for Inactive)
REMARK    1  A    between atoms: C_2  and  C_21
REMARK    2  A    between atoms: N_3  and  C_4
REMARK    3  A    between atoms: C_4  and  C_5
REMARK    4  A    between atoms: C_8  and  C_9
REMARK    5  A    between atoms: C_9  and  N_10
REMARK    6  A    between atoms: C_11  and  C_13
REMARK    7  A    between atoms: C_13  and  O_14
REMARK                            x       y       z     vdW  Elec       q    Type
REMARK                         _______ _______ _______ _____ _____    ______ ____
ROOT
ATOM      1  C   UNL     1      11.458  -8.640   3.028  0.00  0.00    +0.000 A 
ATOM      2  C   UNL     1      10.287  -8.299   3.719  0.00  0.00    +0.000 A 
ATOM      3  C   UNL     1      10.262  -7.200   4.586  0.00  0.00    +0.000 A 
ATOM      4  C   UNL     1      11.400  -6.402   4.761  0.00  0.00    +0.000 A 
ATOM      5  C   UNL     1      12.566  -6.732   4.056  0.00  0.00    +0.000 A 
ATOM      6  C   UNL     1      12.591  -7.831   3.189  0.00  0.00    +0.000 A 
ENDROOT
BRANCH   1   7
ATOM      7  C   UNL     1      11.506  -9.867   2.154  0.00  0.00    +0.000 C 
BRANCH   7  10
ATOM      8  O   UNL     1      11.632 -11.726   0.127  0.00  0.00    +0.000 OA
ATOM      9  C   UNL     1      11.150 -10.626  -0.133  0.00  0.00    +0.000 C 
ATOM     10  N   UNL     1      11.127  -9.605   0.789  0.00  0.00    +0.000 N 
ATOM     11  H   UNL     1      10.547  -8.790   0.615  0.00  0.00    +0.000 HD
BRANCH   9  12
ATOM     12  C   UNL     1      10.594 -10.341  -1.461  0.00  0.00    +0.000 A 
ATOM     13  C   UNL     1      11.030 -11.062  -2.564  0.00  0.00    +0.000 A 
ATOM     14  S   UNL     1      10.258 -10.617  -4.020  0.00  0.00    +0.000 S 
ATOM     15  C   UNL     1       9.282  -9.478  -3.217  0.00  0.00    +0.000 A 
ATOM     16  N   UNL     1       8.340  -8.764  -3.889  0.00  0.00    +0.000 NA
ATOM     17  C   UNL     1       7.643  -7.971  -3.146  0.00  0.00    +0.000 A 
ATOM     18  N   UNL     1       7.814  -7.813  -1.796  0.00  0.00    +0.000 N 
ATOM     19  C   UNL     1       8.787  -8.478  -1.083  0.00  0.00    +0.000 A 
ATOM     20  O   UNL     1       8.962  -8.256   0.108  0.00  0.00    +0.000 OA
ATOM     21  C   UNL     1       9.567  -9.414  -1.866  0.00  0.00    +0.000 A 
ATOM     22  H   UNL     1       7.249  -7.158  -1.277  0.00  0.00    +0.000 HD
ENDBRANCH   9  12
ENDBRANCH   7  10
ENDBRANCH   1   7
BRANCH   4  23
ATOM     23  C   UNL     1      11.364  -5.200   5.666  0.00  0.00    +0.000 C 
BRANCH  23  24
ATOM     24  N   UNL     1      11.796  -5.490   7.012  0.00  0.00    +0.000 N 
ATOM     25  C   UNL     1      11.853  -4.460   7.940  0.00  0.00    +0.000 C 
ATOM     26  O   UNL     1      11.654  -3.285   7.634  0.00  0.00    +0.000 OA
ATOM     27  H   UNL     1      11.641  -6.415   7.403  0.00  0.00    +0.000 HD
BRANCH  25  28
ATOM     28  C   UNL     1      12.280  -4.918   9.384  0.00  0.00    +0.000 C 
ATOM     29  C   UNL     1      13.798  -4.825   9.515  0.00  0.00    +0.000 C 
ATOM     30  C   UNL     1      14.037  -3.520  10.250  0.00  0.00    +0.000 C 
ATOM     31  C   UNL     1      12.654  -2.990  10.566  0.00  0.00    +0.000 C 
ATOM     32  O   UNL     1      11.756  -4.095  10.419  0.00  0.00    +0.000 OA
BRANCH  28  33
ATOM     33  O   UNL     1      11.854  -6.255   9.613  0.00  0.00    +0.000 OA
ATOM     34  H   UNL     1      12.116  -6.438  10.531  0.00  0.00    +0.000 HD
ENDBRANCH  28  33
ENDBRANCH  25  28
ENDBRANCH  23  24
ENDBRANCH   4  23
TORSDOF 7
