REMARK  Name = 
REMARK  5 active torsions:
REMARK  status: ('A' for Active; 'I' for Inactive)
REMARK    1  A    between atoms: N_1  and  C_2
REMARK    2  A    between atoms: C_2  and  C_3
REMARK    3  A    between atoms: C_6  and  C_7
REMARK    4  A    between atoms: C_7  and  C_8
REMARK    5  A    between atoms: C_14  and  O_15
REMARK                            x       y       z     vdW  Elec       q    Type
REMARK                         _______ _______ _______ _____ _____    ______ ____
ROOT
ATOM      1  C   UNL     1       3.556  -4.725   2.964  0.00  0.00    +0.000 C 
ENDROOT
BRANCH   1   2
ATOM      2  C   UNL     1       4.401  -4.458   4.157  0.00  0.00    +0.000 A 
ATOM      3  N   UNL     1       3.890  -4.630   5.388  0.00  0.00    +0.000 NA
ATOM      4  O   UNL     1       4.914  -4.322   6.269  0.00  0.00    +0.000 OA
ATOM      5  C   UNL     1       6.028  -3.978   5.571  0.00  0.00    +0.000 A 
ATOM      6  C   UNL     1       7.251  -3.588   6.111  0.00  0.00    +0.000 A 
ATOM      7  C   UNL     1       8.265  -3.286   5.194  0.00  0.00    +0.000 A 
ATOM      8  C   UNL     1       8.035  -3.389   3.821  0.00  0.00    +0.000 A 
ATOM      9  C   UNL     1       6.794  -3.780   3.305  0.00  0.00    +0.000 A 
ATOM     10  C   UNL     1       5.765  -4.071   4.216  0.00  0.00    +0.000 A 
BRANCH   8  11
ATOM     11  O   UNL     1       9.017  -3.108   2.917  0.00  0.00    +0.000 OA
ATOM     12  H   UNL     1       9.827  -2.872   3.398  0.00  0.00    +0.000 HD
ENDBRANCH   8  11
ENDBRANCH   1   2
BRANCH   1  16
ATOM     13  C   UNL     1       3.041  -1.278   0.485  0.00  0.00    +0.000 A 
ATOM     14  C   UNL     1       2.660  -1.202   1.827  0.00  0.00    +0.000 A 
ATOM     15  C   UNL     1       2.858  -2.294   2.672  0.00  0.00    +0.000 A 
ATOM     16  C   UNL     1       3.444  -3.452   2.157  0.00  0.00    +0.000 A 
ATOM     17  N   UNL     1       3.852  -3.532   0.865  0.00  0.00    +0.000 NA
ATOM     18  C   UNL     1       3.644  -2.457   0.070  0.00  0.00    +0.000 A 
BRANCH  13  19
ATOM     19  C   UNL     1       2.761  -0.168  -0.488  0.00  0.00    +0.000 C 
BRANCH  19  20
ATOM     20  N   UNL     1       3.390   1.085  -0.094  0.00  0.00    +0.000 NA
ATOM     21  H   UNL     1       3.253   1.773  -0.832  0.00  0.00    +0.000 HD
ATOM     22  H   UNL     1       4.397   0.943  -0.019  0.00  0.00    +0.000 HD
ENDBRANCH  19  20
ENDBRANCH  13  19
ENDBRANCH   1  16
TORSDOF 5
