REMARK  Name = 
REMARK  10 active torsions:
REMARK  status: ('A' for Active; 'I' for Inactive)
REMARK    1  A    between atoms: C_1  and  S_2
REMARK    2  A    between atoms: S_2  and  N_5
REMARK    3  A    between atoms: N_5  and  C_6
REMARK    4  A    between atoms: C_9  and  C_10
REMARK    5  A    between atoms: C_10  and  N_11
REMARK    6  A    between atoms: N_11  and  C_12
REMARK    7  A    between atoms: C_12  and  C_13
REMARK    8  A    between atoms: C_16  and  C_17
REMARK    9  A    between atoms: C_17  and  N_18
REMARK   10  A    between atoms: C_19  and  C_21
REMARK                            x       y       z     vdW  Elec       q    Type
REMARK                         _______ _______ _______ _____ _____    ______ ____
ROOT
ATOM      1  C   UNL     1      11.845   2.492  -0.461  0.00  0.00    +0.000 A 
ATOM      2  C   UNL     1      12.177   3.725  -1.042  0.00  0.00    +0.000 A 
ATOM      3  C   UNL     1      12.850   3.783  -2.267  0.00  0.00    +0.000 A 
ATOM      4  C   UNL     1      13.211   2.607  -2.936  0.00  0.00    +0.000 A 
ATOM      5  C   UNL     1      12.921   1.375  -2.336  0.00  0.00    +0.000 A 
ATOM      6  C   UNL     1      12.238   1.317  -1.117  0.00  0.00    +0.000 A 
ENDROOT
BRANCH   1   7
ATOM      7  C   UNL     1      11.077   2.432   0.843  0.00  0.00    +0.000 C 
BRANCH   7   8
ATOM      8  N   UNL     1       9.740   3.000   0.685  0.00  0.00    +0.000 NA
ATOM      9  H   UNL     1       9.824   3.975   0.397  0.00  0.00    +0.000 HD
BRANCH   8  10
ATOM     10  C   UNL     1       8.981   2.968   1.941  0.00  0.00    +0.000 C 
BRANCH  10  14
ATOM     11  C   UNL     1       5.170   4.853   1.478  0.00  0.00    +0.000 A 
ATOM     12  C   UNL     1       5.472   3.750   0.691  0.00  0.00    +0.000 A 
ATOM     13  C   UNL     1       6.706   3.119   0.849  0.00  0.00    +0.000 A 
ATOM     14  C   UNL     1       7.615   3.617   1.785  0.00  0.00    +0.000 A 
ATOM     15  N   UNL     1       7.340   4.701   2.557  0.00  0.00    +0.000 NA
ATOM     16  C   UNL     1       6.136   5.299   2.372  0.00  0.00    +0.000 A 
BRANCH  11  17
ATOM     17  N   UNL     1       3.943   5.568   1.284  0.00  0.00    +0.000 N 
ATOM     18  H   UNL     1       3.161   4.967   1.016  0.00  0.00    +0.000 HD
BRANCH  17  20
ATOM     19  C   UNL     1       3.519   8.211   1.211  0.00  0.00    +0.000 C 
ATOM     20  S   UNL     1       4.011   6.853   0.174  0.00  0.00    +0.000 S 
ATOM     21  O   UNL     1       2.943   6.603  -0.770  0.00  0.00    +0.000 OA
ATOM     22  O   UNL     1       5.373   7.080  -0.253  0.00  0.00    +0.000 OA
ENDBRANCH  17  20
ENDBRANCH  11  17
ENDBRANCH  10  14
ENDBRANCH   8  10
ENDBRANCH   7   8
ENDBRANCH   1   7
BRANCH   4  23
ATOM     23  C   UNL     1      13.947   2.661  -4.250  0.00  0.00    +0.000 C 
BRANCH  23  24
ATOM     24  N   UNL     1      15.370   2.687  -4.033  0.00  0.00    +0.000 N 
ATOM     25  C   UNL     1      16.258   2.820  -5.068  0.00  0.00    +0.000 C 
ATOM     26  O   UNL     1      15.891   2.964  -6.230  0.00  0.00    +0.000 OA
ATOM     27  H   UNL     1      15.696   2.343  -3.136  0.00  0.00    +0.000 HD
BRANCH  25  28
ATOM     28  C   UNL     1      17.680   2.846  -4.701  0.00  0.00    +0.000 A 
ATOM     29  C   UNL     1      18.601   3.441  -5.552  0.00  0.00    +0.000 A 
ATOM     30  S   UNL     1      20.193   3.449  -4.939  0.00  0.00    +0.000 S 
ATOM     31  C   UNL     1      19.717   2.609  -3.539  0.00  0.00    +0.000 A 
ATOM     32  N   UNL     1      20.623   2.275  -2.581  0.00  0.00    +0.000 NA
ATOM     33  C   UNL     1      20.130   1.616  -1.585  0.00  0.00    +0.000 A 
ATOM     34  N   UNL     1      18.812   1.259  -1.462  0.00  0.00    +0.000 N 
ATOM     35  C   UNL     1      17.859   1.590  -2.394  0.00  0.00    +0.000 A 
ATOM     36  O   UNL     1      16.684   1.277  -2.238  0.00  0.00    +0.000 OA
ATOM     37  C   UNL     1      18.361   2.335  -3.534  0.00  0.00    +0.000 A 
ATOM     38  H   UNL     1      18.488   0.741  -0.659  0.00  0.00    +0.000 HD
ENDBRANCH  25  28
ENDBRANCH  23  24
ENDBRANCH   4  23
TORSDOF 9
