REMARK  Name = 
REMARK  9 active torsions:
REMARK  status: ('A' for Active; 'I' for Inactive)
REMARK    1  A    between atoms: C_1  and  C_2
REMARK    2  A    between atoms: C_2  and  C_3
REMARK    3  A    between atoms: C_7  and  C_8
REMARK    4  A    between atoms: C_8  and  N_9
REMARK    5  A    between atoms: N_9  and  C_10
REMARK    6  A    between atoms: C_10  and  C_11
REMARK    7  A    between atoms: C_14  and  C_15
REMARK    8  A    between atoms: C_15  and  N_16
REMARK    9  A    between atoms: C_17  and  C_19
REMARK                            x       y       z     vdW  Elec       q    Type
REMARK                         _______ _______ _______ _____ _____    ______ ____
ROOT
ATOM      1  C   UNL     1       5.377  -2.204  -7.753  0.00  0.00    +0.000 A 
ATOM      2  C   UNL     1       5.174  -0.869  -8.115  0.00  0.00    +0.000 A 
ATOM      3  C   UNL     1       5.548  -0.410  -9.383  0.00  0.00    +0.000 A 
ATOM      4  C   UNL     1       6.126  -1.277 -10.317  0.00  0.00    +0.000 A 
ATOM      5  C   UNL     1       6.360  -2.606  -9.941  0.00  0.00    +0.000 A 
ATOM      6  C   UNL     1       5.988  -3.071  -8.674  0.00  0.00    +0.000 A 
ENDROOT
BRANCH   1   7
ATOM      7  C   UNL     1       4.906  -2.716  -6.411  0.00  0.00    +0.000 C 
BRANCH   7   8
ATOM      8  N   UNL     1       3.470  -2.517  -6.199  0.00  0.00    +0.000 NA
ATOM      9  H   UNL     1       3.220  -2.860  -5.270  0.00  0.00    +0.000 HD
BRANCH   8  10
ATOM     10  C   UNL     1       2.654  -3.267  -7.165  0.00  0.00    +0.000 C 
BRANCH  10  15
ATOM     11  C   UNL     1      -0.765  -3.729  -5.835  0.00  0.00    +0.000 A 
ATOM     12  C   UNL     1      -1.491  -2.681  -6.393  0.00  0.00    +0.000 A 
ATOM     13  C   UNL     1      -0.841  -1.796  -7.244  0.00  0.00    +0.000 A 
ATOM     14  C   UNL     1       0.509  -1.981  -7.515  0.00  0.00    +0.000 A 
ATOM     15  C   UNL     1       1.174  -3.052  -6.920  0.00  0.00    +0.000 A 
ATOM     16  N   UNL     1       0.553  -3.920  -6.081  0.00  0.00    +0.000 NA
BRANCH  11  18
ATOM     17  C   UNL     1      -1.957  -5.915  -5.825  0.00  0.00    +0.000 C 
ATOM     18  C   UNL     1      -1.452  -4.758  -4.977  0.00  0.00    +0.000 C 
ENDBRANCH  11  18
ENDBRANCH  10  15
ENDBRANCH   8  10
ENDBRANCH   7   8
ENDBRANCH   1   7
BRANCH   4  19
ATOM     19  C   UNL     1       6.501  -0.804 -11.699  0.00  0.00    +0.000 C 
BRANCH  19  20
ATOM     20  N   UNL     1       7.849  -0.296 -11.740  0.00  0.00    +0.000 N 
ATOM     21  C   UNL     1       8.385   0.225 -12.890  0.00  0.00    +0.000 C 
ATOM     22  O   UNL     1       7.741   0.312 -13.933  0.00  0.00    +0.000 OA
ATOM     23  H   UNL     1       8.472  -0.594 -10.996  0.00  0.00    +0.000 HD
BRANCH  21  24
ATOM     24  C   UNL     1       9.756   0.740 -12.791  0.00  0.00    +0.000 A 
ATOM     25  C   UNL     1      10.185   1.744 -13.650  0.00  0.00    +0.000 A 
ATOM     26  S   UNL     1      11.790   2.248 -13.365  0.00  0.00    +0.000 S 
ATOM     27  C   UNL     1      11.985   1.106 -12.118  0.00  0.00    +0.000 A 
ATOM     28  N   UNL     1      13.169   0.981 -11.460  0.00  0.00    +0.000 NA
ATOM     29  C   UNL     1      13.183   0.060 -10.555  0.00  0.00    +0.000 A 
ATOM     30  N   UNL     1      12.117  -0.744 -10.244  0.00  0.00    +0.000 N 
ATOM     31  C   UNL     1      10.895  -0.631 -10.859  0.00  0.00    +0.000 A 
ATOM     32  O   UNL     1       9.944  -1.330 -10.519  0.00  0.00    +0.000 OA
ATOM     33  C   UNL     1      10.832   0.374 -11.901  0.00  0.00    +0.000 A 
ATOM     34  H   UNL     1      12.186  -1.438  -9.515  0.00  0.00    +0.000 HD
ENDBRANCH  21  24
ENDBRANCH  19  20
ENDBRANCH   4  19
TORSDOF 8
