REMARK  Name = 
REMARK  5 active torsions:
REMARK  status: ('A' for Active; 'I' for Inactive)
REMARK    1  A    between atoms: N_1  and  C_2
REMARK    2  A    between atoms: C_2  and  C_3
REMARK    3  A    between atoms: C_3  and  C_4
REMARK    4  A    between atoms: C_7  and  C_8
REMARK    5  A    between atoms: C_8  and  N_9
REMARK                            x       y       z     vdW  Elec       q    Type
REMARK                         _______ _______ _______ _____ _____    ______ ____
ROOT
ATOM      1  C   UNL     1       4.370   0.939   1.063  0.00  0.00    +0.000 A 
ATOM      2  C   UNL     1       5.070   0.036   0.255  0.00  0.00    +0.000 A 
ATOM      3  C   UNL     1       6.466   0.076   0.187  0.00  0.00    +0.000 A 
ATOM      4  C   UNL     1       7.193   1.016   0.932  0.00  0.00    +0.000 A 
ATOM      5  C   UNL     1       6.490   1.899   1.764  0.00  0.00    +0.000 A 
ATOM      6  C   UNL     1       5.094   1.857   1.833  0.00  0.00    +0.000 A 
ENDROOT
BRANCH   1   7
ATOM      7  C   UNL     1       2.860   0.942   1.088  0.00  0.00    +0.000 C 
BRANCH   7   8
ATOM      8  C   UNL     1       2.278   0.023   2.166  0.00  0.00    +0.000 C 
BRANCH   8   9
ATOM      9  N   UNL     1       0.815   0.078   2.163  0.00  0.00    +0.000 NA
ATOM     10  H   UNL     1       0.451  -0.550   2.878  0.00  0.00    +0.000 HD
ATOM     11  H   UNL     1       0.460  -0.268   1.272  0.00  0.00    +0.000 HD
ENDBRANCH   8   9
ENDBRANCH   7   8
ENDBRANCH   1   7
BRANCH   4  12
ATOM     12  C   UNL     1       8.697   1.085   0.835  0.00  0.00    +0.000 C 
BRANCH  12  13
ATOM     13  N   UNL     1       9.149   2.003  -0.208  0.00  0.00    +0.000 N 
ATOM     14  C   UNL     1       9.364   3.346  -0.009  0.00  0.00    +0.000 A 
ATOM     15  C   UNL     1       9.882   3.875  -1.169  0.00  0.00    +0.000 A 
ATOM     16  C   UNL     1      10.001   2.818  -2.111  0.00  0.00    +0.000 A 
ATOM     17  C   UNL     1      10.469   2.743  -3.430  0.00  0.00    +0.000 A 
ATOM     18  N   UNL     1      10.474   1.563  -4.097  0.00  0.00    +0.000 NA
ATOM     19  C   UNL     1      10.014   0.463  -3.466  0.00  0.00    +0.000 A 
ATOM     20  C   UNL     1       9.531   0.431  -2.166  0.00  0.00    +0.000 A 
ATOM     21  C   UNL     1       9.535   1.654  -1.490  0.00  0.00    +0.000 A 
ENDBRANCH  12  13
ENDBRANCH   4  12
TORSDOF 5
