REMARK  Name = 
REMARK  12 active torsions:
REMARK  status: ('A' for Active; 'I' for Inactive)
REMARK    1  A    between atoms: C_1  and  O_2
REMARK    2  A    between atoms: O_2  and  C_3
REMARK    3  A    between atoms: C_6  and  C_7
REMARK    4  A    between atoms: C_11  and  C_12
REMARK    5  A    between atoms: C_12  and  C_13
REMARK    6  A    between atoms: C_12  and  C_14
REMARK    7  A    between atoms: C_12  and  C_15
REMARK    8  A    between atoms: C_15  and  N_16
REMARK    9  A    between atoms: N_16  and  C_17
REMARK   10  A    between atoms: C_20  and  C_21
REMARK   11  A    between atoms: C_27  and  O_28
REMARK   12  A    between atoms: O_28  and  C_29
REMARK                            x       y       z     vdW  Elec       q    Type
REMARK                         _______ _______ _______ _____ _____    ______ ____
ROOT
ATOM      1  C   UNL     1       5.629  -6.923  -4.135  0.00  0.00    +0.000 C 
ATOM      2  C   UNL     1       6.076  -6.993  -2.644  0.00  0.00    +0.000 C 
ATOM      3  C   UNL     1       4.253  -7.616  -4.244  0.00  0.00    +0.000 C 
ENDROOT
BRANCH   1   8
ATOM      4  C   UNL     1       4.827  -3.139  -3.933  0.00  0.00    +0.000 A 
ATOM      5  C   UNL     1       5.613  -2.647  -4.983  0.00  0.00    +0.000 A 
ATOM      6  C   UNL     1       6.335  -3.505  -5.808  0.00  0.00    +0.000 A 
ATOM      7  C   UNL     1       6.347  -4.874  -5.557  0.00  0.00    +0.000 A 
ATOM      8  C   UNL     1       5.558  -5.435  -4.545  0.00  0.00    +0.000 A 
ATOM      9  C   UNL     1       4.756  -4.547  -3.803  0.00  0.00    +0.000 A 
BRANCH   4  13
ATOM     10  C   UNL     1       3.228  -0.642  -0.876  0.00  0.00    +0.000 A 
ATOM     11  C   UNL     1       3.580  -1.931  -0.557  0.00  0.00    +0.000 A 
ATOM     12  C   UNL     1       4.077  -2.729  -1.582  0.00  0.00    +0.000 A 
ATOM     13  C   UNL     1       4.219  -2.250  -2.906  0.00  0.00    +0.000 A 
ATOM     14  C   UNL     1       3.826  -0.915  -3.096  0.00  0.00    +0.000 A 
ATOM     15  N   UNL     1       3.351  -0.125  -2.107  0.00  0.00    +0.000 NA
BRANCH  10  17
ATOM     16  C   UNL     1       1.992   1.251  -0.414  0.00  0.00    +0.000 C 
ATOM     17  O   UNL     1       2.726   0.153   0.127  0.00  0.00    +0.000 OA
ENDBRANCH  10  17
BRANCH  14  18
ATOM     18  O   UNL     1       3.899  -0.334  -4.347  0.00  0.00    +0.000 OA
ATOM     19  C   UNL     1       3.445   1.024  -4.358  0.00  0.00    +0.000 C 
ENDBRANCH  14  18
ENDBRANCH   4  13
ENDBRANCH   1   8
BRANCH   1  20
ATOM     20  C   UNL     1       6.675  -7.766  -4.923  0.00  0.00    +0.000 C 
BRANCH  20  21
ATOM     21  N   UNL     1       6.343  -7.920  -6.348  0.00  0.00    +0.000 N 
ATOM     22  H   UNL     1       5.943  -7.083  -6.766  0.00  0.00    +0.000 HD
BRANCH  21  23
ATOM     23  C   UNL     1       7.320  -8.522  -7.153  0.00  0.00    +0.000 A 
ATOM     24  C   UNL     1       8.083  -9.604  -6.709  0.00  0.00    +0.000 A 
ATOM     25  C   UNL     1       8.978 -10.239  -7.567  0.00  0.00    +0.000 A 
ATOM     26  C   UNL     1       9.081  -9.772  -8.868  0.00  0.00    +0.000 A 
ATOM     27  N   UNL     1       8.364  -8.724  -9.358  0.00  0.00    +0.000 NA
ATOM     28  C   UNL     1       7.497  -8.144  -8.489  0.00  0.00    +0.000 A 
BRANCH  26  29
ATOM     29  C   UNL     1      10.007 -10.456  -9.818  0.00  0.00    +0.000 C 
ATOM     30  N   UNL     1      10.034  -9.942 -11.083  0.00  0.00    +0.000 N 
ATOM     31  O   UNL     1      10.689 -11.424  -9.501  0.00  0.00    +0.000 OA
ATOM     32  H   UNL     1       9.431  -9.168 -11.329  0.00  0.00    +0.000 HD
ATOM     33  H   UNL     1      10.612 -10.384 -11.790  0.00  0.00    +0.000 HD
ENDBRANCH  26  29
ENDBRANCH  21  23
ENDBRANCH  20  21
ENDBRANCH   1  20
TORSDOF 8
