REMARK  Name = 
REMARK  5 active torsions:
REMARK  status: ('A' for Active; 'I' for Inactive)
REMARK    1  A    between atoms: C_2  and  C_4
REMARK    2  A    between atoms: C_7  and  N_8
REMARK    3  A    between atoms: N_8  and  C_9
REMARK    4  A    between atoms: C_9  and  C_10
REMARK    5  A    between atoms: C_15  and  C_16
REMARK                            x       y       z     vdW  Elec       q    Type
REMARK                         _______ _______ _______ _____ _____    ______ ____
ROOT
ATOM      1  C   UNL     1       5.009  -0.203   6.152  0.00  0.00    +0.000 C 
ENDROOT
BRANCH   1   2
ATOM      2  C   UNL     1       5.884   0.178   7.325  0.00  0.00    +0.000 A 
ATOM      3  C   UNL     1       6.031   1.513   7.712  0.00  0.00    +0.000 A 
ATOM      4  C   UNL     1       6.869   1.836   8.776  0.00  0.00    +0.000 A 
ATOM      5  C   UNL     1       7.568   0.832   9.448  0.00  0.00    +0.000 A 
ATOM      6  F   UNL     1       8.376   1.212  10.450  0.00  0.00    +0.000 F 
ATOM      7  C   UNL     1       7.458  -0.524   9.096  0.00  0.00    +0.000 A 
ATOM      8  C   UNL     1       6.600  -0.821   8.019  0.00  0.00    +0.000 A 
BRANCH   7   9
ATOM      9  C   UNL     1       8.201  -1.590   9.804  0.00  0.00    +0.000 A 
ATOM     10  C   UNL     1       8.482  -1.526  11.176  0.00  0.00    +0.000 A 
ATOM     11  N   UNL     1       9.169  -2.461  11.886  0.00  0.00    +0.000 NA
ATOM     12  C   UNL     1       9.605  -3.536  11.197  0.00  0.00    +0.000 A 
ATOM     13  C   UNL     1       9.375  -3.712   9.847  0.00  0.00    +0.000 A 
ATOM     14  F   UNL     1       9.824  -4.803   9.215  0.00  0.00    +0.000 F 
ATOM     15  C   UNL     1       8.673  -2.738   9.146  0.00  0.00    +0.000 A 
ENDBRANCH   7   9
ENDBRANCH   1   2
BRANCH   1  16
ATOM     16  N   UNL     1       4.005  -1.162   6.601  0.00  0.00    +0.000 N 
ATOM     17  H   UNL     1       3.333  -0.735   7.234  0.00  0.00    +0.000 HD
BRANCH  16  21
ATOM     18  C   UNL     1       2.308  -4.117   4.218  0.00  0.00    +0.000 A 
ATOM     19  C   UNL     1       3.567  -3.652   3.871  0.00  0.00    +0.000 A 
ATOM     20  C   UNL     1       4.133  -2.634   4.639  0.00  0.00    +0.000 A 
ATOM     21  C   UNL     1       3.445  -2.088   5.725  0.00  0.00    +0.000 A 
ATOM     22  C   UNL     1       2.191  -2.656   5.991  0.00  0.00    +0.000 A 
ATOM     23  N   UNL     1       1.590  -3.634   5.265  0.00  0.00    +0.000 NA
BRANCH  18  25
ATOM     24  N   UNL     1       0.433  -5.599   3.793  0.00  0.00    +0.000 N 
ATOM     25  C   UNL     1       1.697  -5.228   3.426  0.00  0.00    +0.000 C 
ATOM     26  O   UNL     1       2.283  -5.779   2.500  0.00  0.00    +0.000 OA
ATOM     27  H   UNL     1      -0.033  -6.338   3.286  0.00  0.00    +0.000 HD
ATOM     28  H   UNL     1      -0.035  -5.109   4.547  0.00  0.00    +0.000 HD
ENDBRANCH  18  25
ENDBRANCH  16  21
ENDBRANCH   1  16
TORSDOF 5
