REMARK  Name = 
REMARK  6 active torsions:
REMARK  status: ('A' for Active; 'I' for Inactive)
REMARK    1  A    between atoms: C_2  and  C_25
REMARK    2  A    between atoms: N_3  and  C_4
REMARK    3  A    between atoms: C_4  and  C_5
REMARK    4  A    between atoms: C_8  and  C_9
REMARK    5  A    between atoms: C_9  and  N_10
REMARK    6  A    between atoms: C_11  and  C_13
REMARK                            x       y       z     vdW  Elec       q    Type
REMARK                         _______ _______ _______ _____ _____    ______ ____
ROOT
ATOM      1  C   UNL     1       3.300   2.302   2.856  0.00  0.00    +0.000 C 
ATOM      2  C   UNL     1       3.352   1.584   4.211  0.00  0.00    +0.000 C 
ATOM      3  C   UNL     1       4.205   2.328   5.235  0.00  0.00    +0.000 C 
ATOM      4  C   UNL     1       3.736   3.778   5.433  0.00  0.00    +0.000 C 
ATOM      5  C   UNL     1       3.698   4.505   4.080  0.00  0.00    +0.000 C 
ATOM      6  C   UNL     1       2.848   3.760   3.048  0.00  0.00    +0.000 C 
ENDROOT
BRANCH   1   7
ATOM      7  C   UNL     1       2.352   1.569   1.888  0.00  0.00    +0.000 C 
BRANCH   7  10
ATOM      8  O   UNL     1       4.095   0.787  -0.167  0.00  0.00    +0.000 OA
ATOM      9  C   UNL     1       3.632  -0.075   0.570  0.00  0.00    +0.000 C 
ATOM     10  N   UNL     1       2.769   0.206   1.606  0.00  0.00    +0.000 N 
ATOM     11  H   UNL     1       2.450  -0.569   2.173  0.00  0.00    +0.000 HD
BRANCH   9  12
ATOM     12  C   UNL     1       3.994  -1.511   0.369  0.00  0.00    +0.000 A 
ATOM     13  C   UNL     1       4.882  -1.832  -0.653  0.00  0.00    +0.000 A 
ATOM     14  C   UNL     1       5.173  -3.170  -0.883  0.00  0.00    +0.000 A 
ATOM     15  C   UNL     1       4.561  -4.137  -0.094  0.00  0.00    +0.000 A 
ATOM     16  C   UNL     1       3.697  -3.724   0.914  0.00  0.00    +0.000 A 
ATOM     17  N   UNL     1       3.400  -2.430   1.178  0.00  0.00    +0.000 NA
ENDBRANCH   9  12
ENDBRANCH   7  10
ENDBRANCH   1   7
BRANCH   4  18
ATOM     18  C   UNL     1       4.637   4.542   6.423  0.00  0.00    +0.000 C 
BRANCH  18  19
ATOM     19  N   UNL     1       4.663   3.940   7.739  0.00  0.00    +0.000 N 
ATOM     20  C   UNL     1       3.752   4.264   8.713  0.00  0.00    +0.000 C 
ATOM     21  O   UNL     1       2.850   5.077   8.527  0.00  0.00    +0.000 OA
ATOM     22  H   UNL     1       5.511   3.449   8.005  0.00  0.00    +0.000 HD
BRANCH  20  23
ATOM     23  C   UNL     1       3.875   3.542   9.982  0.00  0.00    +0.000 A 
ATOM     24  C   UNL     1       2.752   3.324  10.769  0.00  0.00    +0.000 A 
ATOM     25  S   UNL     1       3.085   2.461  12.203  0.00  0.00    +0.000 S 
ATOM     26  C   UNL     1       4.747   2.383  11.836  0.00  0.00    +0.000 A 
ATOM     27  N   UNL     1       5.628   1.788  12.686  0.00  0.00    +0.000 NA
ATOM     28  C   UNL     1       6.855   1.814  12.281  0.00  0.00    +0.000 A 
ATOM     29  N   UNL     1       7.280   2.374  11.104  0.00  0.00    +0.000 N 
ATOM     30  C   UNL     1       6.427   2.980  10.217  0.00  0.00    +0.000 A 
ATOM     31  O   UNL     1       6.838   3.449   9.157  0.00  0.00    +0.000 OA
ATOM     32  C   UNL     1       5.036   2.986  10.626  0.00  0.00    +0.000 A 
ATOM     33  H   UNL     1       8.255   2.352  10.840  0.00  0.00    +0.000 HD
ENDBRANCH  20  23
ENDBRANCH  18  19
ENDBRANCH   4  18
TORSDOF 6
