REMARK  Name = 
REMARK  9 active torsions:
REMARK  status: ('A' for Active; 'I' for Inactive)
REMARK    1  A    between atoms: C_1  and  C_2
REMARK    2  A    between atoms: C_2  and  N_3
REMARK    3  A    between atoms: C_2  and  C_19
REMARK    4  A    between atoms: N_3  and  C_4
REMARK    5  A    between atoms: C_7  and  C_8
REMARK    6  A    between atoms: C_8  and  O_9
REMARK    7  A    between atoms: C_8  and  C_10
REMARK    8  A    between atoms: C_10  and  N_11
REMARK    9  A    between atoms: N_14  and  C_15
REMARK                            x       y       z     vdW  Elec       q    Type
REMARK                         _______ _______ _______ _____ _____    ______ ____
ROOT
ATOM      1  C   UNL     1       4.581   6.368   5.105  0.00  0.00    +0.000 A 
ATOM      2  C   UNL     1       4.739   5.011   5.401  0.00  0.00    +0.000 A 
ATOM      3  C   UNL     1       3.655   4.132   5.377  0.00  0.00    +0.000 A 
ATOM      4  C   UNL     1       2.357   4.593   5.115  0.00  0.00    +0.000 A 
ATOM      5  C   UNL     1       2.194   5.950   4.810  0.00  0.00    +0.000 A 
ATOM      6  C   UNL     1       3.293   6.829   4.824  0.00  0.00    +0.000 A 
ENDROOT
BRANCH   1   7
ATOM      7  N   UNL     1       5.703   7.185   5.251  0.00  0.00    +0.000 N 
ATOM      8  H   UNL     1       5.828   7.381   6.245  0.00  0.00    +0.000 HD
BRANCH   7  10
ATOM      9  C   UNL     1       5.861   8.121   2.974  0.00  0.00    +0.000 C 
ATOM     10  C   UNL     1       5.861   8.432   4.480  0.00  0.00    +0.000 C 
BRANCH  10  11
ATOM     11  C   UNL     1       7.154   9.160   4.825  0.00  0.00    +0.000 A 
ATOM     12  C   UNL     1       8.329   8.524   5.193  0.00  0.00    +0.000 A 
ATOM     13  S   UNL     1       9.625   9.602   5.458  0.00  0.00    +0.000 S 
ATOM     14  C   UNL     1       8.660  10.951   5.077  0.00  0.00    +0.000 A 
ATOM     15  N   UNL     1       9.170  12.212   5.084  0.00  0.00    +0.000 NA
ATOM     16  C   UNL     1       8.321  13.131   4.759  0.00  0.00    +0.000 A 
ATOM     17  N   UNL     1       7.009  12.906   4.435  0.00  0.00    +0.000 N 
ATOM     18  C   UNL     1       6.444  11.647   4.410  0.00  0.00    +0.000 A 
ATOM     19  O   UNL     1       5.273  11.471   4.099  0.00  0.00    +0.000 OA
ATOM     20  C   UNL     1       7.364  10.584   4.766  0.00  0.00    +0.000 A 
ATOM     21  H   UNL     1       6.398  13.671   4.189  0.00  0.00    +0.000 HD
ENDBRANCH  10  11
ENDBRANCH   7  10
ENDBRANCH   1   7
BRANCH   4  22
ATOM     22  C   UNL     1       1.219   3.586   5.197  0.00  0.00    +0.000 C 
BRANCH  22  23
ATOM     23  O   UNL     1       1.129   2.864   3.968  0.00  0.00    +0.000 OA
ATOM     24  H   UNL     1       1.462   3.440   3.260  0.00  0.00    +0.000 HD
ENDBRANCH  22  23
BRANCH  22  25
ATOM     25  C   UNL     1      -0.169   4.176   5.579  0.00  0.00    +0.000 C 
BRANCH  25  26
ATOM     26  N   UNL     1      -1.230   3.183   5.845  0.00  0.00    +0.000 NA
ATOM     27  C   UNL     1      -2.487   3.805   6.263  0.00  0.00    +0.000 C 
ATOM     28  C   UNL     1      -3.012   2.944   7.408  0.00  0.00    +0.000 C 
ATOM     29  N   UNL     1      -2.144   1.763   7.478  0.00  0.00    +0.000 NA
ATOM     30  C   UNL     1      -2.722   0.633   6.756  0.00  0.00    +0.000 C 
ATOM     31  C   UNL     1      -0.889   2.203   6.866  0.00  0.00    +0.000 C 
ENDBRANCH  25  26
ENDBRANCH  22  25
ENDBRANCH   4  22
TORSDOF 7
