REMARK  Name = 
REMARK  10 active torsions:
REMARK  status: ('A' for Active; 'I' for Inactive)
REMARK    1  A    between atoms: C_1  and  O_2
REMARK    2  A    between atoms: O_2  and  C_3
REMARK    3  A    between atoms: C_3  and  C_4
REMARK    4  A    between atoms: C_4  and  N_5
REMARK    5  A    between atoms: N_5  and  C_6
REMARK    6  A    between atoms: C_6  and  C_7
REMARK    7  A    between atoms: C_10  and  C_11
REMARK    8  A    between atoms: C_11  and  O_12
REMARK    9  A    between atoms: C_11  and  C_13
REMARK   10  A    between atoms: C_21  and  C_23
REMARK                            x       y       z     vdW  Elec       q    Type
REMARK                         _______ _______ _______ _____ _____    ______ ____
ROOT
ATOM      1  N   UNL     1       4.877   1.760  -1.981  0.00  0.00    +0.000 N 
ATOM      2  C   UNL     1       6.255   1.887  -2.275  0.00  0.00    +0.000 C 
ATOM      3  O   UNL     1       7.101   1.400  -1.527  0.00  0.00    +0.000 OA
ENDROOT
BRANCH   2   4
ATOM      4  C   UNL     1       6.715   2.646  -3.457  0.00  0.00    +0.000 A 
ATOM      5  C   UNL     1       6.229   3.874  -3.882  0.00  0.00    +0.000 A 
ATOM      6  S   UNL     1       7.038   4.508  -5.246  0.00  0.00    +0.000 S 
ATOM      7  C   UNL     1       8.183   3.258  -5.203  0.00  0.00    +0.000 A 
ATOM      8  N   UNL     1       9.259   3.270  -6.031  0.00  0.00    +0.000 NA
ATOM      9  C   UNL     1      10.091   2.302  -5.832  0.00  0.00    +0.000 A 
ATOM     10  N   UNL     1       9.915   1.299  -4.911  0.00  0.00    +0.000 N 
ATOM     11  C   UNL     1       8.769   1.159  -4.167  0.00  0.00    +0.000 A 
ATOM     12  O   UNL     1       8.524   0.121  -3.566  0.00  0.00    +0.000 OA
ATOM     13  C   UNL     1       7.877   2.304  -4.251  0.00  0.00    +0.000 A 
ATOM     14  H   UNL     1      10.566   0.527  -4.860  0.00  0.00    +0.000 HD
ENDBRANCH   2   4
BRANCH   1  15
ATOM     15  C   UNL     1       4.530   1.061  -0.732  0.00  0.00    +0.000 C 
BRANCH  15  16
ATOM     16  C   UNL     1       4.987   1.793   0.543  0.00  0.00    +0.000 C 
BRANCH  16  18
ATOM     17  C   UNL     1       5.211   1.609   2.879  0.00  0.00    +0.000 C 
ATOM     18  O   UNL     1       4.670   1.015   1.702  0.00  0.00    +0.000 OA
ENDBRANCH  16  18
ENDBRANCH  15  16
ENDBRANCH   1  15
BRANCH   1  19
ATOM     19  C   UNL     1       3.852   2.354  -2.829  0.00  0.00    +0.000 C 
BRANCH  19  20
ATOM     20  C   UNL     1       2.378   2.089  -2.656  0.00  0.00    +0.000 A 
ATOM     21  C   UNL     1       1.578   3.049  -2.014  0.00  0.00    +0.000 A 
ATOM     22  C   UNL     1       0.188   3.021  -2.146  0.00  0.00    +0.000 A 
ATOM     23  C   UNL     1      -0.435   2.020  -2.901  0.00  0.00    +0.000 A 
ATOM     24  C   UNL     1       0.363   1.001  -3.453  0.00  0.00    +0.000 A 
ATOM     25  C   UNL     1       1.756   1.034  -3.331  0.00  0.00    +0.000 A 
BRANCH  23  26
ATOM     26  C   UNL     1      -1.941   2.067  -3.130  0.00  0.00    +0.000 C 
BRANCH  26  27
ATOM     27  C   UNL     1      -2.701   0.845  -2.644  0.00  0.00    +0.000 A 
ATOM     28  C   UNL     1      -2.295   0.154  -1.489  0.00  0.00    +0.000 A 
ATOM     29  C   UNL     1      -2.946  -1.011  -1.087  0.00  0.00    +0.000 A 
ATOM     30  C   UNL     1      -4.040  -1.482  -1.806  0.00  0.00    +0.000 A 
ATOM     31  C   UNL     1      -4.504  -0.770  -2.910  0.00  0.00    +0.000 A 
ATOM     32  C   UNL     1      -3.845   0.389  -3.321  0.00  0.00    +0.000 A 
ENDBRANCH  26  27
BRANCH  26  33
ATOM     33  O   UNL     1      -2.191   2.265  -4.529  0.00  0.00    +0.000 OA
ATOM     34  H   UNL     1      -1.412   1.950  -5.015  0.00  0.00    +0.000 HD
ENDBRANCH  26  33
ENDBRANCH  23  26
ENDBRANCH  19  20
ENDBRANCH   1  19
TORSDOF 9
