REMARK  Name = 
REMARK  6 active torsions:
REMARK  status: ('A' for Active; 'I' for Inactive)
REMARK    1  A    between atoms: C_1  and  C_2
REMARK    2  A    between atoms: C_4  and  C_5
REMARK    3  A    between atoms: C_10  and  O_11
REMARK    4  A    between atoms: O_11  and  C_12
REMARK    5  A    between atoms: C_12  and  C_13
REMARK    6  A    between atoms: C_12  and  C_14
REMARK                            x       y       z     vdW  Elec       q    Type
REMARK                         _______ _______ _______ _____ _____    ______ ____
ROOT
ATOM      1  C   UNL     1       2.452   0.231  -0.328  0.00  0.00    +0.000 C 
ATOM      2  C   UNL     1       0.956   0.125  -0.164  0.00  0.00    +0.000 A 
ATOM      3  C   UNL     1       0.203   1.316  -0.132  0.00  0.00    +0.000 A 
ATOM      4  C   UNL     1      -1.196   1.293  -0.042  0.00  0.00    +0.000 A 
ATOM      5  C   UNL     1      -1.845   0.062  -0.045  0.00  0.00    +0.000 A 
ATOM      6  C   UNL     1      -1.107  -1.120  -0.081  0.00  0.00    +0.000 A 
ATOM      7  C   UNL     1       0.292  -1.111  -0.059  0.00  0.00    +0.000 A 
ENDROOT
BRANCH   4   8
ATOM      8  C   UNL     1      -1.925   2.589   0.033  0.00  0.00    +0.000 C 
ATOM      9  N   UNL     1      -3.289   2.571   0.122  0.00  0.00    +0.000 N 
ATOM     10  O   UNL     1      -1.330   3.661   0.020  0.00  0.00    +0.000 OA
ATOM     11  H   UNL     1      -3.867   1.748   0.160  0.00  0.00    +0.000 HD
ATOM     12  H   UNL     1      -3.746   3.472   0.177  0.00  0.00    +0.000 HD
ENDBRANCH   4   8
BRANCH   7  13
ATOM     13  O   UNL     1       1.050  -2.256   0.053  0.00  0.00    +0.000 OA
BRANCH  13  14
ATOM     14  C   UNL     1       0.409  -3.371   0.712  0.00  0.00    +0.000 C 
ATOM     15  C   UNL     1       0.061  -4.458  -0.309  0.00  0.00    +0.000 C 
BRANCH  14  16
ATOM     16  C   UNL     1       1.255  -3.964   1.817  0.00  0.00    +0.000 A 
ATOM     17  C   UNL     1       0.637  -4.529   2.943  0.00  0.00    +0.000 A 
ATOM     18  C   UNL     1       1.403  -5.146   3.925  0.00  0.00    +0.000 A 
ATOM     19  C   UNL     1       2.772  -5.181   3.748  0.00  0.00    +0.000 A 
ATOM     20  N   UNL     1       3.409  -4.646   2.682  0.00  0.00    +0.000 NA
ATOM     21  C   UNL     1       2.638  -4.049   1.741  0.00  0.00    +0.000 A 
ENDBRANCH  14  16
ENDBRANCH  13  14
ENDBRANCH   7  13
TORSDOF 4
