REMARK  Name = 
REMARK  10 active torsions:
REMARK  status: ('A' for Active; 'I' for Inactive)
REMARK    1  A    between atoms: C_1  and  O_2
REMARK    2  A    between atoms: O_2  and  C_3
REMARK    3  A    between atoms: C_10  and  C_11
REMARK    4  A    between atoms: N_13  and  C_14
REMARK    5  A    between atoms: C_14  and  C_15
REMARK    6  A    between atoms: C_18  and  C_19
REMARK    7  A    between atoms: C_19  and  N_20
REMARK    8  A    between atoms: N_20  and  C_21
REMARK    9  A    between atoms: N_20  and  C_22
REMARK   10  A    between atoms: C_22  and  C_23
REMARK                            x       y       z     vdW  Elec       q    Type
REMARK                         _______ _______ _______ _____ _____    ______ ____
ROOT
ATOM      1  C   UNL     1       3.082  -0.771   3.212  0.00  0.00    +0.000 C 
ENDROOT
BRANCH   1   2
ATOM      2  C   UNL     1       1.938   0.208   3.282  0.00  0.00    +0.000 A 
ATOM      3  C   UNL     1       0.614  -0.246   3.343  0.00  0.00    +0.000 A 
ATOM      4  C   UNL     1      -0.446   0.663   3.409  0.00  0.00    +0.000 A 
ATOM      5  C   UNL     1      -0.199   2.042   3.432  0.00  0.00    +0.000 A 
ATOM      6  C   UNL     1       1.121   2.496   3.307  0.00  0.00    +0.000 A 
ATOM      7  C   UNL     1       2.178   1.587   3.224  0.00  0.00    +0.000 A 
BRANCH   5   8
ATOM      8  C   UNL     1      -1.332   3.032   3.614  0.00  0.00    +0.000 C 
BRANCH   8   9
ATOM      9  N   UNL     1      -2.096   2.827   4.864  0.00  0.00    +0.000 NA
ATOM     10  C   UNL     1      -1.236   3.006   6.045  0.00  0.00    +0.000 C 
BRANCH   9  11
ATOM     11  C   UNL     1      -3.231   3.768   4.943  0.00  0.00    +0.000 C 
BRANCH  11  12
ATOM     12  C   UNL     1      -4.259   3.596   3.854  0.00  0.00    +0.000 A 
ATOM     13  C   UNL     1      -4.951   2.396   3.666  0.00  0.00    +0.000 A 
ATOM     14  C   UNL     1      -5.939   2.315   2.687  0.00  0.00    +0.000 A 
ATOM     15  C   UNL     1      -6.193   3.436   1.915  0.00  0.00    +0.000 A 
ATOM     16  N   UNL     1      -5.525   4.602   2.042  0.00  0.00    +0.000 NA
ATOM     17  C   UNL     1      -4.578   4.654   3.006  0.00  0.00    +0.000 A 
ENDBRANCH  11  12
ENDBRANCH   9  11
ENDBRANCH   8   9
ENDBRANCH   5   8
ENDBRANCH   1   2
BRANCH   1  20
ATOM     18  C   UNL     1       4.365  -1.961   1.476  0.00  0.00    +0.000 C 
ATOM     19  O   UNL     1       5.040  -2.554   2.312  0.00  0.00    +0.000 OA
ATOM     20  N   UNL     1       3.391  -1.074   1.843  0.00  0.00    +0.000 N 
ATOM     21  H   UNL     1       2.888  -0.560   1.136  0.00  0.00    +0.000 HD
BRANCH  18  29
ATOM     22  C   UNL     1       2.787  -0.724  -1.327  0.00  0.00    +0.000 A 
ATOM     23  N   UNL     1       2.364  -0.404  -2.565  0.00  0.00    +0.000 NA
ATOM     24  C   UNL     1       2.980  -0.967  -3.606  0.00  0.00    +0.000 A 
ATOM     25  N   UNL     1       3.990  -1.830  -3.566  0.00  0.00    +0.000 NA
ATOM     26  C   UNL     1       4.388  -2.118  -2.313  0.00  0.00    +0.000 A 
ATOM     27  S   UNL     1       5.672  -3.201  -2.073  0.00  0.00    +0.000 S 
ATOM     28  C   UNL     1       5.562  -3.037  -0.386  0.00  0.00    +0.000 A 
ATOM     29  C   UNL     1       4.560  -2.169   0.031  0.00  0.00    +0.000 A 
ATOM     30  C   UNL     1       3.858  -1.615  -1.129  0.00  0.00    +0.000 A 
BRANCH  22  32
ATOM     31  C   UNL     1       0.829   0.288  -0.555  0.00  0.00    +0.000 C 
ATOM     32  O   UNL     1       2.168  -0.108  -0.260  0.00  0.00    +0.000 OA
ENDBRANCH  22  32
ENDBRANCH  18  29
ENDBRANCH   1  20
TORSDOF 8
