REMARK  Name = 
REMARK  7 active torsions:
REMARK  status: ('A' for Active; 'I' for Inactive)
REMARK    1  A    between atoms: C_1  and  O_2
REMARK    2  A    between atoms: O_2  and  C_3
REMARK    3  A    between atoms: C_6  and  C_7
REMARK    4  A    between atoms: C_11  and  C_12
REMARK    5  A    between atoms: C_12  and  O_13
REMARK    6  A    between atoms: O_13  and  C_14
REMARK    7  A    between atoms: C_17  and  C_18
REMARK                            x       y       z     vdW  Elec       q    Type
REMARK                         _______ _______ _______ _____ _____    ______ ____
ROOT
ATOM      1  C   UNL     1       5.144  -3.389  -3.531  0.00  0.00    +0.000 A 
ATOM      2  C   UNL     1       5.827  -2.957  -4.666  0.00  0.00    +0.000 A 
ATOM      3  C   UNL     1       6.403  -3.900  -5.513  0.00  0.00    +0.000 A 
ATOM      4  C   UNL     1       6.292  -5.252  -5.210  0.00  0.00    +0.000 A 
ATOM      5  C   UNL     1       5.591  -5.623  -4.068  0.00  0.00    +0.000 A 
ATOM      6  N   UNL     1       5.023  -4.711  -3.240  0.00  0.00    +0.000 NA
ENDROOT
BRANCH   1  10
ATOM      7  C   UNL     1       3.180  -0.760  -0.728  0.00  0.00    +0.000 A 
ATOM      8  C   UNL     1       2.713  -2.054  -0.936  0.00  0.00    +0.000 A 
ATOM      9  C   UNL     1       3.360  -2.893  -1.849  0.00  0.00    +0.000 A 
ATOM     10  C   UNL     1       4.481  -2.467  -2.585  0.00  0.00    +0.000 A 
ATOM     11  C   UNL     1       4.921  -1.149  -2.373  0.00  0.00    +0.000 A 
ATOM     12  C   UNL     1       4.272  -0.304  -1.465  0.00  0.00    +0.000 A 
BRANCH   7  14
ATOM     13  C   UNL     1       1.970  -0.419   1.266  0.00  0.00    +0.000 C 
ATOM     14  O   UNL     1       2.629   0.146   0.135  0.00  0.00    +0.000 OA
ENDBRANCH   7  14
ENDBRANCH   1  10
BRANCH   5  15
ATOM     15  C   UNL     1       5.408  -7.083  -3.716  0.00  0.00    +0.000 C 
BRANCH  15  16
ATOM     16  O   UNL     1       6.533  -7.557  -2.969  0.00  0.00    +0.000 OA
BRANCH  16  17
ATOM     17  C   UNL     1       6.506  -8.872  -2.599  0.00  0.00    +0.000 A 
ATOM     18  C   UNL     1       5.489  -9.786  -2.867  0.00  0.00    +0.000 A 
ATOM     19  C   UNL     1       5.623 -11.111  -2.449  0.00  0.00    +0.000 A 
ATOM     20  C   UNL     1       6.777 -11.481  -1.769  0.00  0.00    +0.000 A 
ATOM     21  N   UNL     1       7.790 -10.617  -1.469  0.00  0.00    +0.000 NA
ATOM     22  C   UNL     1       7.616  -9.338  -1.894  0.00  0.00    +0.000 A 
BRANCH  20  23
ATOM     23  C   UNL     1       6.956 -12.908  -1.333  0.00  0.00    +0.000 C 
ATOM     24  N   UNL     1       8.126 -13.177  -0.679  0.00  0.00    +0.000 N 
ATOM     25  O   UNL     1       6.117 -13.769  -1.551  0.00  0.00    +0.000 OA
ATOM     26  H   UNL     1       8.793 -12.429  -0.525  0.00  0.00    +0.000 HD
ATOM     27  H   UNL     1       8.316 -14.117  -0.365  0.00  0.00    +0.000 HD
ENDBRANCH  20  23
ENDBRANCH  16  17
ENDBRANCH  15  16
ENDBRANCH   5  15
TORSDOF 6
