REMARK  Name = 
REMARK  7 active torsions:
REMARK  status: ('A' for Active; 'I' for Inactive)
REMARK    1  A    between atoms: C_1  and  C_2
REMARK    2  A    between atoms: C_2  and  C_3
REMARK    3  A    between atoms: C_7  and  C_8
REMARK    4  A    between atoms: C_8  and  C_9
REMARK    5  A    between atoms: C_9  and  N_10
REMARK    6  A    between atoms: C_14  and  C_15
REMARK    7  A    between atoms: C_23  and  O_24
REMARK                            x       y       z     vdW  Elec       q    Type
REMARK                         _______ _______ _______ _____ _____    ______ ____
ROOT
ATOM      1  C   UNL     1       3.019   0.326   1.446  0.00  0.00    +0.000 A 
ATOM      2  C   UNL     1       2.769   1.598   1.983  0.00  0.00    +0.000 A 
ATOM      3  C   UNL     1       3.086   1.896   3.312  0.00  0.00    +0.000 A 
ATOM      4  C   UNL     1       3.646   0.923   4.142  0.00  0.00    +0.000 A 
ATOM      5  C   UNL     1       3.915  -0.354   3.645  0.00  0.00    +0.000 A 
ATOM      6  C   UNL     1       3.626  -0.611   2.293  0.00  0.00    +0.000 A 
ENDROOT
BRANCH   1   8
ATOM      7  C   UNL     1       0.998   0.039   0.044  0.00  0.00    +0.000 C 
ATOM      8  C   UNL     1       2.544  -0.062   0.027  0.00  0.00    +0.000 C 
ATOM      9  C   UNL     1       3.152   0.904  -1.024  0.00  0.00    +0.000 C 
ATOM     10  C   UNL     1       2.798   0.537  -2.467  0.00  0.00    +0.000 C 
ATOM     11  C   UNL     1       3.167  -0.904  -2.806  0.00  0.00    +0.000 C 
ATOM     12  C   UNL     1       2.577  -1.893  -1.809  0.00  0.00    +0.000 C 
ATOM     13  C   UNL     1       2.942  -1.518  -0.377  0.00  0.00    +0.000 C 
BRANCH  11  14
ATOM     14  O   UNL     1       2.705  -1.223  -4.114  0.00  0.00    +0.000 OA
ATOM     15  H   UNL     1       1.733  -1.189  -4.106  0.00  0.00    +0.000 HD
ENDBRANCH  11  14
ENDBRANCH   1   8
BRANCH   5  16
ATOM     16  C   UNL     1       4.444  -1.441   4.571  0.00  0.00    +0.000 C 
BRANCH  16  17
ATOM     17  C   UNL     1       4.673  -2.786   3.869  0.00  0.00    +0.000 C 
BRANCH  17  18
ATOM     18  N   UNL     1       5.135  -3.846   4.766  0.00  0.00    +0.000 N 
ATOM     19  C   UNL     1       5.319  -5.057   4.055  0.00  0.00    +0.000 A 
ATOM     20  C   UNL     1       5.756  -6.180   4.748  0.00  0.00    +0.000 A 
ATOM     21  C   UNL     1       5.941  -7.382   4.057  0.00  0.00    +0.000 A 
ATOM     22  C   UNL     1       5.685  -7.446   2.687  0.00  0.00    +0.000 A 
ATOM     23  C   UNL     1       5.267  -6.279   2.075  0.00  0.00    +0.000 A 
ATOM     24  N   UNL     1       5.088  -5.104   2.725  0.00  0.00    +0.000 NA
ATOM     25  H   UNL     1       4.475  -4.022   5.520  0.00  0.00    +0.000 HD
BRANCH  22  26
ATOM     26  C   UNL     1       5.857  -8.728   1.964  0.00  0.00    +0.000 C 
ATOM     27  N   UNL     1       5.588  -8.783   0.623  0.00  0.00    +0.000 N 
ATOM     28  O   UNL     1       6.230  -9.739   2.552  0.00  0.00    +0.000 OA
ATOM     29  H   UNL     1       5.273  -8.021   0.044  0.00  0.00    +0.000 HD
ATOM     30  H   UNL     1       5.713  -9.682   0.177  0.00  0.00    +0.000 HD
ENDBRANCH  22  26
ENDBRANCH  17  18
ENDBRANCH  16  17
ENDBRANCH   5  16
TORSDOF 6
