REMARK  Name = 
REMARK  4 active torsions:
REMARK  status: ('A' for Active; 'I' for Inactive)
REMARK    1  A    between atoms: C_1  and  C_2
REMARK    2  A    between atoms: C_2  and  N_3
REMARK    3  A    between atoms: C_2  and  C_13
REMARK    4  A    between atoms: C_7  and  C_8
REMARK                            x       y       z     vdW  Elec       q    Type
REMARK                         _______ _______ _______ _____ _____    ______ ____
ROOT
ATOM      1  N   UNL     1       2.717  -0.489   1.339  0.00  0.00    +0.000 N 
ATOM      2  C   UNL     1       2.343   0.329   2.419  0.00  0.00    +0.000 A 
ATOM      3  C   UNL     1       2.089  -0.261   3.667  0.00  0.00    +0.000 A 
ATOM      4  N   UNL     1       1.706   0.424   4.777  0.00  0.00    +0.000 NA
ATOM      5  C   UNL     1       1.620   1.769   4.595  0.00  0.00    +0.000 A 
ATOM      6  C   UNL     1       1.921   2.375   3.386  0.00  0.00    +0.000 A 
ATOM      7  N   UNL     1       2.285   1.669   2.281  0.00  0.00    +0.000 NA
ATOM      8  H   UNL     1       3.709  -0.682   1.465  0.00  0.00    +0.000 HD
ENDROOT
BRANCH   5   9
ATOM      9  C   UNL     1       1.155   2.599   5.742  0.00  0.00    +0.000 C 
ATOM     10  N   UNL     1       0.769   1.918   6.867  0.00  0.00    +0.000 N 
ATOM     11  O   UNL     1       1.096   3.818   5.681  0.00  0.00    +0.000 OA
ATOM     12  H   UNL     1       0.793   0.905   6.882  0.00  0.00    +0.000 HD
ATOM     13  H   UNL     1       0.412   2.430   7.659  0.00  0.00    +0.000 HD
ENDBRANCH   5   9
BRANCH   1  15
ATOM     14  C   UNL     1       0.924   0.226  -0.207  0.00  0.00    +0.000 C 
ATOM     15  C   UNL     1       2.439   0.030  -0.013  0.00  0.00    +0.000 C 
BRANCH  15  16
ATOM     16  C   UNL     1       2.971  -0.963  -1.096  0.00  0.00    +0.000 C 
ATOM     17  C   UNL     1       2.318  -2.358  -1.015  0.00  0.00    +0.000 C 
ATOM     18  C   UNL     1       2.831  -3.295  -2.106  0.00  0.00    +0.000 C 
ATOM     19  C   UNL     1       4.349  -3.406  -2.075  0.00  0.00    +0.000 C 
ATOM     20  C   UNL     1       5.004  -2.033  -2.185  0.00  0.00    +0.000 C 
ATOM     21  C   UNL     1       4.508  -1.081  -1.095  0.00  0.00    +0.000 C 
ENDBRANCH  15  16
ENDBRANCH   1  15
TORSDOF 3
