REMARK  Name = 
REMARK  4 active torsions:
REMARK  status: ('A' for Active; 'I' for Inactive)
REMARK    1  A    between atoms: C_4  and  C_5
REMARK    2  A    between atoms: C_5  and  N_6
REMARK    3  A    between atoms: C_11  and  C_12
REMARK    4  A    between atoms: C_18  and  C_19
REMARK                            x       y       z     vdW  Elec       q    Type
REMARK                         _______ _______ _______ _____ _____    ______ ____
ROOT
ATOM      1  F   UNL     1       2.202  -0.087   0.038  0.00  0.00    +0.000 F 
ATOM      2  C   UNL     1       0.863  -0.040   0.027  0.00  0.00    +0.000 A 
ATOM      3  C   UNL     1       0.222   1.190   0.047  0.00  0.00    +0.000 A 
ATOM      4  C   UNL     1      -1.176   1.245   0.067  0.00  0.00    +0.000 A 
ATOM      5  C   UNL     1      -1.901   0.038   0.026  0.00  0.00    +0.000 A 
ATOM      6  C   UNL     1      -1.261  -1.221  -0.012  0.00  0.00    +0.000 A 
ATOM      7  C   UNL     1       0.144  -1.231   0.005  0.00  0.00    +0.000 A 
ENDROOT
BRANCH   6   8
ATOM      8  C   UNL     1      -2.044  -2.473  -0.052  0.00  0.00    +0.000 A 
ATOM      9  C   UNL     1      -1.591  -3.647  -0.657  0.00  0.00    +0.000 A 
ATOM     10  N   UNL     1      -2.295  -4.807  -0.674  0.00  0.00    +0.000 NA
ATOM     11  C   UNL     1      -3.495  -4.757  -0.059  0.00  0.00    +0.000 A 
ATOM     12  C   UNL     1      -3.969  -3.601   0.535  0.00  0.00    +0.000 A 
ATOM     13  N   UNL     1      -3.267  -2.443   0.546  0.00  0.00    +0.000 NA
ENDBRANCH   6   8
BRANCH   4  14
ATOM     14  C   UNL     1      -1.884   2.582   0.109  0.00  0.00    +0.000 C 
BRANCH  14  15
ATOM     15  N   UNL     1      -2.106   3.047  -1.242  0.00  0.00    +0.000 N 
ATOM     16  C   UNL     1      -2.740   4.273  -1.344  0.00  0.00    +0.000 A 
ATOM     17  N   UNL     1      -3.538   4.428  -2.405  0.00  0.00    +0.000 NA
ATOM     18  C   UNL     1      -4.129   5.626  -2.563  0.00  0.00    +0.000 A 
ATOM     19  C   UNL     1      -3.958   6.675  -1.696  0.00  0.00    +0.000 A 
ATOM     20  C   UNL     1      -3.128   6.437  -0.617  0.00  0.00    +0.000 A 
ATOM     21  N   UNL     1      -2.526   5.230  -0.433  0.00  0.00    +0.000 NA
ATOM     22  H   UNL     1      -2.608   2.406  -1.845  0.00  0.00    +0.000 HD
BRANCH  20  23
ATOM     23  C   UNL     1      -2.869   7.542   0.394  0.00  0.00    +0.000 C 
ATOM     24  F   UNL     1      -3.487   8.718   0.072  0.00  0.00    +0.000 F 
ATOM     25  F   UNL     1      -3.312   7.234   1.646  0.00  0.00    +0.000 F 
ATOM     26  F   UNL     1      -1.548   7.852   0.524  0.00  0.00    +0.000 F 
ENDBRANCH  20  23
ENDBRANCH  14  15
ENDBRANCH   4  14
TORSDOF 4
