REMARK  Name = 
REMARK  7 active torsions:
REMARK  status: ('A' for Active; 'I' for Inactive)
REMARK    1  A    between atoms: C_1  and  C_2
REMARK    2  A    between atoms: C_2  and  C_3
REMARK    3  A    between atoms: C_2  and  C_4
REMARK    4  A    between atoms: C_2  and  C_5
REMARK    5  A    between atoms: C_7  and  C_8
REMARK    6  A    between atoms: C_8  and  N_9
REMARK    7  A    between atoms: C_11  and  C_12
REMARK                            x       y       z     vdW  Elec       q    Type
REMARK                         _______ _______ _______ _____ _____    ______ ____
ROOT
ATOM      1  N   UNL     1       4.044   5.510  -0.645  0.00  0.00    +0.000 N 
ATOM      2  C   UNL     1       4.974   6.052  -1.491  0.00  0.00    +0.000 A 
ATOM      3  C   UNL     1       6.231   5.783  -0.968  0.00  0.00    +0.000 A 
ATOM      4  C   UNL     1       6.016   5.276   0.361  0.00  0.00    +0.000 A 
ATOM      5  C   UNL     1       6.816   4.791   1.414  0.00  0.00    +0.000 A 
ATOM      6  C   UNL     1       6.185   4.354   2.580  0.00  0.00    +0.000 A 
ATOM      7  C   UNL     1       4.802   4.394   2.652  0.00  0.00    +0.000 A 
ATOM      8  N   UNL     1       3.978   4.792   1.659  0.00  0.00    +0.000 NA
ATOM      9  C   UNL     1       4.635   5.206   0.555  0.00  0.00    +0.000 A 
ENDROOT
BRANCH   3  10
ATOM     10  C   UNL     1       7.440   5.949  -1.757  0.00  0.00    +0.000 C 
ATOM     11  N   UNL     1       8.606   6.059  -1.066  0.00  0.00    +0.000 N 
ATOM     12  O   UNL     1       7.439   6.010  -2.983  0.00  0.00    +0.000 OA
ATOM     13  H   UNL     1       8.605   6.304  -0.088  0.00  0.00    +0.000 HD
ATOM     14  H   UNL     1       9.422   6.281  -1.620  0.00  0.00    +0.000 HD
ENDBRANCH   3  10
BRANCH   1  15
ATOM     15  C   UNL     1       2.755   4.994  -1.082  0.00  0.00    +0.000 C 
BRANCH  15  18
ATOM     16  C   UNL     1       2.818   1.189  -0.884  0.00  0.00    +0.000 A 
ATOM     17  C   UNL     1       2.573   2.528  -0.564  0.00  0.00    +0.000 A 
ATOM     18  C   UNL     1       2.918   3.539  -1.468  0.00  0.00    +0.000 A 
ATOM     19  C   UNL     1       3.523   3.170  -2.671  0.00  0.00    +0.000 A 
ATOM     20  C   UNL     1       3.745   1.826  -2.913  0.00  0.00    +0.000 A 
ATOM     21  N   UNL     1       3.399   0.840  -2.058  0.00  0.00    +0.000 NA
BRANCH  16  23
ATOM     22  C   UNL     1       0.880   0.098   0.261  0.00  0.00    +0.000 C 
ATOM     23  C   UNL     1       2.409   0.067   0.076  0.00  0.00    +0.000 C 
ATOM     24  C   UNL     1       3.104   0.238   1.440  0.00  0.00    +0.000 C 
ATOM     25  C   UNL     1       2.794  -1.321  -0.473  0.00  0.00    +0.000 C 
ENDBRANCH  16  23
ENDBRANCH  15  18
ENDBRANCH   1  15
TORSDOF 4
