REMARK  Name = 
REMARK  5 active torsions:
REMARK  status: ('A' for Active; 'I' for Inactive)
REMARK    1  A    between atoms: C_2  and  C_3
REMARK    2  A    between atoms: C_6  and  N_7
REMARK    3  A    between atoms: N_7  and  C_8
REMARK    4  A    between atoms: C_8  and  C_9
REMARK    5  A    between atoms: C_13  and  C_14
REMARK                            x       y       z     vdW  Elec       q    Type
REMARK                         _______ _______ _______ _____ _____    ______ ____
ROOT
ATOM      1  C   UNL     1       8.682  -1.007  -0.003  0.00  0.00    +0.000 C 
ATOM      2  C   UNL     1       8.886  -1.621  -1.382  0.00  0.00    +0.000 C 
ATOM      3  C   UNL     1       8.945  -2.486  -0.166  0.00  0.00    +0.000 C 
ENDROOT
BRANCH   1   4
ATOM      4  C   UNL     1       9.766  -0.125   0.595  0.00  0.00    +0.000 A 
ATOM      5  C   UNL     1      10.350  -0.398   1.840  0.00  0.00    +0.000 A 
ATOM      6  C   UNL     1      11.178   0.535   2.464  0.00  0.00    +0.000 A 
ATOM      7  C   UNL     1      11.422   1.768   1.857  0.00  0.00    +0.000 A 
ATOM      8  C   UNL     1      10.868   2.087   0.607  0.00  0.00    +0.000 A 
ATOM      9  C   UNL     1      10.085   1.102  -0.019  0.00  0.00    +0.000 A 
BRANCH   8  10
ATOM     10  C   UNL     1      11.000   3.435   0.011  0.00  0.00    +0.000 A 
ATOM     11  C   UNL     1      11.072   3.630  -1.381  0.00  0.00    +0.000 A 
ATOM     12  C   UNL     1      11.129   4.913  -1.935  0.00  0.00    +0.000 A 
ATOM     13  C   UNL     1      11.128   6.031  -1.107  0.00  0.00    +0.000 A 
ATOM     14  C   UNL     1      11.059   5.868   0.272  0.00  0.00    +0.000 A 
ATOM     15  C   UNL     1      10.988   4.585   0.821  0.00  0.00    +0.000 A 
ENDBRANCH   8  10
ENDBRANCH   1   4
BRANCH   1  16
ATOM     16  N   UNL     1       7.341  -0.408   0.137  0.00  0.00    +0.000 N 
ATOM     17  H   UNL     1       7.277   0.514  -0.291  0.00  0.00    +0.000 HD
BRANCH  16  21
ATOM     18  C   UNL     1       4.717  -0.691   3.303  0.00  0.00    +0.000 A 
ATOM     19  N   UNL     1       5.826  -1.451   3.383  0.00  0.00    +0.000 NA
ATOM     20  C   UNL     1       6.705  -1.330   2.355  0.00  0.00    +0.000 A 
ATOM     21  C   UNL     1       6.536  -0.479   1.282  0.00  0.00    +0.000 A 
ATOM     22  C   UNL     1       5.350   0.247   1.328  0.00  0.00    +0.000 A 
ATOM     23  N   UNL     1       4.429   0.171   2.313  0.00  0.00    +0.000 NA
BRANCH  18  25
ATOM     24  N   UNL     1       2.900  -0.988   5.143  0.00  0.00    +0.000 NA
ATOM     25  C   UNL     1       3.718  -0.854   4.327  0.00  0.00    +0.000 C 
ENDBRANCH  18  25
ENDBRANCH  16  21
ENDBRANCH   1  16
TORSDOF 5
