REMARK  Name = 
REMARK  6 active torsions:
REMARK  status: ('A' for Active; 'I' for Inactive)
REMARK    1  A    between atoms: C_2  and  C_25
REMARK    2  A    between atoms: N_3  and  C_4
REMARK    3  A    between atoms: C_4  and  C_5
REMARK    4  A    between atoms: C_8  and  C_9
REMARK    5  A    between atoms: C_9  and  N_10
REMARK    6  A    between atoms: C_11  and  C_13
REMARK                            x       y       z     vdW  Elec       q    Type
REMARK                         _______ _______ _______ _____ _____    ______ ____
ROOT
ATOM      1  C   UNL     1       3.231   2.114   3.053  0.00  0.00    +0.000 A 
ATOM      2  C   UNL     1       3.198   3.506   3.160  0.00  0.00    +0.000 A 
ATOM      3  C   UNL     1       4.014   4.149   4.089  0.00  0.00    +0.000 A 
ATOM      4  C   UNL     1       4.847   3.381   4.897  0.00  0.00    +0.000 A 
ATOM      5  N   UNL     1       4.933   2.032   4.777  0.00  0.00    +0.000 NA
ATOM      6  C   UNL     1       4.132   1.435   3.864  0.00  0.00    +0.000 A 
ENDROOT
BRANCH   1   7
ATOM      7  C   UNL     1       2.293   1.376   2.149  0.00  0.00    +0.000 C 
BRANCH   7  10
ATOM      8  O   UNL     1       0.878   0.140   0.160  0.00  0.00    +0.000 OA
ATOM      9  C   UNL     1       1.987   0.583  -0.133  0.00  0.00    +0.000 C 
ATOM     10  N   UNL     1       2.774   1.229   0.800  0.00  0.00    +0.000 N 
ATOM     11  H   UNL     1       3.666   1.613   0.508  0.00  0.00    +0.000 HD
BRANCH   9  12
ATOM     12  C   UNL     1       2.553   0.465  -1.459  0.00  0.00    +0.000 A 
ATOM     13  C   UNL     1       2.007  -0.058  -2.616  0.00  0.00    +0.000 A 
ATOM     14  C   UNL     1       2.995   0.047  -3.621  0.00  0.00    +0.000 A 
ATOM     15  C   UNL     1       4.087   0.629  -3.020  0.00  0.00    +0.000 A 
ATOM     16  O   UNL     1       3.831   0.894  -1.710  0.00  0.00    +0.000 OA
ENDBRANCH   9  12
ENDBRANCH   7  10
ENDBRANCH   1   7
BRANCH   4  17
ATOM     17  C   UNL     1       5.701   4.040   5.953  0.00  0.00    +0.000 C 
BRANCH  17  18
ATOM     18  N   UNL     1       7.006   4.402   5.455  0.00  0.00    +0.000 N 
ATOM     19  C   UNL     1       7.314   5.671   5.047  0.00  0.00    +0.000 C 
ATOM     20  O   UNL     1       6.490   6.582   5.078  0.00  0.00    +0.000 OA
ATOM     21  H   UNL     1       7.615   3.626   5.211  0.00  0.00    +0.000 HD
BRANCH  19  22
ATOM     22  C   UNL     1       8.704   5.909   4.636  0.00  0.00    +0.000 A 
ATOM     23  C   UNL     1       9.215   7.200   4.668  0.00  0.00    +0.000 A 
ATOM     24  S   UNL     1      10.851   7.302   4.202  0.00  0.00    +0.000 S 
ATOM     25  C   UNL     1      10.924   5.630   3.897  0.00  0.00    +0.000 A 
ATOM     26  N   UNL     1      12.066   5.054   3.432  0.00  0.00    +0.000 NA
ATOM     27  C   UNL     1      11.973   3.787   3.211  0.00  0.00    +0.000 A 
ATOM     28  N   UNL     1      10.844   3.039   3.424  0.00  0.00    +0.000 N 
ATOM     29  C   UNL     1       9.685   3.568   3.941  0.00  0.00    +0.000 A 
ATOM     30  O   UNL     1       8.723   2.854   4.201  0.00  0.00    +0.000 OA
ATOM     31  C   UNL     1       9.724   4.999   4.172  0.00  0.00    +0.000 A 
ATOM     32  H   UNL     1      10.839   2.045   3.251  0.00  0.00    +0.000 HD
ENDBRANCH  19  22
ENDBRANCH  17  18
ENDBRANCH   4  17
TORSDOF 6
