REMARK  Name = 
REMARK  9 active torsions:
REMARK  status: ('A' for Active; 'I' for Inactive)
REMARK    1  A    between atoms: C_1  and  C_2
REMARK    2  A    between atoms: C_2  and  N_3
REMARK    3  A    between atoms: C_2  and  C_16
REMARK    4  A    between atoms: C_4  and  C_6
REMARK    5  A    between atoms: C_19  and  C_20
REMARK    6  A    between atoms: C_20  and  N_21
REMARK    7  A    between atoms: C_22  and  C_24
REMARK    8  A    between atoms: C_25  and  N_26
REMARK    9  A    between atoms: N_29  and  C_30
REMARK                            x       y       z     vdW  Elec       q    Type
REMARK                         _______ _______ _______ _____ _____    ______ ____
ROOT
ATOM      1  C   UNL     1       2.950  -0.445  -1.412  0.00  0.00    +0.000 A 
ATOM      2  C   UNL     1       3.498   0.579  -2.202  0.00  0.00    +0.000 A 
ATOM      3  C   UNL     1       3.973   0.317  -3.492  0.00  0.00    +0.000 A 
ATOM      4  C   UNL     1       3.892  -0.972  -4.032  0.00  0.00    +0.000 A 
ATOM      5  C   UNL     1       3.346  -1.995  -3.249  0.00  0.00    +0.000 A 
ATOM      6  C   UNL     1       2.866  -1.731  -1.964  0.00  0.00    +0.000 A 
ENDROOT
BRANCH   1   8
ATOM      7  C   UNL     1       2.645  -1.276   0.983  0.00  0.00    +0.000 C 
ATOM      8  C   UNL     1       2.457  -0.122  -0.009  0.00  0.00    +0.000 C 
BRANCH   8   9
ATOM      9  N   UNL     1       1.067   0.301  -0.052  0.00  0.00    +0.000 N 
ATOM     10  C   UNL     1       0.534   1.148   0.886  0.00  0.00    +0.000 C 
ATOM     11  O   UNL     1       1.230   1.633   1.778  0.00  0.00    +0.000 OA
ATOM     12  H   UNL     1       0.475  -0.125  -0.759  0.00  0.00    +0.000 HD
BRANCH  10  13
ATOM     13  C   UNL     1      -0.903   1.460   0.801  0.00  0.00    +0.000 A 
ATOM     14  C   UNL     1      -1.454   2.341   1.722  0.00  0.00    +0.000 A 
ATOM     15  S   UNL     1      -3.127   2.597   1.526  0.00  0.00    +0.000 S 
ATOM     16  C   UNL     1      -3.186   1.531   0.204  0.00  0.00    +0.000 A 
ATOM     17  N   UNL     1      -4.363   1.276  -0.426  0.00  0.00    +0.000 NA
ATOM     18  C   UNL     1      -4.273   0.449  -1.413  0.00  0.00    +0.000 A 
ATOM     19  N   UNL     1      -3.108  -0.137  -1.833  0.00  0.00    +0.000 N 
ATOM     20  C   UNL     1      -1.895   0.089  -1.226  0.00  0.00    +0.000 A 
ATOM     21  O   UNL     1      -0.874  -0.462  -1.629  0.00  0.00    +0.000 OA
ATOM     22  C   UNL     1      -1.941   1.001  -0.099  0.00  0.00    +0.000 A 
ATOM     23  H   UNL     1      -3.103  -0.771  -2.618  0.00  0.00    +0.000 HD
ENDBRANCH  10  13
ENDBRANCH   8   9
ENDBRANCH   1   8
BRANCH   4  24
ATOM     24  C   UNL     1       4.397  -1.266  -5.419  0.00  0.00    +0.000 C 
BRANCH  24  25
ATOM     25  N   UNL     1       5.771  -1.695  -5.400  0.00  0.00    +0.000 N 
ATOM     26  C   UNL     1       6.445  -1.988  -6.563  0.00  0.00    +0.000 C 
ATOM     27  O   UNL     1       5.904  -1.947  -7.663  0.00  0.00    +0.000 OA
ATOM     28  H   UNL     1       6.319  -1.573  -4.554  0.00  0.00    +0.000 HD
BRANCH  26  29
ATOM     29  C   UNL     1       7.839  -2.296  -6.373  0.00  0.00    +0.000 A 
ATOM     30  C   UNL     1       8.518  -2.812  -5.290  0.00  0.00    +0.000 A 
ATOM     31  N   UNL     1       9.853  -2.916  -5.505  0.00  0.00    +0.000 NA
ATOM     32  C   UNL     1      10.026  -2.479  -6.731  0.00  0.00    +0.000 A 
ATOM     33  N   UNL     1       8.840  -2.113  -7.304  0.00  0.00    +0.000 N 
ATOM     34  C   UNL     1       8.694  -1.555  -8.627  0.00  0.00    +0.000 C 
BRANCH  30  35
ATOM     35  N   UNL     1       8.010  -3.218  -4.120  0.00  0.00    +0.000 N 
ATOM     36  H   UNL     1       7.078  -3.620  -4.106  0.00  0.00    +0.000 HD
ATOM     37  H   UNL     1       8.656  -3.748  -3.542  0.00  0.00    +0.000 HD
ENDBRANCH  30  35
ENDBRANCH  26  29
ENDBRANCH  24  25
ENDBRANCH   4  24
TORSDOF 7
