REMARK  Name = 
REMARK  7 active torsions:
REMARK  status: ('A' for Active; 'I' for Inactive)
REMARK    1  A    between atoms: C_1  and  C_2
REMARK    2  A    between atoms: C_2  and  N_3
REMARK    3  A    between atoms: C_2  and  C_16
REMARK    4  A    between atoms: C_4  and  C_6
REMARK    5  A    between atoms: C_19  and  O_20
REMARK    6  A    between atoms: O_20  and  C_21
REMARK    7  A    between atoms: C_21  and  C_22
REMARK                            x       y       z     vdW  Elec       q    Type
REMARK                         _______ _______ _______ _____ _____    ______ ____
ROOT
ATOM      1  C   UNL     1       3.631  -1.059   0.175  0.00  0.00    +0.000 C 
ATOM      2  C   UNL     1       2.558   0.004  -0.077  0.00  0.00    +0.000 C 
ENDROOT
BRANCH   2   3
ATOM      3  C   UNL     1       3.040   1.193  -0.893  0.00  0.00    +0.000 A 
ATOM      4  C   UNL     1       2.468   2.450  -0.642  0.00  0.00    +0.000 A 
ATOM      5  C   UNL     1       2.857   3.581  -1.363  0.00  0.00    +0.000 A 
ATOM      6  C   UNL     1       3.832   3.484  -2.349  0.00  0.00    +0.000 A 
ATOM      7  C   UNL     1       4.403   2.241  -2.622  0.00  0.00    +0.000 A 
ATOM      8  C   UNL     1       4.009   1.103  -1.903  0.00  0.00    +0.000 A 
BRANCH   6   9
ATOM      9  O   UNL     1       4.260   4.529  -3.125  0.00  0.00    +0.000 OA
BRANCH   9  10
ATOM     10  C   UNL     1       4.208   5.812  -2.485  0.00  0.00    +0.000 C 
BRANCH  10  11
ATOM     11  C   UNL     1       4.738   6.912  -3.379  0.00  0.00    +0.000 A 
ATOM     12  C   UNL     1       5.706   6.644  -4.344  0.00  0.00    +0.000 A 
ATOM     13  C   UNL     1       6.219   7.696  -5.096  0.00  0.00    +0.000 A 
ATOM     14  C   UNL     1       5.759   8.987  -4.865  0.00  0.00    +0.000 A 
ATOM     15  C   UNL     1       4.798   9.173  -3.887  0.00  0.00    +0.000 A 
ATOM     16  N   UNL     1       4.285   8.171  -3.139  0.00  0.00    +0.000 NA
ENDBRANCH  10  11
ENDBRANCH   9  10
ENDBRANCH   6   9
ENDBRANCH   2   3
BRANCH   2  17
ATOM     17  N   UNL     1       1.400  -0.601  -0.708  0.00  0.00    +0.000 N 
ATOM     18  C   UNL     1       0.108  -0.253  -0.412  0.00  0.00    +0.000 C 
ATOM     19  O   UNL     1      -0.184   0.618   0.401  0.00  0.00    +0.000 OA
ATOM     20  H   UNL     1       1.575  -1.335  -1.382  0.00  0.00    +0.000 HD
BRANCH  18  21
ATOM     21  C   UNL     1      -0.924  -0.972  -1.163  0.00  0.00    +0.000 A 
ATOM     22  C   UNL     1      -2.140  -0.367  -1.454  0.00  0.00    +0.000 A 
ATOM     23  S   UNL     1      -3.209  -1.377  -2.320  0.00  0.00    +0.000 S 
ATOM     24  C   UNL     1      -2.103  -2.671  -2.290  0.00  0.00    +0.000 A 
ATOM     25  N   UNL     1      -2.417  -3.882  -2.834  0.00  0.00    +0.000 NA
ATOM     26  C   UNL     1      -1.494  -4.775  -2.696  0.00  0.00    +0.000 A 
ATOM     27  N   UNL     1      -0.285  -4.571  -2.089  0.00  0.00    +0.000 N 
ATOM     28  C   UNL     1       0.100  -3.354  -1.581  0.00  0.00    +0.000 A 
ATOM     29  O   UNL     1       1.232  -3.182  -1.151  0.00  0.00    +0.000 OA
ATOM     30  C   UNL     1      -0.919  -2.323  -1.664  0.00  0.00    +0.000 A 
ATOM     31  H   UNL     1       0.407  -5.304  -2.049  0.00  0.00    +0.000 HD
ENDBRANCH  18  21
ENDBRANCH   2  17
TORSDOF 6
