REMARK  Name = 
REMARK  6 active torsions:
REMARK  status: ('A' for Active; 'I' for Inactive)
REMARK    1  A    between atoms: C_1  and  C_2
REMARK    2  A    between atoms: C_2  and  N_3
REMARK    3  A    between atoms: C_2  and  C_16
REMARK    4  A    between atoms: C_4  and  C_6
REMARK    5  A    between atoms: C_19  and  O_20
REMARK    6  A    between atoms: O_20  and  C_21
REMARK                            x       y       z     vdW  Elec       q    Type
REMARK                         _______ _______ _______ _____ _____    ______ ____
ROOT
ATOM      1  C   UNL     1       0.993  -0.112   0.108  0.00  0.00    +0.000 C 
ATOM      2  C   UNL     1       2.520  -0.044   0.049  0.00  0.00    +0.000 C 
ENDROOT
BRANCH   2   3
ATOM      3  C   UNL     1       3.016   1.365  -0.228  0.00  0.00    +0.000 A 
ATOM      4  C   UNL     1       3.832   1.999   0.718  0.00  0.00    +0.000 A 
ATOM      5  C   UNL     1       4.328   3.283   0.488  0.00  0.00    +0.000 A 
ATOM      6  C   UNL     1       4.058   3.939  -0.715  0.00  0.00    +0.000 A 
ATOM      7  C   UNL     1       3.221   3.336  -1.652  0.00  0.00    +0.000 A 
ATOM      8  C   UNL     1       2.706   2.056  -1.413  0.00  0.00    +0.000 A 
BRANCH   6   9
ATOM      9  O   UNL     1       4.520   5.204  -1.010  0.00  0.00    +0.000 OA
BRANCH   9  10
ATOM     10  C   UNL     1       5.805   5.546  -0.601  0.00  0.00    +0.000 A 
ATOM     11  C   UNL     1       6.050   6.894  -0.382  0.00  0.00    +0.000 A 
ATOM     12  C   UNL     1       7.320   7.271   0.047  0.00  0.00    +0.000 A 
ATOM     13  C   UNL     1       8.295   6.296   0.236  0.00  0.00    +0.000 A 
ATOM     14  C   UNL     1       7.964   4.979  -0.033  0.00  0.00    +0.000 A 
ATOM     15  N   UNL     1       6.748   4.586  -0.463  0.00  0.00    +0.000 NA
ENDBRANCH   9  10
ENDBRANCH   6   9
ENDBRANCH   2   3
BRANCH   2  16
ATOM     16  N   UNL     1       3.046  -0.972  -0.933  0.00  0.00    +0.000 N 
ATOM     17  C   UNL     1       3.244  -2.301  -0.659  0.00  0.00    +0.000 C 
ATOM     18  O   UNL     1       2.996  -2.787   0.442  0.00  0.00    +0.000 OA
ATOM     19  H   UNL     1       3.374  -0.583  -1.811  0.00  0.00    +0.000 HD
BRANCH  17  20
ATOM     20  C   UNL     1       3.716  -3.137  -1.771  0.00  0.00    +0.000 A 
ATOM     21  C   UNL     1       3.510  -4.509  -1.732  0.00  0.00    +0.000 A 
ATOM     22  S   UNL     1       4.088  -5.328  -3.110  0.00  0.00    +0.000 S 
ATOM     23  C   UNL     1       4.688  -3.884  -3.782  0.00  0.00    +0.000 A 
ATOM     24  N   UNL     1       5.343  -3.888  -4.974  0.00  0.00    +0.000 NA
ATOM     25  C   UNL     1       5.788  -2.732  -5.341  0.00  0.00    +0.000 A 
ATOM     26  N   UNL     1       5.621  -1.571  -4.633  0.00  0.00    +0.000 N 
ATOM     27  C   UNL     1       4.896  -1.505  -3.468  0.00  0.00    +0.000 A 
ATOM     28  O   UNL     1       4.651  -0.429  -2.931  0.00  0.00    +0.000 OA
ATOM     29  C   UNL     1       4.420  -2.787  -2.981  0.00  0.00    +0.000 A 
ATOM     30  H   UNL     1       5.969  -0.692  -4.987  0.00  0.00    +0.000 HD
ENDBRANCH  17  20
ENDBRANCH   2  16
TORSDOF 5
