REMARK  Name = 
REMARK  10 active torsions:
REMARK  status: ('A' for Active; 'I' for Inactive)
REMARK    1  A    between atoms: N_1  and  C_2
REMARK    2  A    between atoms: C_2  and  C_3
REMARK    3  A    between atoms: C_3  and  N_4
REMARK    4  A    between atoms: C_3  and  C_20
REMARK    5  A    between atoms: N_4  and  C_5
REMARK    6  A    between atoms: C_5  and  C_6
REMARK    7  A    between atoms: C_9  and  C_10
REMARK    8  A    between atoms: C_10  and  N_11
REMARK    9  A    between atoms: N_11  and  C_12
REMARK   10  A    between atoms: C_12  and  C_13
REMARK                            x       y       z     vdW  Elec       q    Type
REMARK                         _______ _______ _______ _____ _____    ______ ____
ROOT
ATOM      1  N   UNL     1       2.397   0.088  -2.363  0.00  0.00    +0.000 NA
ATOM      2  H   UNL     1       2.720  -0.267  -3.260  0.00  0.00    +0.000 HD
ENDROOT
BRANCH   1   3
ATOM      3  C   UNL     1       2.886  -0.814  -1.306  0.00  0.00    +0.000 C 
BRANCH   3   4
ATOM      4  C   UNL     1       4.396  -0.924  -1.525  0.00  0.00    +0.000 A 
ATOM      5  C   UNL     1       5.189   0.142  -1.934  0.00  0.00    +0.000 A 
ATOM      6  S   UNL     1       6.833  -0.256  -2.113  0.00  0.00    +0.000 S 
ATOM      7  C   UNL     1       6.559  -1.857  -1.609  0.00  0.00    +0.000 A 
ATOM      8  N   UNL     1       7.590  -2.737  -1.510  0.00  0.00    +0.000 NA
ATOM      9  C   UNL     1       7.256  -3.899  -1.057  0.00  0.00    +0.000 A 
ATOM     10  N   UNL     1       5.979  -4.263  -0.713  0.00  0.00    +0.000 N 
ATOM     11  C   UNL     1       4.891  -3.453  -0.929  0.00  0.00    +0.000 A 
ATOM     12  O   UNL     1       3.739  -3.878  -0.806  0.00  0.00    +0.000 OA
ATOM     13  C   UNL     1       5.222  -2.100  -1.341  0.00  0.00    +0.000 A 
ATOM     14  H   UNL     1       5.785  -5.208  -0.409  0.00  0.00    +0.000 HD
ENDBRANCH   3   4
BRANCH   3  15
ATOM     15  C   UNL     1       2.590  -0.341   0.161  0.00  0.00    +0.000 C 
BRANCH  15  16
ATOM     16  N   UNL     1       1.171  -0.221   0.528  0.00  0.00    +0.000 NA
ATOM     17  H   UNL     1       1.088   0.039   1.509  0.00  0.00    +0.000 HD
ATOM     18  H   UNL     1       0.701  -1.115   0.407  0.00  0.00    +0.000 HD
ENDBRANCH  15  16
ENDBRANCH   3  15
ENDBRANCH   1   3
BRANCH   1  19
ATOM     19  C   UNL     1       0.949   0.239  -2.410  0.00  0.00    +0.000 C 
BRANCH  19  20
ATOM     20  C   UNL     1       0.555   1.115  -3.562  0.00  0.00    +0.000 A 
ATOM     21  C   UNL     1       0.847   0.775  -4.883  0.00  0.00    +0.000 A 
ATOM     22  C   UNL     1       0.467   1.635  -5.904  0.00  0.00    +0.000 A 
ATOM     23  C   UNL     1      -0.221   2.803  -5.576  0.00  0.00    +0.000 A 
ATOM     24  N   UNL     1      -0.523   3.150  -4.300  0.00  0.00    +0.000 NA
ATOM     25  C   UNL     1      -0.116   2.310  -3.329  0.00  0.00    +0.000 A 
BRANCH  23  26
ATOM     26  C   UNL     1      -0.640   3.774  -6.658  0.00  0.00    +0.000 C 
BRANCH  26  27
ATOM     27  N   UNL     1      -0.095   5.128  -6.503  0.00  0.00    +0.000 NA
ATOM     28  H   UNL     1      -0.385   5.477  -5.586  0.00  0.00    +0.000 HD
BRANCH  27  29
ATOM     29  C   UNL     1       1.373   5.124  -6.514  0.00  0.00    +0.000 C 
BRANCH  29  30
ATOM     30  C   UNL     1       1.844   6.530  -6.333  0.00  0.00    +0.000 A 
ATOM     31  C   UNL     1       1.570   7.632  -7.116  0.00  0.00    +0.000 A 
ATOM     32  N   UNL     1       2.203   8.676  -6.508  0.00  0.00    +0.000 N 
ATOM     33  C   UNL     1       2.842   8.187  -5.404  0.00  0.00    +0.000 A 
ATOM     34  N   UNL     1       2.649   6.894  -5.272  0.00  0.00    +0.000 NA
ATOM     35  H   UNL     1       2.198   9.638  -6.810  0.00  0.00    +0.000 HD
ENDBRANCH  29  30
ENDBRANCH  27  29
ENDBRANCH  26  27
ENDBRANCH  23  26
ENDBRANCH  19  20
ENDBRANCH   1  19
TORSDOF 10
