REMARK  Name = 
REMARK  9 active torsions:
REMARK  status: ('A' for Active; 'I' for Inactive)
REMARK    1  A    between atoms: C_1  and  O_2
REMARK    2  A    between atoms: O_2  and  C_3
REMARK    3  A    between atoms: C_10  and  C_11
REMARK    4  A    between atoms: N_13  and  C_14
REMARK    5  A    between atoms: C_14  and  C_15
REMARK    6  A    between atoms: C_18  and  C_19
REMARK    7  A    between atoms: C_19  and  O_20
REMARK    8  A    between atoms: O_20  and  C_21
REMARK    9  A    between atoms: C_21  and  C_22
REMARK                            x       y       z     vdW  Elec       q    Type
REMARK                         _______ _______ _______ _____ _____    ______ ____
ROOT
ATOM      1  C   UNL     1       2.900   2.549   2.108  0.00  0.00    +0.000 C 
ENDROOT
BRANCH   1   2
ATOM      2  C   UNL     1       1.705   3.040   1.335  0.00  0.00    +0.000 A 
ATOM      3  C   UNL     1       0.661   2.163   1.013  0.00  0.00    +0.000 A 
ATOM      4  C   UNL     1      -0.416   2.598   0.239  0.00  0.00    +0.000 A 
ATOM      5  C   UNL     1      -0.468   3.916  -0.232  0.00  0.00    +0.000 A 
ATOM      6  C   UNL     1       0.569   4.798   0.100  0.00  0.00    +0.000 A 
ATOM      7  C   UNL     1       1.647   4.362   0.875  0.00  0.00    +0.000 A 
BRANCH   5   8
ATOM      8  C   UNL     1      -1.637   4.380  -1.067  0.00  0.00    +0.000 C 
BRANCH   8   9
ATOM      9  O   UNL     1      -2.884   4.203  -0.394  0.00  0.00    +0.000 OA
BRANCH   9  10
ATOM     10  C   UNL     1      -3.020   5.065   0.734  0.00  0.00    +0.000 C 
BRANCH  10  11
ATOM     11  C   UNL     1      -4.388   4.879   1.338  0.00  0.00    +0.000 A 
ATOM     12  C   UNL     1      -4.525   4.377   2.642  0.00  0.00    +0.000 A 
ATOM     13  C   UNL     1      -5.790   4.235   3.215  0.00  0.00    +0.000 A 
ATOM     14  C   UNL     1      -6.915   4.592   2.484  0.00  0.00    +0.000 A 
ATOM     15  F   UNL     1      -8.128   4.463   3.037  0.00  0.00    +0.000 F 
ATOM     16  C   UNL     1      -6.803   5.080   1.187  0.00  0.00    +0.000 A 
ATOM     17  C   UNL     1      -5.540   5.223   0.613  0.00  0.00    +0.000 A 
ENDBRANCH  10  11
ENDBRANCH   9  10
ENDBRANCH   8   9
ENDBRANCH   5   8
ENDBRANCH   1   2
BRANCH   1  20
ATOM     18  C   UNL     1       5.063   1.468   1.704  0.00  0.00    +0.000 C 
ATOM     19  O   UNL     1       5.303   1.467   2.910  0.00  0.00    +0.000 OA
ATOM     20  N   UNL     1       3.897   1.996   1.221  0.00  0.00    +0.000 N 
ATOM     21  H   UNL     1       3.695   1.978   0.230  0.00  0.00    +0.000 HD
BRANCH  18  29
ATOM     22  C   UNL     1       5.079   1.133  -1.734  0.00  0.00    +0.000 A 
ATOM     23  N   UNL     1       5.328   0.836  -3.026  0.00  0.00    +0.000 NA
ATOM     24  C   UNL     1       6.468   0.206  -3.319  0.00  0.00    +0.000 A 
ATOM     25  N   UNL     1       7.415  -0.170  -2.466  0.00  0.00    +0.000 NA
ATOM     26  C   UNL     1       7.124   0.131  -1.190  0.00  0.00    +0.000 A 
ATOM     27  S   UNL     1       8.226  -0.270   0.034  0.00  0.00    +0.000 S 
ATOM     28  C   UNL     1       7.206   0.371   1.230  0.00  0.00    +0.000 A 
ATOM     29  C   UNL     1       6.018   0.899   0.738  0.00  0.00    +0.000 A 
ATOM     30  C   UNL     1       5.976   0.767  -0.717  0.00  0.00    +0.000 A 
BRANCH  22  32
ATOM     31  C   UNL     1       3.426   2.572  -2.529  0.00  0.00    +0.000 C 
ATOM     32  O   UNL     1       3.904   1.790  -1.435  0.00  0.00    +0.000 OA
ENDBRANCH  22  32
ENDBRANCH  18  29
ENDBRANCH   1  20
TORSDOF 8
