REMARK  Name = 
REMARK  5 active torsions:
REMARK  status: ('A' for Active; 'I' for Inactive)
REMARK    1  A    between atoms: N_1  and  C_2
REMARK    2  A    between atoms: C_2  and  C_3
REMARK    3  A    between atoms: C_3  and  C_5
REMARK    4  A    between atoms: C_9  and  C_10
REMARK    5  A    between atoms: C_10  and  N_11
REMARK                            x       y       z     vdW  Elec       q    Type
REMARK                         _______ _______ _______ _____ _____    ______ ____
ROOT
ATOM      1  C   UNL     1       4.351   0.891  -1.521  0.00  0.00    +0.000 A 
ATOM      2  C   UNL     1       5.191  -0.198  -1.267  0.00  0.00    +0.000 A 
ATOM      3  C   UNL     1       6.557  -0.108  -1.542  0.00  0.00    +0.000 A 
ATOM      4  C   UNL     1       7.092   1.061  -2.084  0.00  0.00    +0.000 A 
ATOM      5  C   UNL     1       6.268   2.161  -2.357  0.00  0.00    +0.000 A 
ATOM      6  C   UNL     1       4.898   2.067  -2.060  0.00  0.00    +0.000 A 
ENDROOT
BRANCH   1   7
ATOM      7  C   UNL     1       2.874   0.837  -1.278  0.00  0.00    +0.000 C 
ATOM      8  O   UNL     1       2.191   1.826  -1.547  0.00  0.00    +0.000 OA
BRANCH   7   9
ATOM      9  C   UNL     1       2.277  -0.476  -0.765  0.00  0.00    +0.000 C 
BRANCH   9  10
ATOM     10  N   UNL     1       0.832  -0.353  -0.548  0.00  0.00    +0.000 NA
ATOM     11  H   UNL     1       0.406  -1.276  -0.499  0.00  0.00    +0.000 HD
ATOM     12  H   UNL     1       0.422   0.126  -1.354  0.00  0.00    +0.000 HD
ENDBRANCH   9  10
ENDBRANCH   7   9
ENDBRANCH   1   7
BRANCH   5  13
ATOM     13  C   UNL     1       6.825   3.399  -3.017  0.00  0.00    +0.000 C 
BRANCH  13  14
ATOM     14  N   UNL     1       6.723   3.308  -4.464  0.00  0.00    +0.000 N 
ATOM     15  C   UNL     1       5.642   3.711  -5.202  0.00  0.00    +0.000 A 
ATOM     16  N   UNL     1       5.811   3.474  -6.482  0.00  0.00    +0.000 NA
ATOM     17  C   UNL     1       7.061   2.911  -6.584  0.00  0.00    +0.000 A 
ATOM     18  C   UNL     1       7.737   2.459  -7.715  0.00  0.00    +0.000 A 
ATOM     19  C   UNL     1       9.006   1.949  -7.492  0.00  0.00    +0.000 A 
ATOM     20  N   UNL     1       9.607   1.869  -6.280  0.00  0.00    +0.000 NA
ATOM     21  C   UNL     1       8.946   2.305  -5.183  0.00  0.00    +0.000 A 
ATOM     22  C   UNL     1       7.666   2.818  -5.335  0.00  0.00    +0.000 A 
ENDBRANCH  13  14
ENDBRANCH   5  13
TORSDOF 5
