REMARK  Name = 
REMARK  8 active torsions:
REMARK  status: ('A' for Active; 'I' for Inactive)
REMARK    1  A    between atoms: C_1  and  N_2
REMARK    2  A    between atoms: N_2  and  C_3
REMARK    3  A    between atoms: N_2  and  C_24
REMARK    4  A    between atoms: C_3  and  C_4
REMARK    5  A    between atoms: C_7  and  C_8
REMARK    6  A    between atoms: C_8  and  N_9
REMARK    7  A    between atoms: C_10  and  C_12
REMARK    8  A    between atoms: C_24  and  C_25
REMARK                            x       y       z     vdW  Elec       q    Type
REMARK                         _______ _______ _______ _____ _____    ______ ____
ROOT
ATOM      1  C   UNL     1       2.621   0.381   2.517  0.00  0.00    +0.000 A 
ATOM      2  C   UNL     1       2.266  -0.208   3.740  0.00  0.00    +0.000 A 
ATOM      3  C   UNL     1       1.954   0.578   4.852  0.00  0.00    +0.000 A 
ATOM      4  C   UNL     1       2.001   1.975   4.768  0.00  0.00    +0.000 A 
ATOM      5  C   UNL     1       2.381   2.566   3.556  0.00  0.00    +0.000 A 
ATOM      6  C   UNL     1       2.673   1.779   2.437  0.00  0.00    +0.000 A 
ENDROOT
BRANCH   1   7
ATOM      7  C   UNL     1       2.943  -0.483   1.312  0.00  0.00    +0.000 C 
BRANCH   7   9
ATOM      8  C   UNL     1       0.767  -1.569   1.166  0.00  0.00    +0.000 C 
ATOM      9  N   UNL     1       1.788  -0.795   0.444  0.00  0.00    +0.000 NA
BRANCH   9  10
ATOM     10  C   UNL     1       2.268  -1.576  -0.727  0.00  0.00    +0.000 C 
BRANCH  10  11
ATOM     11  C   UNL     1       1.184  -1.911  -1.740  0.00  0.00    +0.000 A 
ATOM     12  C   UNL     1       0.492  -0.889  -2.389  0.00  0.00    +0.000 A 
ATOM     13  C   UNL     1      -0.563  -1.223  -3.233  0.00  0.00    +0.000 A 
ATOM     14  C   UNL     1      -0.896  -2.560  -3.412  0.00  0.00    +0.000 A 
ATOM     15  C   UNL     1      -0.150  -3.515  -2.743  0.00  0.00    +0.000 A 
ATOM     16  N   UNL     1       0.878  -3.224  -1.916  0.00  0.00    +0.000 NA
ENDBRANCH  10  11
ENDBRANCH   9  10
ENDBRANCH   7   9
ENDBRANCH   1   7
BRANCH   4  17
ATOM     17  C   UNL     1       1.701   2.827   5.972  0.00  0.00    +0.000 C 
BRANCH  17  18
ATOM     18  N   UNL     1       2.898   3.080   6.735  0.00  0.00    +0.000 N 
ATOM     19  C   UNL     1       2.851   3.754   7.927  0.00  0.00    +0.000 C 
ATOM     20  O   UNL     1       1.789   4.120   8.424  0.00  0.00    +0.000 OA
ATOM     21  H   UNL     1       3.784   2.979   6.249  0.00  0.00    +0.000 HD
BRANCH  19  22
ATOM     22  C   UNL     1       4.130   3.969   8.615  0.00  0.00    +0.000 A 
ATOM     23  C   UNL     1       4.142   4.190   9.985  0.00  0.00    +0.000 A 
ATOM     24  S   UNL     1       5.705   4.390  10.635  0.00  0.00    +0.000 S 
ATOM     25  C   UNL     1       6.421   4.237   9.099  0.00  0.00    +0.000 A 
ATOM     26  N   UNL     1       7.770   4.344   8.943  0.00  0.00    +0.000 NA
ATOM     27  C   UNL     1       8.174   4.235   7.720  0.00  0.00    +0.000 A 
ATOM     28  N   UNL     1       7.355   4.023   6.644  0.00  0.00    +0.000 N 
ATOM     29  C   UNL     1       5.992   3.878   6.757  0.00  0.00    +0.000 A 
ATOM     30  O   UNL     1       5.295   3.642   5.776  0.00  0.00    +0.000 OA
ATOM     31  C   UNL     1       5.482   4.010   8.108  0.00  0.00    +0.000 A 
ATOM     32  H   UNL     1       7.738   3.937   5.714  0.00  0.00    +0.000 HD
ENDBRANCH  19  22
ENDBRANCH  17  18
ENDBRANCH   4  17
TORSDOF 7
