REMARK  Name = 
REMARK  5 active torsions:
REMARK  status: ('A' for Active; 'I' for Inactive)
REMARK    1  A    between atoms: N_1  and  C_2
REMARK    2  A    between atoms: C_2  and  C_3
REMARK    3  A    between atoms: C_6  and  O_7
REMARK    4  A    between atoms: O_7  and  C_8
REMARK    5  A    between atoms: C_8  and  C_9
REMARK                            x       y       z     vdW  Elec       q    Type
REMARK                         _______ _______ _______ _____ _____    ______ ____
ROOT
ATOM      1  C   UNL     1       2.854  -0.322  -1.579  0.00  0.00    +0.000 A 
ATOM      2  C   UNL     1       1.912  -1.289  -1.943  0.00  0.00    +0.000 A 
ATOM      3  C   UNL     1       2.139  -2.086  -3.070  0.00  0.00    +0.000 A 
ATOM      4  C   UNL     1       3.288  -1.863  -3.809  0.00  0.00    +0.000 A 
ATOM      5  N   UNL     1       4.189  -0.910  -3.514  0.00  0.00    +0.000 NA
ATOM      6  C   UNL     1       3.958  -0.169  -2.410  0.00  0.00    +0.000 A 
ENDROOT
BRANCH   1   7
ATOM      7  C   UNL     1       2.720   0.481  -0.316  0.00  0.00    +0.000 C 
BRANCH   7   8
ATOM      8  N   UNL     1       2.728  -0.388   0.857  0.00  0.00    +0.000 NA
ATOM      9  H   UNL     1       2.709   0.179   1.702  0.00  0.00    +0.000 HD
ATOM     10  H   UNL     1       3.603  -0.911   0.877  0.00  0.00    +0.000 HD
ENDBRANCH   7   8
ENDBRANCH   1   7
BRANCH   4  11
ATOM     11  O   UNL     1       3.563  -2.728  -4.857  0.00  0.00    +0.000 OA
BRANCH  11  12
ATOM     12  C   UNL     1       4.406  -2.120  -5.849  0.00  0.00    +0.000 C 
BRANCH  12  13
ATOM     13  C   UNL     1       4.778  -3.149  -6.935  0.00  0.00    +0.000 C 
ATOM     14  C   UNL     1       5.607  -4.330  -6.399  0.00  0.00    +0.000 C 
ATOM     15  C   UNL     1       7.027  -3.902  -6.029  0.00  0.00    +0.000 C 
ATOM     16  C   UNL     1       7.698  -3.134  -7.169  0.00  0.00    +0.000 C 
ATOM     17  N   UNL     1       6.878  -2.020  -7.647  0.00  0.00    +0.000 NA
ATOM     18  C   UNL     1       5.554  -2.475  -8.078  0.00  0.00    +0.000 C 
ATOM     19  H   UNL     1       7.352  -1.560  -8.424  0.00  0.00    +0.000 HD
ENDBRANCH  12  13
ENDBRANCH  11  12
ENDBRANCH   4  11
TORSDOF 5
