REMARK  Name = 
REMARK  7 active torsions:
REMARK  status: ('A' for Active; 'I' for Inactive)
REMARK    1  A    between atoms: N_1  and  C_2
REMARK    2  A    between atoms: C_2  and  C_3
REMARK    3  A    between atoms: C_3  and  O_4
REMARK    4  A    between atoms: C_3  and  C_5
REMARK    5  A    between atoms: C_8  and  C_9
REMARK    6  A    between atoms: C_9  and  N_10
REMARK    7  A    between atoms: C_15  and  C_16
REMARK                            x       y       z     vdW  Elec       q    Type
REMARK                         _______ _______ _______ _____ _____    ______ ____
ROOT
ATOM      1  C   UNL     1       8.929   0.859  -0.890  0.00  0.00    +0.000 C 
ENDROOT
BRANCH   1   2
ATOM      2  N   UNL     1       9.233   0.631   0.517  0.00  0.00    +0.000 N 
ATOM      3  N   UNL     1       9.350  -0.637   0.964  0.00  0.00    +0.000 NA
ATOM      4  N   UNL     1       8.914  -0.651   2.216  0.00  0.00    +0.000 NA
ATOM      5  C   UNL     1       8.628   0.636   2.578  0.00  0.00    +0.000 A 
ATOM      6  C   UNL     1       8.025   1.144   3.734  0.00  0.00    +0.000 A 
ATOM      7  C   UNL     1       7.840   2.533   3.825  0.00  0.00    +0.000 A 
ATOM      8  C   UNL     1       8.334   3.397   2.833  0.00  0.00    +0.000 A 
ATOM      9  C   UNL     1       8.900   2.896   1.656  0.00  0.00    +0.000 A 
ATOM     10  C   UNL     1       8.980   1.504   1.550  0.00  0.00    +0.000 A 
BRANCH   7  11
ATOM     11  C   UNL     1       7.097   3.121   4.967  0.00  0.00    +0.000 C 
ATOM     12  N   UNL     1       6.100   2.358   5.508  0.00  0.00    +0.000 N 
ATOM     13  O   UNL     1       7.317   4.256   5.367  0.00  0.00    +0.000 OA
ATOM     14  H   UNL     1       5.726   1.538   5.041  0.00  0.00    +0.000 HD
ATOM     15  H   UNL     1       5.513   2.807   6.204  0.00  0.00    +0.000 HD
ENDBRANCH   7  11
ENDBRANCH   1   2
BRANCH   1  19
ATOM     16  C   UNL     1       4.598   0.873  -1.160  0.00  0.00    +0.000 A 
ATOM     17  C   UNL     1       5.314   2.078  -1.191  0.00  0.00    +0.000 A 
ATOM     18  C   UNL     1       6.713   2.078  -1.155  0.00  0.00    +0.000 A 
ATOM     19  C   UNL     1       7.425   0.873  -1.089  0.00  0.00    +0.000 A 
ATOM     20  C   UNL     1       6.707  -0.332  -1.080  0.00  0.00    +0.000 A 
ATOM     21  C   UNL     1       5.315  -0.331  -1.124  0.00  0.00    +0.000 A 
BRANCH  16  22
ATOM     22  C   UNL     1       3.085   0.877  -1.181  0.00  0.00    +0.000 C 
BRANCH  22  23
ATOM     23  O   UNL     1       2.600  -0.250  -0.440  0.00  0.00    +0.000 OA
ATOM     24  H   UNL     1       1.930  -0.674  -1.007  0.00  0.00    +0.000 HD
ENDBRANCH  22  23
BRANCH  22  25
ATOM     25  C   UNL     1       2.538   0.843  -2.629  0.00  0.00    +0.000 C 
BRANCH  25  26
ATOM     26  N   UNL     1       1.067   0.815  -2.656  0.00  0.00    +0.000 NA
ATOM     27  H   UNL     1       0.753   0.892  -3.624  0.00  0.00    +0.000 HD
ATOM     28  H   UNL     1       0.704   1.644  -2.183  0.00  0.00    +0.000 HD
ENDBRANCH  25  26
ENDBRANCH  22  25
ENDBRANCH  16  22
ENDBRANCH   1  19
TORSDOF 7
