REMARK  Name = 
REMARK  5 active torsions:
REMARK  status: ('A' for Active; 'I' for Inactive)
REMARK    1  A    between atoms: C_1  and  C_2
REMARK    2  A    between atoms: C_4  and  N_5
REMARK    3  A    between atoms: C_4  and  C_15
REMARK    4  A    between atoms: C_9  and  C_10
REMARK    5  A    between atoms: C_20  and  C_21
REMARK                            x       y       z     vdW  Elec       q    Type
REMARK                         _______ _______ _______ _____ _____    ______ ____
ROOT
ATOM      1  C   UNL     1       2.691   0.092   1.397  0.00  0.00    +0.000 C 
ATOM      2  C   UNL     1       2.446   0.019  -0.067  0.00  0.00    +0.000 C 
ATOM      3  C   UNL     1       3.363   0.718  -1.015  0.00  0.00    +0.000 C 
ATOM      4  C   UNL     1       3.230  -0.808  -1.089  0.00  0.00    +0.000 C 
ENDROOT
BRANCH   4   5
ATOM      5  N   UNL     1       4.510  -1.527  -0.894  0.00  0.00    +0.000 N 
ATOM      6  C   UNL     1       4.693  -2.528   0.077  0.00  0.00    +0.000 A 
ATOM      7  C   UNL     1       5.861  -3.296   0.035  0.00  0.00    +0.000 A 
ATOM      8  C   UNL     1       6.088  -4.268   1.014  0.00  0.00    +0.000 A 
ATOM      9  C   UNL     1       5.139  -4.463   2.019  0.00  0.00    +0.000 A 
ATOM     10  C   UNL     1       3.998  -3.677   1.972  0.00  0.00    +0.000 A 
ATOM     11  N   UNL     1       3.752  -2.751   1.009  0.00  0.00    +0.000 NA
ATOM     12  H   UNL     1       5.352  -0.973  -0.992  0.00  0.00    +0.000 HD
BRANCH   9  13
ATOM     13  C   UNL     1       5.390  -5.463   3.085  0.00  0.00    +0.000 C 
ATOM     14  N   UNL     1       4.456  -5.629   4.069  0.00  0.00    +0.000 N 
ATOM     15  O   UNL     1       6.413  -6.137   3.084  0.00  0.00    +0.000 OA
ATOM     16  H   UNL     1       3.578  -5.142   4.154  0.00  0.00    +0.000 HD
ATOM     17  H   UNL     1       4.663  -6.332   4.769  0.00  0.00    +0.000 HD
ENDBRANCH   9  13
ENDBRANCH   4   5
BRANCH   4  18
ATOM     18  C   UNL     1       2.352  -1.463  -2.166  0.00  0.00    +0.000 A 
ATOM     19  C   UNL     1       2.127  -0.898  -3.433  0.00  0.00    +0.000 A 
ATOM     20  C   UNL     1       1.320  -1.537  -4.379  0.00  0.00    +0.000 A 
ATOM     21  C   UNL     1       0.746  -2.769  -4.086  0.00  0.00    +0.000 A 
ATOM     22  F   UNL     1       0.000  -3.365  -5.025  0.00  0.00    +0.000 F 
ATOM     23  C   UNL     1       0.950  -3.375  -2.854  0.00  0.00    +0.000 A 
ATOM     24  C   UNL     1       1.731  -2.700  -1.900  0.00  0.00    +0.000 A 
BRANCH  23  25
ATOM     25  C   UNL     1       0.395  -4.730  -2.537  0.00  0.00    +0.000 C 
ATOM     26  F   UNL     1      -0.319  -5.313  -3.538  0.00  0.00    +0.000 F 
ATOM     27  F   UNL     1       1.378  -5.622  -2.224  0.00  0.00    +0.000 F 
ATOM     28  F   UNL     1      -0.435  -4.710  -1.456  0.00  0.00    +0.000 F 
ENDBRANCH  23  25
ENDBRANCH   4  18
TORSDOF 4
