REMARK  Name = 
REMARK  7 active torsions:
REMARK  status: ('A' for Active; 'I' for Inactive)
REMARK    1  A    between atoms: C_1  and  C_2
REMARK    2  A    between atoms: C_6  and  S_7
REMARK    3  A    between atoms: S_7  and  C_8
REMARK    4  A    between atoms: C_8  and  C_9
REMARK    5  A    between atoms: C_12  and  C_13
REMARK    6  A    between atoms: C_13  and  N_14
REMARK    7  A    between atoms: C_15  and  C_17
REMARK                            x       y       z     vdW  Elec       q    Type
REMARK                         _______ _______ _______ _____ _____    ______ ____
ROOT
ATOM      1  C   UNL     1      -6.181   7.798   0.050  0.00  0.00    +0.000 C 
ENDROOT
BRANCH   1   5
ATOM      2  C   UNL     1      -4.080   4.067   0.110  0.00  0.00    +0.000 A 
ATOM      3  C   UNL     1      -3.368   5.271   0.071  0.00  0.00    +0.000 A 
ATOM      4  C   UNL     1      -4.043   6.488   0.072  0.00  0.00    +0.000 A 
ATOM      5  C   UNL     1      -5.432   6.488   0.057  0.00  0.00    +0.000 A 
ATOM      6  N   UNL     1      -6.156   5.339   0.061  0.00  0.00    +0.000 NA
ATOM      7  C   UNL     1      -5.471   4.170   0.086  0.00  0.00    +0.000 A 
BRANCH   2   8
ATOM      8  C   UNL     1      -3.417   2.711   0.092  0.00  0.00    +0.000 C 
BRANCH   8   9
ATOM      9  S   UNL     1      -1.844   2.658   1.027  0.00  0.00    +0.000 S 
BRANCH   9  15
ATOM     10  C   UNL     1      -2.754  -2.005  -0.846  0.00  0.00    +0.000 C 
ATOM     11  C   UNL     1      -1.790  -1.128  -0.109  0.00  0.00    +0.000 A 
ATOM     12  C   UNL     1      -0.577  -1.624   0.359  0.00  0.00    +0.000 A 
ATOM     13  C   UNL     1       0.279  -0.762   1.033  0.00  0.00    +0.000 A 
ATOM     14  C   UNL     1      -0.102   0.561   1.225  0.00  0.00    +0.000 A 
ATOM     15  C   UNL     1      -1.334   0.979   0.738  0.00  0.00    +0.000 A 
ATOM     16  N   UNL     1      -2.174   0.158   0.074  0.00  0.00    +0.000 NA
ENDBRANCH   9  15
ENDBRANCH   8   9
ENDBRANCH   2   8
ENDBRANCH   1   5
BRANCH   1  17
ATOM     17  N   UNL     1      -6.487   8.268   1.382  0.00  0.00    +0.000 N 
ATOM     18  C   UNL     1      -5.720   9.195   2.035  0.00  0.00    +0.000 C 
ATOM     19  O   UNL     1      -4.718   9.690   1.523  0.00  0.00    +0.000 OA
ATOM     20  H   UNL     1      -7.159   7.710   1.900  0.00  0.00    +0.000 HD
BRANCH  18  21
ATOM     21  C   UNL     1      -6.196   9.630   3.356  0.00  0.00    +0.000 A 
ATOM     22  C   UNL     1      -5.773  10.849   3.869  0.00  0.00    +0.000 A 
ATOM     23  S   UNL     1      -6.449  11.228   5.388  0.00  0.00    +0.000 S 
ATOM     24  C   UNL     1      -7.298   9.754   5.438  0.00  0.00    +0.000 A 
ATOM     25  N   UNL     1      -8.072   9.431   6.509  0.00  0.00    +0.000 NA
ATOM     26  C   UNL     1      -8.634   8.272   6.430  0.00  0.00    +0.000 A 
ATOM     27  N   UNL     1      -8.500   7.410   5.373  0.00  0.00    +0.000 N 
ATOM     28  C   UNL     1      -7.774   7.718   4.247  0.00  0.00    +0.000 A 
ATOM     29  O   UNL     1      -7.753   6.963   3.281  0.00  0.00    +0.000 OA
ATOM     30  C   UNL     1      -7.089   8.995   4.299  0.00  0.00    +0.000 A 
ATOM     31  H   UNL     1      -8.984   6.525   5.361  0.00  0.00    +0.000 HD
ENDBRANCH  18  21
ENDBRANCH   1  17
TORSDOF 6
