REMARK  Name = 
REMARK  6 active torsions:
REMARK  status: ('A' for Active; 'I' for Inactive)
REMARK    1  A    between atoms: C_1  and  C_2
REMARK    2  A    between atoms: C_5  and  C_6
REMARK    3  A    between atoms: C_6  and  C_7
REMARK    4  A    between atoms: C_10  and  C_11
REMARK    5  A    between atoms: C_11  and  N_12
REMARK    6  A    between atoms: C_13  and  C_15
REMARK                            x       y       z     vdW  Elec       q    Type
REMARK                         _______ _______ _______ _____ _____    ______ ____
ROOT
ATOM      1  C   UNL     1      -5.029   5.673  -0.305  0.00  0.00    +0.000 C 
ENDROOT
BRANCH   1   5
ATOM      2  C   UNL     1      -3.778   1.533  -0.115  0.00  0.00    +0.000 A 
ATOM      3  C   UNL     1      -3.483   2.313  -1.242  0.00  0.00    +0.000 A 
ATOM      4  C   UNL     1      -3.904   3.644  -1.318  0.00  0.00    +0.000 A 
ATOM      5  C   UNL     1      -4.635   4.219  -0.270  0.00  0.00    +0.000 A 
ATOM      6  C   UNL     1      -5.010   3.410   0.812  0.00  0.00    +0.000 A 
ATOM      7  C   UNL     1      -4.574   2.084   0.896  0.00  0.00    +0.000 A 
BRANCH   2   8
ATOM      8  C   UNL     1      -3.193   0.144   0.037  0.00  0.00    +0.000 C 
BRANCH   8  13
ATOM      9  C   UNL     1       1.813  -0.279   2.890  0.00  0.00    +0.000 C 
ATOM     10  C   UNL     1       0.537  -0.121   2.127  0.00  0.00    +0.000 A 
ATOM     11  C   UNL     1       0.462   0.660   0.977  0.00  0.00    +0.000 A 
ATOM     12  C   UNL     1      -0.750   0.770   0.296  0.00  0.00    +0.000 A 
ATOM     13  C   UNL     1      -1.872   0.099   0.782  0.00  0.00    +0.000 A 
ATOM     14  N   UNL     1      -1.819  -0.661   1.905  0.00  0.00    +0.000 NA
ATOM     15  C   UNL     1      -0.630  -0.747   2.548  0.00  0.00    +0.000 A 
ENDBRANCH   8  13
ENDBRANCH   2   8
ENDBRANCH   1   5
BRANCH   1  16
ATOM     16  N   UNL     1      -6.307   5.845  -0.937  0.00  0.00    +0.000 N 
ATOM     17  C   UNL     1      -6.857   7.082  -1.144  0.00  0.00    +0.000 C 
ATOM     18  O   UNL     1      -6.274   8.121  -0.846  0.00  0.00    +0.000 OA
ATOM     19  H   UNL     1      -6.914   5.031  -0.942  0.00  0.00    +0.000 HD
BRANCH  17  20
ATOM     20  C   UNL     1      -8.160   7.093  -1.820  0.00  0.00    +0.000 A 
ATOM     21  C   UNL     1      -8.565   8.209  -2.537  0.00  0.00    +0.000 A 
ATOM     22  S   UNL     1     -10.058   7.998  -3.337  0.00  0.00    +0.000 S 
ATOM     23  C   UNL     1     -10.243   6.432  -2.699  0.00  0.00    +0.000 A 
ATOM     24  N   UNL     1     -11.339   5.679  -2.989  0.00  0.00    +0.000 NA
ATOM     25  C   UNL     1     -11.364   4.526  -2.407  0.00  0.00    +0.000 A 
ATOM     26  N   UNL     1     -10.392   4.056  -1.563  0.00  0.00    +0.000 N 
ATOM     27  C   UNL     1      -9.259   4.769  -1.265  0.00  0.00    +0.000 A 
ATOM     28  O   UNL     1      -8.394   4.304  -0.525  0.00  0.00    +0.000 OA
ATOM     29  C   UNL     1      -9.180   6.073  -1.892  0.00  0.00    +0.000 A 
ATOM     30  H   UNL     1     -10.469   3.143  -1.139  0.00  0.00    +0.000 HD
ENDBRANCH  17  20
ENDBRANCH   1  16
TORSDOF 5
