REMARK  Name = 
REMARK  5 active torsions:
REMARK  status: ('A' for Active; 'I' for Inactive)
REMARK    1  A    between atoms: C_2  and  C_4
REMARK    2  A    between atoms: C_7  and  N_8
REMARK    3  A    between atoms: N_8  and  C_9
REMARK    4  A    between atoms: C_9  and  C_10
REMARK    5  A    between atoms: C_14  and  C_15
REMARK                            x       y       z     vdW  Elec       q    Type
REMARK                         _______ _______ _______ _____ _____    ______ ____
ROOT
ATOM      1  N   UNL     1       4.616   4.986  -2.962  0.00  0.00    +0.000 N 
ATOM      2  H   UNL     1       5.565   5.300  -2.774  0.00  0.00    +0.000 HD
ENDROOT
BRANCH   1   6
ATOM      3  C   UNL     1       2.605   3.501   0.440  0.00  0.00    +0.000 A 
ATOM      4  C   UNL     1       2.404   2.893  -0.799  0.00  0.00    +0.000 A 
ATOM      5  C   UNL     1       3.079   3.367  -1.930  0.00  0.00    +0.000 A 
ATOM      6  C   UNL     1       3.985   4.431  -1.849  0.00  0.00    +0.000 A 
ATOM      7  C   UNL     1       4.157   5.048  -0.600  0.00  0.00    +0.000 A 
ATOM      8  C   UNL     1       3.472   4.593   0.535  0.00  0.00    +0.000 A 
BRANCH   3  10
ATOM      9  N   UNL     1       1.519   1.718   1.691  0.00  0.00    +0.000 N 
ATOM     10  C   UNL     1       1.889   3.037   1.652  0.00  0.00    +0.000 C 
ATOM     11  O   UNL     1       1.662   3.783   2.596  0.00  0.00    +0.000 OA
ATOM     12  H   UNL     1       1.122   1.387   2.561  0.00  0.00    +0.000 HD
ATOM     13  H   UNL     1       1.907   1.031   1.061  0.00  0.00    +0.000 HD
ENDBRANCH   3  10
ENDBRANCH   1   6
BRANCH   1  14
ATOM     14  C   UNL     1       4.441   4.380  -4.274  0.00  0.00    +0.000 C 
BRANCH  14  15
ATOM     15  C   UNL     1       5.220   5.132  -5.325  0.00  0.00    +0.000 A 
ATOM     16  C   UNL     1       4.970   6.490  -5.564  0.00  0.00    +0.000 A 
ATOM     17  C   UNL     1       5.651   7.164  -6.573  0.00  0.00    +0.000 A 
ATOM     18  C   UNL     1       6.600   6.494  -7.345  0.00  0.00    +0.000 A 
ATOM     19  C   UNL     1       6.889   5.142  -7.112  0.00  0.00    +0.000 A 
ATOM     20  C   UNL     1       6.176   4.467  -6.110  0.00  0.00    +0.000 A 
BRANCH  19  21
ATOM     21  C   UNL     1       8.003   4.429  -7.860  0.00  0.00    +0.000 C 
ATOM     22  C   UNL     1       9.360   5.068  -7.523  0.00  0.00    +0.000 C 
ATOM     23  C   UNL     1      10.480   4.439  -8.334  0.00  0.00    +0.000 C 
ATOM     24  O   UNL     1      10.190   4.505  -9.729  0.00  0.00    +0.000 OA
ATOM     25  C   UNL     1       9.009   3.779 -10.068  0.00  0.00    +0.000 C 
ATOM     26  C   UNL     1       7.789   4.379  -9.380  0.00  0.00    +0.000 C 
ENDBRANCH  19  21
ENDBRANCH  14  15
ENDBRANCH   1  14
TORSDOF 5
