REMARK  Name = 
REMARK  8 active torsions:
REMARK  status: ('A' for Active; 'I' for Inactive)
REMARK    1  A    between atoms: C_1  and  C_2
REMARK    2  A    between atoms: N_6  and  C_7
REMARK    3  A    between atoms: C_7  and  C_8
REMARK    4  A    between atoms: C_8  and  C_11
REMARK    5  A    between atoms: C_15  and  O_16
REMARK    6  A    between atoms: O_16  and  C_17
REMARK    7  A    between atoms: N_19  and  C_20
REMARK    8  A    between atoms: C_24  and  C_25
REMARK                            x       y       z     vdW  Elec       q    Type
REMARK                         _______ _______ _______ _____ _____    ______ ____
ROOT
ATOM      1  C   UNL     1      -3.943   0.726   0.026  0.00  0.00    +0.000 C 
ENDROOT
BRANCH   1   7
ATOM      2  C   UNL     1       2.484   0.309   0.715  0.00  0.00    +0.000 C 
ATOM      3  C   UNL     1       1.010   0.173   0.496  0.00  0.00    +0.000 A 
ATOM      4  N   UNL     1       0.556  -1.099   0.354  0.00  0.00    +0.000 NA
ATOM      5  C   UNL     1      -0.782  -1.237   0.195  0.00  0.00    +0.000 A 
ATOM      6  C   UNL     1      -1.680  -0.168   0.148  0.00  0.00    +0.000 A 
ATOM      7  N   UNL     1      -3.049  -0.442   0.059  0.00  0.00    +0.000 N 
ATOM      8  N   UNL     1      -1.231   1.098   0.281  0.00  0.00    +0.000 NA
ATOM      9  C   UNL     1       0.126   1.253   0.452  0.00  0.00    +0.000 A 
ATOM     10  H   UNL     1      -3.256  -1.112  -0.678  0.00  0.00    +0.000 HD
BRANCH   9  11
ATOM     11  C   UNL     1       0.591   2.676   0.595  0.00  0.00    +0.000 C 
ATOM     12  N   UNL     1      -0.391   3.628   0.533  0.00  0.00    +0.000 N 
ATOM     13  O   UNL     1       1.760   3.006   0.757  0.00  0.00    +0.000 OA
ATOM     14  H   UNL     1      -1.358   3.352   0.412  0.00  0.00    +0.000 HD
ATOM     15  H   UNL     1      -0.142   4.602   0.635  0.00  0.00    +0.000 HD
ENDBRANCH   9  11
ENDBRANCH   1   7
BRANCH   1  16
ATOM     16  C   UNL     1      -5.442   0.323  -0.044  0.00  0.00    +0.000 C 
ATOM     17  F   UNL     1      -5.609  -0.404  -1.197  0.00  0.00    +0.000 F 
ATOM     18  F   UNL     1      -5.688  -0.568   0.967  0.00  0.00    +0.000 F 
BRANCH  16  19
ATOM     19  C   UNL     1      -6.426   1.477   0.021  0.00  0.00    +0.000 A 
ATOM     20  C   UNL     1      -7.801   1.199  -0.029  0.00  0.00    +0.000 A 
ATOM     21  C   UNL     1      -8.743   2.223   0.111  0.00  0.00    +0.000 A 
ATOM     22  C   UNL     1      -8.329   3.545   0.300  0.00  0.00    +0.000 A 
ATOM     23  C   UNL     1      -6.970   3.836   0.329  0.00  0.00    +0.000 A 
ATOM     24  C   UNL     1      -6.032   2.811   0.185  0.00  0.00    +0.000 A 
BRANCH  23  25
ATOM     25  O   UNL     1      -6.412   5.065   0.552  0.00  0.00    +0.000 OA
BRANCH  25  26
ATOM     26  C   UNL     1      -7.179   6.260   0.307  0.00  0.00    +0.000 C 
ATOM     27  C   UNL     1      -7.494   6.638  -1.158  0.00  0.00    +0.000 C 
ATOM     28  N   UNL     1      -6.978   8.004  -0.928  0.00  0.00    +0.000 NA
ATOM     29  C   UNL     1      -8.068   8.933  -0.633  0.00  0.00    +0.000 C 
ATOM     30  C   UNL     1      -6.335   7.557   0.322  0.00  0.00    +0.000 C 
ENDBRANCH  25  26
ENDBRANCH  23  25
ENDBRANCH  16  19
ENDBRANCH   1  16
TORSDOF 6
