REMARK  Name = 
REMARK  4 active torsions:
REMARK  status: ('A' for Active; 'I' for Inactive)
REMARK    1  A    between atoms: N_1  and  C_2
REMARK    2  A    between atoms: C_2  and  C_3
REMARK    3  A    between atoms: C_6  and  C_7
REMARK    4  A    between atoms: C_7  and  N_8
REMARK                            x       y       z     vdW  Elec       q    Type
REMARK                         _______ _______ _______ _____ _____    ______ ____
ROOT
ATOM      1  C   UNL     1       2.908   1.391  -0.145  0.00  0.00    +0.000 C 
ATOM      2  C   UNL     1       4.022   1.547   0.900  0.00  0.00    +0.000 C 
ATOM      3  C   UNL     1       4.750   2.879   0.776  0.00  0.00    +0.000 C 
ATOM      4  C   UNL     1       3.800   4.084   0.848  0.00  0.00    +0.000 C 
ATOM      5  C   UNL     1       2.641   3.921  -0.153  0.00  0.00    +0.000 C 
ATOM      6  C   UNL     1       1.925   2.568  -0.028  0.00  0.00    +0.000 C 
ENDROOT
BRANCH   1   7
ATOM      7  C   UNL     1       2.253   0.008   0.044  0.00  0.00    +0.000 C 
BRANCH   7   8
ATOM      8  N   UNL     1       1.193  -0.270  -0.916  0.00  0.00    +0.000 NA
ATOM      9  H   UNL     1       0.840  -1.214  -0.751  0.00  0.00    +0.000 HD
ATOM     10  H   UNL     1       1.579  -0.279  -1.859  0.00  0.00    +0.000 HD
ENDBRANCH   7   8
ENDBRANCH   1   7
BRANCH   4  11
ATOM     11  C   UNL     1       4.559   5.413   0.605  0.00  0.00    +0.000 C 
BRANCH  11  12
ATOM     12  N   UNL     1       5.645   5.651   1.549  0.00  0.00    +0.000 N 
ATOM     13  C   UNL     1       5.454   5.836   2.896  0.00  0.00    +0.000 A 
ATOM     14  C   UNL     1       6.687   5.844   3.505  0.00  0.00    +0.000 A 
ATOM     15  C   UNL     1       7.669   5.702   2.490  0.00  0.00    +0.000 A 
ATOM     16  C   UNL     1       9.077   5.615   2.510  0.00  0.00    +0.000 A 
ATOM     17  C   UNL     1       9.779   5.494   1.307  0.00  0.00    +0.000 A 
ATOM     18  C   UNL     1       9.099   5.495   0.093  0.00  0.00    +0.000 A 
ATOM     19  C   UNL     1       7.702   5.579   0.047  0.00  0.00    +0.000 A 
ATOM     20  C   UNL     1       6.999   5.650   1.262  0.00  0.00    +0.000 A 
ENDBRANCH  11  12
ENDBRANCH   4  11
TORSDOF 4
