REMARK  Name = 
REMARK  4 active torsions:
REMARK  status: ('A' for Active; 'I' for Inactive)
REMARK    1  A    between atoms: C_2  and  C_4
REMARK    2  A    between atoms: N_8  and  C_9
REMARK    3  A    between atoms: C_9  and  C_10
REMARK    4  A    between atoms: C_14  and  C_15
REMARK                            x       y       z     vdW  Elec       q    Type
REMARK                         _______ _______ _______ _____ _____    ______ ____
ROOT
ATOM      1  C   UNL     1       2.425   0.257   2.874  0.00  0.00    +0.000 A 
ATOM      2  C   UNL     1       2.137  -0.611   3.921  0.00  0.00    +0.000 A 
ATOM      3  C   UNL     1       3.156  -1.402   4.448  0.00  0.00    +0.000 A 
ATOM      4  C   UNL     1       4.438  -1.335   3.908  0.00  0.00    +0.000 A 
ATOM      5  N   UNL     1       5.517  -2.014   4.437  0.00  0.00    +0.000 N 
ATOM      6  N   UNL     1       4.724  -0.511   2.880  0.00  0.00    +0.000 NA
ATOM      7  C   UNL     1       3.720   0.260   2.381  0.00  0.00    +0.000 A 
ATOM      8  H   UNL     1       6.307  -1.878   3.811  0.00  0.00    +0.000 HD
ENDROOT
BRANCH   1  10
ATOM      9  N   UNL     1       0.372   1.539   3.073  0.00  0.00    +0.000 N 
ATOM     10  C   UNL     1       1.415   1.152   2.277  0.00  0.00    +0.000 C 
ATOM     11  O   UNL     1       1.522   1.558   1.127  0.00  0.00    +0.000 OA
ATOM     12  H   UNL     1      -0.260   2.229   2.683  0.00  0.00    +0.000 HD
ATOM     13  H   UNL     1       0.386   1.438   4.077  0.00  0.00    +0.000 HD
ENDBRANCH   1  10
BRANCH   5  14
ATOM     14  C   UNL     1       5.371  -3.368   4.939  0.00  0.00    +0.000 C 
BRANCH  14  15
ATOM     15  C   UNL     1       6.453  -3.681   5.948  0.00  0.00    +0.000 A 
ATOM     16  C   UNL     1       6.869  -4.997   6.149  0.00  0.00    +0.000 A 
ATOM     17  C   UNL     1       7.800  -5.250   7.143  0.00  0.00    +0.000 A 
ATOM     18  N   UNL     1       8.327  -4.299   7.945  0.00  0.00    +0.000 NA
ATOM     19  C   UNL     1       7.923  -3.018   7.761  0.00  0.00    +0.000 A 
ATOM     20  C   UNL     1       6.980  -2.689   6.788  0.00  0.00    +0.000 A 
BRANCH  19  21
ATOM     21  C   UNL     1       8.521  -2.015   8.657  0.00  0.00    +0.000 A 
ATOM     22  C   UNL     1       8.700  -0.672   8.286  0.00  0.00    +0.000 A 
ATOM     23  C   UNL     1       9.255   0.246   9.177  0.00  0.00    +0.000 A 
ATOM     24  C   UNL     1       9.625  -0.201  10.431  0.00  0.00    +0.000 A 
ATOM     25  N   UNL     1       9.485  -1.478  10.839  0.00  0.00    +0.000 NA
ATOM     26  C   UNL     1       8.947  -2.348   9.944  0.00  0.00    +0.000 A 
ENDBRANCH  19  21
ENDBRANCH  14  15
ENDBRANCH   5  14
TORSDOF 4
