REMARK  Name = 
REMARK  6 active torsions:
REMARK  status: ('A' for Active; 'I' for Inactive)
REMARK    1  A    between atoms: N_1  and  C_2
REMARK    2  A    between atoms: C_2  and  C_3
REMARK    3  A    between atoms: C_3  and  C_4
REMARK    4  A    between atoms: C_7  and  C_8
REMARK    5  A    between atoms: C_8  and  C_9
REMARK    6  A    between atoms: C_14  and  C_15
REMARK                            x       y       z     vdW  Elec       q    Type
REMARK                         _______ _______ _______ _____ _____    ______ ____
ROOT
ATOM      1  C   UNL     1       9.368  -2.388  -1.893  0.00  0.00    +0.000 A 
ATOM      2  N   UNL     1       9.580  -2.345  -3.200  0.00  0.00    +0.000 NA
ATOM      3  C   UNL     1      10.265  -3.493  -3.504  0.00  0.00    +0.000 A 
ATOM      4  C   UNL     1      10.479  -4.249  -2.376  0.00  0.00    +0.000 A 
ATOM      5  C   UNL     1      11.135  -5.467  -2.084  0.00  0.00    +0.000 A 
ATOM      6  C   UNL     1      11.164  -5.909  -0.815  0.00  0.00    +0.000 A 
ATOM      7  C   UNL     1      10.506  -5.027   0.193  0.00  0.00    +0.000 A 
ATOM      8  N   UNL     1       9.890  -3.904  -0.029  0.00  0.00    +0.000 NA
ATOM      9  N   UNL     1       9.893  -3.543  -1.344  0.00  0.00    +0.000 N 
ENDROOT
BRANCH   6  10
ATOM     10  C   UNL     1      11.860  -7.147  -0.377  0.00  0.00    +0.000 C 
ATOM     11  N   UNL     1      12.129  -8.095  -1.313  0.00  0.00    +0.000 N 
ATOM     12  O   UNL     1      12.154  -7.333   0.799  0.00  0.00    +0.000 OA
ATOM     13  H   UNL     1      11.803  -8.073  -2.269  0.00  0.00    +0.000 HD
ATOM     14  H   UNL     1      12.553  -8.954  -0.982  0.00  0.00    +0.000 HD
ENDBRANCH   6  10
BRANCH   1  15
ATOM     15  C   UNL     1       8.755  -1.307  -1.061  0.00  0.00    +0.000 C 
BRANCH  15  19
ATOM     16  C   UNL     1       4.425  -1.535  -0.815  0.00  0.00    +0.000 A 
ATOM     17  C   UNL     1       5.229  -2.141   0.158  0.00  0.00    +0.000 A 
ATOM     18  C   UNL     1       6.624  -2.064   0.083  0.00  0.00    +0.000 A 
ATOM     19  C   UNL     1       7.246  -1.372  -0.964  0.00  0.00    +0.000 A 
ATOM     20  C   UNL     1       6.439  -0.741  -1.922  0.00  0.00    +0.000 A 
ATOM     21  C   UNL     1       5.044  -0.813  -1.844  0.00  0.00    +0.000 A 
BRANCH  16  22
ATOM     22  C   UNL     1       2.922  -1.693  -0.771  0.00  0.00    +0.000 C 
BRANCH  22  23
ATOM     23  C   UNL     1       2.217  -0.617   0.061  0.00  0.00    +0.000 C 
BRANCH  23  24
ATOM     24  N   UNL     1       0.772  -0.854   0.101  0.00  0.00    +0.000 NA
ATOM     25  H   UNL     1       0.329  -0.144   0.684  0.00  0.00    +0.000 HD
ATOM     26  H   UNL     1       0.584  -1.749   0.553  0.00  0.00    +0.000 HD
ENDBRANCH  23  24
ENDBRANCH  22  23
ENDBRANCH  16  22
ENDBRANCH  15  19
ENDBRANCH   1  15
TORSDOF 6
