REMARK  Name = 
REMARK  5 active torsions:
REMARK  status: ('A' for Active; 'I' for Inactive)
REMARK    1  A    between atoms: C_2  and  C_3
REMARK    2  A    between atoms: C_6  and  N_7
REMARK    3  A    between atoms: N_7  and  C_8
REMARK    4  A    between atoms: C_8  and  C_9
REMARK    5  A    between atoms: C_13  and  C_14
REMARK                            x       y       z     vdW  Elec       q    Type
REMARK                         _______ _______ _______ _____ _____    ______ ____
ROOT
ATOM      1  C   UNL     1       8.682  -0.912  -0.703  0.00  0.00    +0.000 C 
ATOM      2  C   UNL     1       8.445  -1.727  -1.966  0.00  0.00    +0.000 C 
ATOM      3  C   UNL     1       9.043  -2.378  -0.762  0.00  0.00    +0.000 C 
ENDROOT
BRANCH   1   4
ATOM      4  C   UNL     1       9.763   0.153  -0.701  0.00  0.00    +0.000 A 
ATOM      5  C   UNL     1       9.780   1.173  -1.665  0.00  0.00    +0.000 A 
ATOM      6  C   UNL     1      10.569   2.308  -1.496  0.00  0.00    +0.000 A 
ATOM      7  C   UNL     1      11.385   2.429  -0.370  0.00  0.00    +0.000 A 
ATOM      8  C   UNL     1      11.465   1.402   0.585  0.00  0.00    +0.000 A 
ATOM      9  C   UNL     1      10.649   0.272   0.385  0.00  0.00    +0.000 A 
BRANCH   8  10
ATOM     10  C   UNL     1      12.326   1.513   1.784  0.00  0.00    +0.000 A 
ATOM     11  C   UNL     1      12.510   2.739   2.448  0.00  0.00    +0.000 A 
ATOM     12  C   UNL     1      13.325   2.838   3.581  0.00  0.00    +0.000 A 
ATOM     13  C   UNL     1      13.961   1.708   4.086  0.00  0.00    +0.000 A 
ATOM     14  C   UNL     1      13.785   0.480   3.458  0.00  0.00    +0.000 A 
ATOM     15  C   UNL     1      12.982   0.387   2.317  0.00  0.00    +0.000 A 
ENDBRANCH   8  10
ENDBRANCH   1   4
BRANCH   1  16
ATOM     16  N   UNL     1       7.462  -0.421  -0.078  0.00  0.00    +0.000 N 
ATOM     17  H   UNL     1       6.935   0.318  -0.531  0.00  0.00    +0.000 HD
BRANCH  16  21
ATOM     18  C   UNL     1       5.852  -0.956   3.644  0.00  0.00    +0.000 A 
ATOM     19  C   UNL     1       5.276  -0.152   2.676  0.00  0.00    +0.000 A 
ATOM     20  N   UNL     1       5.847   0.055   1.466  0.00  0.00    +0.000 NA
ATOM     21  C   UNL     1       7.018  -0.576   1.221  0.00  0.00    +0.000 A 
ATOM     22  C   UNL     1       7.608  -1.356   2.210  0.00  0.00    +0.000 A 
ATOM     23  N   UNL     1       7.045  -1.566   3.438  0.00  0.00    +0.000 NA
BRANCH  18  25
ATOM     24  N   UNL     1       4.568  -1.367   5.854  0.00  0.00    +0.000 NA
ATOM     25  C   UNL     1       5.175  -1.199   4.882  0.00  0.00    +0.000 C 
ENDBRANCH  18  25
ENDBRANCH  16  21
ENDBRANCH   1  16
TORSDOF 5
