REMARK  Name = 
REMARK  8 active torsions:
REMARK  status: ('A' for Active; 'I' for Inactive)
REMARK    1  A    between atoms: N_1  and  C_2
REMARK    2  A    between atoms: C_2  and  C_3
REMARK    3  A    between atoms: C_3  and  N_4
REMARK    4  A    between atoms: C_3  and  C_17
REMARK    5  A    between atoms: C_5  and  C_7
REMARK    6  A    between atoms: C_20  and  C_21
REMARK    7  A    between atoms: C_21  and  N_22
REMARK    8  A    between atoms: C_23  and  C_25
REMARK                            x       y       z     vdW  Elec       q    Type
REMARK                         _______ _______ _______ _____ _____    ______ ____
ROOT
ATOM      1  C   UNL     1       2.969  -0.425   1.236  0.00  0.00    +0.000 C 
ENDROOT
BRANCH   1   2
ATOM      2  C   UNL     1       4.498  -0.481   1.325  0.00  0.00    +0.000 A 
ATOM      3  C   UNL     1       5.182   0.286   2.281  0.00  0.00    +0.000 A 
ATOM      4  C   UNL     1       6.581   0.238   2.377  0.00  0.00    +0.000 A 
ATOM      5  C   UNL     1       7.332  -0.573   1.517  0.00  0.00    +0.000 A 
ATOM      6  C   UNL     1       6.651  -1.361   0.580  0.00  0.00    +0.000 A 
ATOM      7  C   UNL     1       5.254  -1.313   0.483  0.00  0.00    +0.000 A 
BRANCH   5   8
ATOM      8  C   UNL     1       8.839  -0.592   1.586  0.00  0.00    +0.000 C 
BRANCH   8   9
ATOM      9  N   UNL     1       9.346  -1.593   2.490  0.00  0.00    +0.000 N 
ATOM     10  C   UNL     1      10.701  -1.826   2.609  0.00  0.00    +0.000 C 
ATOM     11  O   UNL     1      11.530  -1.209   1.944  0.00  0.00    +0.000 OA
ATOM     12  H   UNL     1       8.720  -2.083   3.118  0.00  0.00    +0.000 HD
BRANCH  10  13
ATOM     13  C   UNL     1      11.056  -2.851   3.572  0.00  0.00    +0.000 A 
ATOM     14  C   UNL     1      12.288  -3.329   3.981  0.00  0.00    +0.000 A 
ATOM     15  C   UNL     1      12.038  -4.346   4.933  0.00  0.00    +0.000 A 
ATOM     16  C   UNL     1      10.671  -4.431   5.050  0.00  0.00    +0.000 A 
ATOM     17  O   UNL     1      10.064  -3.528   4.236  0.00  0.00    +0.000 OA
ENDBRANCH  10  13
ENDBRANCH   8   9
ENDBRANCH   5   8
ENDBRANCH   1   2
BRANCH   1  18
ATOM     18  N   UNL     1       2.436  -1.733   1.603  0.00  0.00    +0.000 N 
ATOM     19  C   UNL     1       1.096  -1.975   1.778  0.00  0.00    +0.000 C 
ATOM     20  O   UNL     1       0.227  -1.152   1.509  0.00  0.00    +0.000 OA
ATOM     21  H   UNL     1       3.090  -2.349   2.074  0.00  0.00    +0.000 HD
BRANCH  19  22
ATOM     22  C   UNL     1       0.743  -3.311   2.265  0.00  0.00    +0.000 A 
ATOM     23  C   UNL     1      -0.465  -3.892   1.906  0.00  0.00    +0.000 A 
ATOM     24  S   UNL     1      -0.707  -5.436   2.593  0.00  0.00    +0.000 S 
ATOM     25  C   UNL     1       0.773  -5.356   3.431  0.00  0.00    +0.000 A 
ATOM     26  N   UNL     1       1.163  -6.353   4.269  0.00  0.00    +0.000 NA
ATOM     27  C   UNL     1       2.287  -6.137   4.867  0.00  0.00    +0.000 A 
ATOM     28  N   UNL     1       3.068  -5.025   4.689  0.00  0.00    +0.000 N 
ATOM     29  C   UNL     1       2.742  -4.021   3.812  0.00  0.00    +0.000 A 
ATOM     30  O   UNL     1       3.509  -3.088   3.596  0.00  0.00    +0.000 OA
ATOM     31  C   UNL     1       1.462  -4.190   3.153  0.00  0.00    +0.000 A 
ATOM     32  H   UNL     1       3.954  -4.930   5.164  0.00  0.00    +0.000 HD
ENDBRANCH  19  22
ENDBRANCH   1  18
BRANCH   1  33
ATOM     33  C   UNL     1       2.471   0.038  -0.168  0.00  0.00    +0.000 C 
BRANCH  33  34
ATOM     34  N   UNL     1       2.975   1.348  -0.602  0.00  0.00    +0.000 NA
ATOM     35  H   UNL     1       2.744   1.475  -1.586  0.00  0.00    +0.000 HD
ATOM     36  H   UNL     1       3.993   1.356  -0.541  0.00  0.00    +0.000 HD
ENDBRANCH  33  34
ENDBRANCH   1  33
TORSDOF 8
