REMARK  Name = 
REMARK  5 active torsions:
REMARK  status: ('A' for Active; 'I' for Inactive)
REMARK    1  A    between atoms: C_2  and  C_17
REMARK    2  A    between atoms: N_3  and  C_4
REMARK    3  A    between atoms: C_4  and  C_5
REMARK    4  A    between atoms: C_8  and  C_9
REMARK    5  A    between atoms: C_9  and  C_10
REMARK                            x       y       z     vdW  Elec       q    Type
REMARK                         _______ _______ _______ _____ _____    ______ ____
ROOT
ATOM      1  O   UNL     1      -0.375   2.867  -1.981  0.00  0.00    +0.000 OA
ATOM      2  C   UNL     1       0.057   1.931  -2.647  0.00  0.00    +0.000 C 
ATOM      3  N   UNL     1       1.286   1.366  -2.422  0.00  0.00    +0.000 N 
ATOM      4  H   UNL     1       1.669   0.740  -3.120  0.00  0.00    +0.000 HD
ENDROOT
BRANCH   2   5
ATOM      5  C   UNL     1      -0.751   1.302  -3.700  0.00  0.00    +0.000 A 
ATOM      6  C   UNL     1      -2.131   1.435  -3.688  0.00  0.00    +0.000 A 
ATOM      7  S   UNL     1      -2.910   0.596  -4.953  0.00  0.00    +0.000 S 
ATOM      8  C   UNL     1      -1.424   0.074  -5.596  0.00  0.00    +0.000 A 
ATOM      9  N   UNL     1      -1.377  -0.692  -6.721  0.00  0.00    +0.000 NA
ATOM     10  C   UNL     1      -0.182  -0.974  -7.124  0.00  0.00    +0.000 A 
ATOM     11  N   UNL     1       0.968  -0.568  -6.502  0.00  0.00    +0.000 N 
ATOM     12  C   UNL     1       0.967   0.138  -5.323  0.00  0.00    +0.000 A 
ATOM     13  O   UNL     1       2.014   0.371  -4.727  0.00  0.00    +0.000 OA
ATOM     14  C   UNL     1      -0.349   0.516  -4.847  0.00  0.00    +0.000 A 
ATOM     15  H   UNL     1       1.874  -0.843  -6.853  0.00  0.00    +0.000 HD
ENDBRANCH   2   5
BRANCH   3  16
ATOM     16  C   UNL     1       2.240   1.908  -1.491  0.00  0.00    +0.000 C 
BRANCH  16  17
ATOM     17  C   UNL     1       3.154   2.898  -2.164  0.00  0.00    +0.000 A 
ATOM     18  C   UNL     1       2.780   4.241  -2.236  0.00  0.00    +0.000 A 
ATOM     19  C   UNL     1       3.602   5.174  -2.869  0.00  0.00    +0.000 A 
ATOM     20  C   UNL     1       4.833   4.797  -3.420  0.00  0.00    +0.000 A 
ATOM     21  C   UNL     1       5.187   3.442  -3.382  0.00  0.00    +0.000 A 
ATOM     22  C   UNL     1       4.351   2.498  -2.771  0.00  0.00    +0.000 A 
BRANCH  20  23
ATOM     23  C   UNL     1       5.713   5.809  -4.122  0.00  0.00    +0.000 C 
BRANCH  23  24
ATOM     24  C   UNL     1       6.295   6.940  -3.248  0.00  0.00    +0.000 C 
ATOM     25  C   UNL     1       5.266   7.908  -2.678  0.00  0.00    +0.000 C 
ATOM     26  C   UNL     1       6.046   9.182  -2.436  0.00  0.00    +0.000 C 
ATOM     27  C   UNL     1       7.159   9.152  -3.467  0.00  0.00    +0.000 C 
ATOM     28  N   UNL     1       7.142   7.821  -4.074  0.00  0.00    +0.000 NA
ATOM     29  H   UNL     1       8.086   7.445  -4.149  0.00  0.00    +0.000 HD
ENDBRANCH  23  24
ENDBRANCH  20  23
ENDBRANCH  16  17
ENDBRANCH   3  16
TORSDOF 5
