REMARK  Name = 
REMARK  4 active torsions:
REMARK  status: ('A' for Active; 'I' for Inactive)
REMARK    1  A    between atoms: C_1  and  O_2
REMARK    2  A    between atoms: O_2  and  C_3
REMARK    3  A    between atoms: N_10  and  C_11
REMARK    4  A    between atoms: C_11  and  C_12
REMARK                            x       y       z     vdW  Elec       q    Type
REMARK                         _______ _______ _______ _____ _____    ______ ____
ROOT
ATOM      1  C   UNL     1       3.120   0.838   1.000  0.00  0.00    +0.000 A 
ATOM      2  C   UNL     1       2.595   0.876   2.290  0.00  0.00    +0.000 A 
ATOM      3  C   UNL     1       3.285   1.505   3.339  0.00  0.00    +0.000 A 
ATOM      4  C   UNL     1       4.528   2.093   3.058  0.00  0.00    +0.000 A 
ATOM      5  C   UNL     1       5.059   2.097   1.767  0.00  0.00    +0.000 A 
ATOM      6  C   UNL     1       6.303   2.781   1.819  0.00  0.00    +0.000 A 
ATOM      7  C   UNL     1       6.531   3.131   3.129  0.00  0.00    +0.000 A 
ATOM      8  N   UNL     1       5.457   2.706   3.880  0.00  0.00    +0.000 N 
ATOM      9  C   UNL     1       4.345   1.460   0.730  0.00  0.00    +0.000 A 
ENDROOT
BRANCH   1  11
ATOM     10  C   UNL     1       1.326  -0.466   0.141  0.00  0.00    +0.000 C 
ATOM     11  O   UNL     1       2.545   0.229  -0.084  0.00  0.00    +0.000 OA
ENDBRANCH   1  11
BRANCH   8  12
ATOM     12  C   UNL     1       5.449   2.677   5.340  0.00  0.00    +0.000 C 
BRANCH  12  13
ATOM     13  C   UNL     1       4.907   3.918   6.001  0.00  0.00    +0.000 A 
ATOM     14  C   UNL     1       5.466   5.175   5.769  0.00  0.00    +0.000 A 
ATOM     15  C   UNL     1       5.054   6.258   6.546  0.00  0.00    +0.000 A 
ATOM     16  C   UNL     1       4.094   6.066   7.530  0.00  0.00    +0.000 A 
ATOM     17  C   UNL     1       3.573   4.796   7.690  0.00  0.00    +0.000 A 
ATOM     18  N   UNL     1       3.959   3.726   6.957  0.00  0.00    +0.000 NA
ENDBRANCH  12  13
ENDBRANCH   8  12
TORSDOF 3
