REMARK  Name = 
REMARK  6 active torsions:
REMARK  status: ('A' for Active; 'I' for Inactive)
REMARK    1  A    between atoms: C_2  and  C_4
REMARK    2  A    between atoms: C_7  and  N_8
REMARK    3  A    between atoms: N_8  and  C_9
REMARK    4  A    between atoms: C_9  and  C_10
REMARK    5  A    between atoms: C_10  and  C_13
REMARK    6  A    between atoms: C_17  and  C_18
REMARK                            x       y       z     vdW  Elec       q    Type
REMARK                         _______ _______ _______ _____ _____    ______ ____
ROOT
ATOM      1  C   UNL     1       5.909  -3.773  -6.162  0.00  0.00    +0.000 C 
ATOM      2  F   UNL     1       7.205  -3.357  -6.065  0.00  0.00    +0.000 F 
ATOM      3  F   UNL     1       5.883  -5.017  -5.593  0.00  0.00    +0.000 F 
ENDROOT
BRANCH   1   4
ATOM      4  C   UNL     1       5.423  -3.785  -7.599  0.00  0.00    +0.000 A 
ATOM      5  C   UNL     1       4.505  -4.746  -8.035  0.00  0.00    +0.000 A 
ATOM      6  C   UNL     1       4.010  -4.699  -9.335  0.00  0.00    +0.000 A 
ATOM      7  C   UNL     1       4.406  -3.674 -10.198  0.00  0.00    +0.000 A 
ATOM      8  C   UNL     1       5.294  -2.664  -9.786  0.00  0.00    +0.000 A 
ATOM      9  C   UNL     1       5.822  -2.766  -8.486  0.00  0.00    +0.000 A 
BRANCH   8  10
ATOM     10  C   UNL     1       5.580  -1.487 -10.640  0.00  0.00    +0.000 A 
ATOM     11  C   UNL     1       4.583  -0.938 -11.460  0.00  0.00    +0.000 A 
ATOM     12  C   UNL     1       4.845   0.214 -12.186  0.00  0.00    +0.000 A 
ATOM     13  N   UNL     1       6.025   0.862 -12.159  0.00  0.00    +0.000 NA
ATOM     14  C   UNL     1       6.983   0.328 -11.375  0.00  0.00    +0.000 A 
ATOM     15  C   UNL     1       6.816  -0.825 -10.620  0.00  0.00    +0.000 A 
ENDBRANCH   8  10
ENDBRANCH   1   4
BRANCH   1  16
ATOM     16  C   UNL     1       5.004  -2.835  -5.319  0.00  0.00    +0.000 C 
BRANCH  16  17
ATOM     17  N   UNL     1       5.380  -2.776  -3.897  0.00  0.00    +0.000 N 
ATOM     18  H   UNL     1       5.709  -3.661  -3.512  0.00  0.00    +0.000 HD
BRANCH  17  22
ATOM     19  C   UNL     1       3.371  -0.335  -1.103  0.00  0.00    +0.000 A 
ATOM     20  C   UNL     1       2.935  -0.363  -2.428  0.00  0.00    +0.000 A 
ATOM     21  C   UNL     1       3.582  -1.181  -3.362  0.00  0.00    +0.000 A 
ATOM     22  C   UNL     1       4.651  -2.007  -2.995  0.00  0.00    +0.000 A 
ATOM     23  C   UNL     1       5.095  -1.943  -1.664  0.00  0.00    +0.000 A 
ATOM     24  C   UNL     1       4.469  -1.113  -0.727  0.00  0.00    +0.000 A 
BRANCH  19  26
ATOM     25  N   UNL     1       1.398   0.817  -0.262  0.00  0.00    +0.000 N 
ATOM     26  C   UNL     1       2.724   0.532  -0.087  0.00  0.00    +0.000 C 
ATOM     27  O   UNL     1       3.333   0.945   0.893  0.00  0.00    +0.000 OA
ATOM     28  H   UNL     1       0.946   1.311   0.496  0.00  0.00    +0.000 HD
ATOM     29  H   UNL     1       0.813   0.290  -0.895  0.00  0.00    +0.000 HD
ENDBRANCH  19  26
ENDBRANCH  17  22
ENDBRANCH  16  17
ENDBRANCH   1  16
TORSDOF 6
