REMARK  Name = 
REMARK  3 active torsions:
REMARK  status: ('A' for Active; 'I' for Inactive)
REMARK    1  A    between atoms: C_2  and  C_4
REMARK    2  A    between atoms: N_8  and  C_9
REMARK    3  A    between atoms: C_9  and  C_10
REMARK                            x       y       z     vdW  Elec       q    Type
REMARK                         _______ _______ _______ _____ _____    ______ ____
ROOT
ATOM      1  C   UNL     1       2.962   0.697   1.282  0.00  0.00    +0.000 A 
ATOM      2  C   UNL     1       4.000   1.530   0.907  0.00  0.00    +0.000 A 
ATOM      3  C   UNL     1       4.808   2.097   1.898  0.00  0.00    +0.000 A 
ATOM      4  C   UNL     1       4.571   1.799   3.242  0.00  0.00    +0.000 A 
ATOM      5  N   UNL     1       5.338   2.439   4.219  0.00  0.00    +0.000 N 
ATOM      6  N   UNL     1       3.553   0.999   3.612  0.00  0.00    +0.000 NA
ATOM      7  C   UNL     1       2.761   0.475   2.635  0.00  0.00    +0.000 A 
ATOM      8  H   UNL     1       6.302   2.620   3.955  0.00  0.00    +0.000 HD
ENDROOT
BRANCH   1  10
ATOM      9  N   UNL     1       2.539  -0.123  -0.963  0.00  0.00    +0.000 N 
ATOM     10  C   UNL     1       2.035   0.107   0.291  0.00  0.00    +0.000 C 
ATOM     11  O   UNL     1       0.887  -0.161   0.577  0.00  0.00    +0.000 OA
ATOM     12  H   UNL     1       1.911  -0.559  -1.634  0.00  0.00    +0.000 HD
ATOM     13  H   UNL     1       3.520  -0.100  -1.183  0.00  0.00    +0.000 HD
ENDBRANCH   1  10
BRANCH   5  14
ATOM     14  C   UNL     1       5.082   2.083   5.610  0.00  0.00    +0.000 C 
BRANCH  14  15
ATOM     15  C   UNL     1       6.077   2.772   6.570  0.00  0.00    +0.000 C 
ATOM     16  C   UNL     1       5.729   2.411   8.030  0.00  0.00    +0.000 C 
ATOM     17  C   UNL     1       6.611   3.147   9.035  0.00  0.00    +0.000 C 
ATOM     18  C   UNL     1       6.549   4.656   8.824  0.00  0.00    +0.000 C 
ATOM     19  C   UNL     1       6.925   5.027   7.394  0.00  0.00    +0.000 C 
ATOM     20  C   UNL     1       6.053   4.296   6.379  0.00  0.00    +0.000 C 
ENDBRANCH  14  15
ENDBRANCH   5  14
TORSDOF 3
