REMARK  Name = 
REMARK  5 active torsions:
REMARK  status: ('A' for Active; 'I' for Inactive)
REMARK    1  A    between atoms: C_2  and  C_4
REMARK    2  A    between atoms: C_7  and  O_8
REMARK    3  A    between atoms: O_8  and  C_9
REMARK    4  A    between atoms: C_9  and  C_10
REMARK    5  A    between atoms: C_14  and  C_15
REMARK                            x       y       z     vdW  Elec       q    Type
REMARK                         _______ _______ _______ _____ _____    ______ ____
ROOT
ATOM      1  C   UNL     1       5.364  -5.434   1.602  0.00  0.00    +0.000 C 
ENDROOT
BRANCH   1   2
ATOM      2  C   UNL     1       6.347  -6.347   2.300  0.00  0.00    +0.000 A 
ATOM      3  C   UNL     1       7.434  -5.797   2.990  0.00  0.00    +0.000 A 
ATOM      4  C   UNL     1       8.312  -6.620   3.688  0.00  0.00    +0.000 A 
ATOM      5  C   UNL     1       8.099  -8.001   3.722  0.00  0.00    +0.000 A 
ATOM      6  C   UNL     1       6.994  -8.588   3.080  0.00  0.00    +0.000 A 
ATOM      7  C   UNL     1       6.134  -7.734   2.365  0.00  0.00    +0.000 A 
BRANCH   6   8
ATOM      8  C   UNL     1       6.709 -10.036   3.197  0.00  0.00    +0.000 A 
ATOM      9  C   UNL     1       6.968 -10.731   4.386  0.00  0.00    +0.000 A 
ATOM     10  C   UNL     1       6.649 -12.077   4.477  0.00  0.00    +0.000 A 
ATOM     11  N   UNL     1       6.083 -12.783   3.478  0.00  0.00    +0.000 NA
ATOM     12  C   UNL     1       5.836 -12.110   2.337  0.00  0.00    +0.000 A 
ATOM     13  C   UNL     1       6.131 -10.767   2.150  0.00  0.00    +0.000 A 
ENDBRANCH   6   8
ENDBRANCH   1   2
BRANCH   1  14
ATOM     14  O   UNL     1       4.806  -6.077   0.449  0.00  0.00    +0.000 OA
BRANCH  14  18
ATOM     15  C   UNL     1       2.042  -3.737  -1.509  0.00  0.00    +0.000 A 
ATOM     16  C   UNL     1       2.329  -5.015  -1.989  0.00  0.00    +0.000 A 
ATOM     17  C   UNL     1       3.266  -5.802  -1.316  0.00  0.00    +0.000 A 
ATOM     18  C   UNL     1       3.881  -5.278  -0.188  0.00  0.00    +0.000 A 
ATOM     19  N   UNL     1       3.623  -4.044   0.297  0.00  0.00    +0.000 NA
ATOM     20  C   UNL     1       2.718  -3.298  -0.378  0.00  0.00    +0.000 A 
BRANCH  15  22
ATOM     21  N   UNL     1       0.081  -3.354  -2.893  0.00  0.00    +0.000 N 
ATOM     22  C   UNL     1       1.092  -2.809  -2.152  0.00  0.00    +0.000 C 
ATOM     23  O   UNL     1       1.180  -1.598  -1.999  0.00  0.00    +0.000 OA
ATOM     24  H   UNL     1      -0.620  -2.705  -3.230  0.00  0.00    +0.000 HD
ATOM     25  H   UNL     1      -0.175  -4.328  -2.836  0.00  0.00    +0.000 HD
ENDBRANCH  15  22
ENDBRANCH  14  18
ENDBRANCH   1  14
TORSDOF 5
