REMARK  Name = 
REMARK  8 active torsions:
REMARK  status: ('A' for Active; 'I' for Inactive)
REMARK    1  A    between atoms: C_1  and  C_2
REMARK    2  A    between atoms: C_2  and  C_3
REMARK    3  A    between atoms: C_2  and  C_4
REMARK    4  A    between atoms: C_2  and  C_5
REMARK    5  A    between atoms: C_8  and  C_9
REMARK    6  A    between atoms: C_9  and  N_10
REMARK    7  A    between atoms: C_15  and  C_16
REMARK    8  A    between atoms: C_16  and  O_18
REMARK                            x       y       z     vdW  Elec       q    Type
REMARK                         _______ _______ _______ _____ _____    ______ ____
ROOT
ATOM      1  N   UNL     1       2.680   6.156   2.147  0.00  0.00    +0.000 N 
ATOM      2  C   UNL     1       1.915   6.116   3.291  0.00  0.00    +0.000 A 
ATOM      3  C   UNL     1       0.902   7.041   3.160  0.00  0.00    +0.000 A 
ATOM      4  C   UNL     1       1.054   7.670   1.900  0.00  0.00    +0.000 A 
ATOM      5  C   UNL     1       0.371   8.689   1.208  0.00  0.00    +0.000 A 
ATOM      6  C   UNL     1       0.849   9.043  -0.057  0.00  0.00    +0.000 A 
ATOM      7  C   UNL     1       1.976   8.397  -0.557  0.00  0.00    +0.000 A 
ATOM      8  N   UNL     1       2.669   7.411   0.072  0.00  0.00    +0.000 NA
ATOM      9  C   UNL     1       2.167   7.097   1.284  0.00  0.00    +0.000 A 
ENDROOT
BRANCH   6  10
ATOM     10  C   UNL     1       0.248  10.120  -0.871  0.00  0.00    +0.000 C 
ATOM     11  O   UNL     1       0.895  10.771  -1.674  0.00  0.00    +0.000 OA
BRANCH  10  12
ATOM     12  O   UNL     1      -1.073  10.305  -0.671  0.00  0.00    +0.000 OA
ATOM     13  H   UNL     1      -1.525   9.623  -0.142  0.00  0.00    +0.000 HD
ENDBRANCH  10  12
ENDBRANCH   6  10
BRANCH   1  14
ATOM     14  C   UNL     1       3.900   5.383   1.931  0.00  0.00    +0.000 C 
BRANCH  14  18
ATOM     15  C   UNL     1       3.002   1.386   0.429  0.00  0.00    +0.000 A 
ATOM     16  C   UNL     1       2.726   2.540  -0.321  0.00  0.00    +0.000 A 
ATOM     17  C   UNL     1       3.027   3.818   0.159  0.00  0.00    +0.000 A 
ATOM     18  C   UNL     1       3.612   3.995   1.415  0.00  0.00    +0.000 A 
ATOM     19  C   UNL     1       3.938   2.854   2.158  0.00  0.00    +0.000 A 
ATOM     20  C   UNL     1       3.639   1.572   1.670  0.00  0.00    +0.000 A 
BRANCH  15  22
ATOM     21  C   UNL     1       1.847  -0.007  -1.405  0.00  0.00    +0.000 C 
ATOM     22  C   UNL     1       2.609  -0.021  -0.059  0.00  0.00    +0.000 C 
ATOM     23  C   UNL     1       1.682  -0.695   0.976  0.00  0.00    +0.000 C 
ATOM     24  C   UNL     1       3.863  -0.898  -0.249  0.00  0.00    +0.000 C 
ENDBRANCH  15  22
ENDBRANCH  14  18
ENDBRANCH   1  14
TORSDOF 5
