REMARK  Name = 
REMARK  4 active torsions:
REMARK  status: ('A' for Active; 'I' for Inactive)
REMARK    1  A    between atoms: C_2  and  C_4
REMARK    2  A    between atoms: N_8  and  C_9
REMARK    3  A    between atoms: C_9  and  C_10
REMARK    4  A    between atoms: C_14  and  C_15
REMARK                            x       y       z     vdW  Elec       q    Type
REMARK                         _______ _______ _______ _____ _____    ______ ____
ROOT
ATOM      1  C   UNL     1       4.899   2.632  -5.353  0.00  0.00    +0.000 C 
ATOM      2  C   UNL     1       4.876   4.119  -5.020  0.00  0.00    +0.000 C 
ATOM      3  C   UNL     1       3.624   3.450  -5.483  0.00  0.00    +0.000 C 
ENDROOT
BRANCH   1   8
ATOM      4  C   UNL     1       3.475  -1.766  -2.899  0.00  0.00    +0.000 A 
ATOM      5  C   UNL     1       2.676  -0.817  -3.514  0.00  0.00    +0.000 A 
ATOM      6  C   UNL     1       3.248   0.376  -3.949  0.00  0.00    +0.000 A 
ATOM      7  C   UNL     1       4.617   0.566  -3.833  0.00  0.00    +0.000 A 
ATOM      8  N   UNL     1       5.255   1.754  -4.212  0.00  0.00    +0.000 N 
ATOM      9  N   UNL     1       5.402  -0.354  -3.225  0.00  0.00    +0.000 NA
ATOM     10  C   UNL     1       4.822  -1.486  -2.743  0.00  0.00    +0.000 A 
ATOM     11  H   UNL     1       6.251   1.549  -4.113  0.00  0.00    +0.000 HD
BRANCH   4  13
ATOM     12  N   UNL     1       1.774  -3.474  -2.993  0.00  0.00    +0.000 N 
ATOM     13  C   UNL     1       2.897  -3.011  -2.351  0.00  0.00    +0.000 C 
ATOM     14  O   UNL     1       3.383  -3.577  -1.401  0.00  0.00    +0.000 OA
ATOM     15  H   UNL     1       1.372  -4.339  -2.652  0.00  0.00    +0.000 HD
ATOM     16  H   UNL     1       1.465  -3.124  -3.887  0.00  0.00    +0.000 HD
ENDBRANCH   4  13
ENDBRANCH   1   8
BRANCH   1  17
ATOM     17  C   UNL     1       5.569   2.181  -6.638  0.00  0.00    +0.000 A 
ATOM     18  C   UNL     1       6.968   2.103  -6.727  0.00  0.00    +0.000 A 
ATOM     19  C   UNL     1       7.586   1.480  -7.804  0.00  0.00    +0.000 A 
ATOM     20  C   UNL     1       6.810   0.924  -8.811  0.00  0.00    +0.000 A 
ATOM     21  C   UNL     1       5.406   0.976  -8.761  0.00  0.00    +0.000 A 
ATOM     22  C   UNL     1       4.810   1.653  -7.692  0.00  0.00    +0.000 A 
BRANCH  21  23
ATOM     23  C   UNL     1       4.589   0.198  -9.700  0.00  0.00    +0.000 A 
ATOM     24  C   UNL     1       5.079  -1.031 -10.176  0.00  0.00    +0.000 A 
ATOM     25  C   UNL     1       4.323  -1.836 -11.018  0.00  0.00    +0.000 A 
ATOM     26  C   UNL     1       3.048  -1.429 -11.395  0.00  0.00    +0.000 A 
ATOM     27  C   UNL     1       2.532  -0.222 -10.928  0.00  0.00    +0.000 A 
ATOM     28  C   UNL     1       3.296   0.588 -10.087  0.00  0.00    +0.000 A 
ENDBRANCH  21  23
ENDBRANCH   1  17
TORSDOF 4
