REMARK  Name = 
REMARK  6 active torsions:
REMARK  status: ('A' for Active; 'I' for Inactive)
REMARK    1  A    between atoms: C_2  and  C_25
REMARK    2  A    between atoms: N_3  and  C_4
REMARK    3  A    between atoms: C_4  and  C_5
REMARK    4  A    between atoms: C_8  and  C_9
REMARK    5  A    between atoms: C_9  and  N_10
REMARK    6  A    between atoms: C_11  and  C_13
REMARK                            x       y       z     vdW  Elec       q    Type
REMARK                         _______ _______ _______ _____ _____    ______ ____
ROOT
ATOM      1  C   UNL     1       3.327   1.644  -3.283  0.00  0.00    +0.000 A 
ATOM      2  C   UNL     1       3.318   3.013  -3.583  0.00  0.00    +0.000 A 
ATOM      3  C   UNL     1       4.189   3.537  -4.545  0.00  0.00    +0.000 A 
ATOM      4  C   UNL     1       5.070   2.700  -5.241  0.00  0.00    +0.000 A 
ATOM      5  C   UNL     1       5.083   1.332  -4.935  0.00  0.00    +0.000 A 
ATOM      6  C   UNL     1       4.213   0.808  -3.975  0.00  0.00    +0.000 A 
ENDROOT
BRANCH   1   7
ATOM      7  C   UNL     1       2.377   1.073  -2.263  0.00  0.00    +0.000 C 
BRANCH   7  10
ATOM      8  O   UNL     1       0.225  -0.090  -0.937  0.00  0.00    +0.000 OA
ATOM      9  C   UNL     1       0.107   0.125  -2.141  0.00  0.00    +0.000 C 
ATOM     10  N   UNL     1       1.127   0.692  -2.871  0.00  0.00    +0.000 N 
ATOM     11  H   UNL     1       0.981   0.876  -3.856  0.00  0.00    +0.000 HD
BRANCH   9  12
ATOM     12  C   UNL     1      -1.107  -0.196  -2.882  0.00  0.00    +0.000 A 
ATOM     13  C   UNL     1      -2.277  -0.732  -2.370  0.00  0.00    +0.000 A 
ATOM     14  C   UNL     1      -3.277  -0.914  -3.363  0.00  0.00    +0.000 A 
ATOM     15 CL   UNL     1      -4.825  -1.549  -3.020  0.00  0.00    +0.000 Cl
ATOM     16  C   UNL     1      -2.849  -0.520  -4.608  0.00  0.00    +0.000 A 
ATOM     17  S   UNL     1      -1.246   0.071  -4.574  0.00  0.00    +0.000 S 
ENDBRANCH   9  12
ENDBRANCH   7  10
ENDBRANCH   1   7
BRANCH   4  18
ATOM     18  C   UNL     1       6.012   3.256  -6.277  0.00  0.00    +0.000 C 
BRANCH  18  19
ATOM     19  N   UNL     1       7.271   3.645  -5.694  0.00  0.00    +0.000 N 
ATOM     20  C   UNL     1       8.240   4.253  -6.452  0.00  0.00    +0.000 C 
ATOM     21  O   UNL     1       8.058   4.532  -7.635  0.00  0.00    +0.000 OA
ATOM     22  H   UNL     1       7.520   3.227  -4.803  0.00  0.00    +0.000 HD
BRANCH  20  23
ATOM     23  C   UNL     1       9.488   4.614  -5.767  0.00  0.00    +0.000 A 
ATOM     24  C   UNL     1      10.293   5.616  -6.293  0.00  0.00    +0.000 A 
ATOM     25  S   UNL     1      11.673   5.952  -5.350  0.00  0.00    +0.000 S 
ATOM     26  C   UNL     1      11.274   4.732  -4.234  0.00  0.00    +0.000 A 
ATOM     27  N   UNL     1      12.076   4.471  -3.167  0.00  0.00    +0.000 NA
ATOM     28  C   UNL     1      11.672   3.499  -2.421  0.00  0.00    +0.000 A 
ATOM     29  N   UNL     1      10.534   2.765  -2.641  0.00  0.00    +0.000 N 
ATOM     30  C   UNL     1       9.679   3.010  -3.689  0.00  0.00    +0.000 A 
ATOM     31  O   UNL     1       8.650   2.360  -3.837  0.00  0.00    +0.000 OA
ATOM     32  C   UNL     1      10.094   4.089  -4.566  0.00  0.00    +0.000 A 
ATOM     33  H   UNL     1      10.272   2.019  -2.015  0.00  0.00    +0.000 HD
ENDBRANCH  20  23
ENDBRANCH  18  19
ENDBRANCH   4  18
TORSDOF 6
