REMARK  Name = 
REMARK  9 active torsions:
REMARK  status: ('A' for Active; 'I' for Inactive)
REMARK    1  A    between atoms: C_1  and  C_2
REMARK    2  A    between atoms: C_2  and  C_3
REMARK    3  A    between atoms: C_3  and  N_4
REMARK    4  A    between atoms: C_3  and  C_18
REMARK    5  A    between atoms: C_5  and  C_7
REMARK    6  A    between atoms: N_13  and  C_14
REMARK    7  A    between atoms: C_21  and  O_22
REMARK    8  A    between atoms: O_22  and  C_23
REMARK    9  A    between atoms: C_23  and  C_24
REMARK                            x       y       z     vdW  Elec       q    Type
REMARK                         _______ _______ _______ _____ _____    ______ ____
ROOT
ATOM      1  C   UNL     1       3.015  -0.789  -1.269  0.00  0.00    +0.000 C 
ENDROOT
BRANCH   1   2
ATOM      2  C   UNL     1       4.523  -0.827  -1.476  0.00  0.00    +0.000 A 
ATOM      3  C   UNL     1       5.215  -2.045  -1.474  0.00  0.00    +0.000 A 
ATOM      4  C   UNL     1       6.565  -2.090  -1.837  0.00  0.00    +0.000 A 
ATOM      5  C   UNL     1       7.231  -0.919  -2.205  0.00  0.00    +0.000 A 
ATOM      6  C   UNL     1       6.582   0.306  -2.099  0.00  0.00    +0.000 A 
ATOM      7  C   UNL     1       5.238   0.352  -1.744  0.00  0.00    +0.000 A 
BRANCH   5   8
ATOM      8  O   UNL     1       8.510  -1.071  -2.673  0.00  0.00    +0.000 OA
BRANCH   8   9
ATOM      9  C   UNL     1       8.909  -0.052  -3.603  0.00  0.00    +0.000 C 
BRANCH   9  10
ATOM     10  C   UNL     1      10.017  -0.517  -4.518  0.00  0.00    +0.000 A 
ATOM     11  C   UNL     1      10.129  -1.852  -4.895  0.00  0.00    +0.000 A 
ATOM     12  C   UNL     1      11.122  -2.216  -5.798  0.00  0.00    +0.000 A 
ATOM     13  C   UNL     1      11.965  -1.241  -6.315  0.00  0.00    +0.000 A 
ATOM     14  C   UNL     1      11.776   0.070  -5.907  0.00  0.00    +0.000 A 
ATOM     15  N   UNL     1      10.824   0.451  -5.028  0.00  0.00    +0.000 NA
ENDBRANCH   9  10
ENDBRANCH   8   9
ENDBRANCH   5   8
ENDBRANCH   1   2
BRANCH   1  16
ATOM     16  N   UNL     1       2.731  -0.028  -0.069  0.00  0.00    +0.000 N 
ATOM     17  C   UNL     1       1.609  -0.175   0.698  0.00  0.00    +0.000 C 
ATOM     18  O   UNL     1       0.797  -1.078   0.530  0.00  0.00    +0.000 OA
ATOM     19  H   UNL     1       3.241   0.842   0.003  0.00  0.00    +0.000 HD
BRANCH  17  20
ATOM     20  C   UNL     1       1.488   0.790   1.802  0.00  0.00    +0.000 A 
ATOM     21  C   UNL     1       0.794   0.470   2.956  0.00  0.00    +0.000 A 
ATOM     22  S   UNL     1       0.906   1.672   4.167  0.00  0.00    +0.000 S 
ATOM     23  C   UNL     1       1.843   2.679   3.163  0.00  0.00    +0.000 A 
ATOM     24  N   UNL     1       2.328   3.868   3.604  0.00  0.00    +0.000 NA
ATOM     25  C   UNL     1       3.014   4.528   2.727  0.00  0.00    +0.000 A 
ATOM     26  N   UNL     1       3.242   4.131   1.426  0.00  0.00    +0.000 N 
ATOM     27  C   UNL     1       4.011   4.952   0.514  0.00  0.00    +0.000 C 
ATOM     28  C   UNL     1       2.735   2.936   0.937  0.00  0.00    +0.000 A 
ATOM     29  O   UNL     1       2.897   2.574  -0.226  0.00  0.00    +0.000 OA
ATOM     30  C   UNL     1       2.024   2.128   1.912  0.00  0.00    +0.000 A 
ENDBRANCH  17  20
ENDBRANCH   1  16
BRANCH   1  32
ATOM     31  C   UNL     1       2.558  -0.924  -3.788  0.00  0.00    +0.000 C 
ATOM     32  C   UNL     1       2.313  -0.156  -2.493  0.00  0.00    +0.000 C 
ENDBRANCH   1  32
TORSDOF 7
