REMARK  Name = 
REMARK  7 active torsions:
REMARK  status: ('A' for Active; 'I' for Inactive)
REMARK    1  A    between atoms: C_1  and  C_2
REMARK    2  A    between atoms: C_2  and  C_3
REMARK    3  A    between atoms: C_2  and  N_4
REMARK    4  A    between atoms: C_2  and  C_17
REMARK    5  A    between atoms: C_5  and  C_7
REMARK    6  A    between atoms: C_20  and  O_21
REMARK    7  A    between atoms: O_21  and  C_22
REMARK                            x       y       z     vdW  Elec       q    Type
REMARK                         _______ _______ _______ _____ _____    ______ ____
ROOT
ATOM      1  C   UNL     1       0.877  -0.144  -0.044  0.00  0.00    +0.000 C 
ATOM      2  C   UNL     1       2.415  -0.093  -0.138  0.00  0.00    +0.000 C 
ATOM      3  C   UNL     1       2.925  -1.221  -1.063  0.00  0.00    +0.000 C 
ENDROOT
BRANCH   2   4
ATOM      4  C   UNL     1       2.946  -0.259   1.308  0.00  0.00    +0.000 A 
ATOM      5  C   UNL     1       3.148  -1.532   1.869  0.00  0.00    +0.000 A 
ATOM      6  C   UNL     1       3.631  -1.686   3.171  0.00  0.00    +0.000 A 
ATOM      7  C   UNL     1       3.961  -0.571   3.939  0.00  0.00    +0.000 A 
ATOM      8  C   UNL     1       3.704   0.702   3.433  0.00  0.00    +0.000 A 
ATOM      9  C   UNL     1       3.192   0.855   2.137  0.00  0.00    +0.000 A 
BRANCH   7  10
ATOM     10  O   UNL     1       4.456  -0.644   5.222  0.00  0.00    +0.000 OA
BRANCH  10  11
ATOM     11  C   UNL     1       5.347  -1.669   5.529  0.00  0.00    +0.000 A 
ATOM     12  C   UNL     1       5.421  -2.049   6.861  0.00  0.00    +0.000 A 
ATOM     13  C   UNL     1       6.282  -3.089   7.202  0.00  0.00    +0.000 A 
ATOM     14  C   UNL     1       7.037  -3.705   6.209  0.00  0.00    +0.000 A 
ATOM     15  C   UNL     1       6.918  -3.237   4.912  0.00  0.00    +0.000 A 
ATOM     16  N   UNL     1       6.105  -2.223   4.554  0.00  0.00    +0.000 NA
ENDBRANCH  10  11
ENDBRANCH   7  10
ENDBRANCH   2   4
BRANCH   2  17
ATOM     17  N   UNL     1       2.882   1.191  -0.686  0.00  0.00    +0.000 N 
ATOM     18  C   UNL     1       2.480   1.736  -1.881  0.00  0.00    +0.000 C 
ATOM     19  O   UNL     1       1.641   1.213  -2.608  0.00  0.00    +0.000 OA
ATOM     20  H   UNL     1       3.776   1.504  -0.320  0.00  0.00    +0.000 HD
BRANCH  18  21
ATOM     21  C   UNL     1       3.060   3.040  -2.231  0.00  0.00    +0.000 A 
ATOM     22  C   UNL     1       2.381   3.871  -3.113  0.00  0.00    +0.000 A 
ATOM     23  S   UNL     1       3.150   5.369  -3.371  0.00  0.00    +0.000 S 
ATOM     24  C   UNL     1       4.446   4.940  -2.355  0.00  0.00    +0.000 A 
ATOM     25  N   UNL     1       5.487   5.792  -2.154  0.00  0.00    +0.000 NA
ATOM     26  C   UNL     1       6.418   5.324  -1.390  0.00  0.00    +0.000 A 
ATOM     27  N   UNL     1       6.397   4.084  -0.804  0.00  0.00    +0.000 N 
ATOM     28  C   UNL     1       5.353   3.206  -0.951  0.00  0.00    +0.000 A 
ATOM     29  O   UNL     1       5.340   2.123  -0.379  0.00  0.00    +0.000 OA
ATOM     30  C   UNL     1       4.285   3.677  -1.814  0.00  0.00    +0.000 A 
ATOM     31  H   UNL     1       7.156   3.780  -0.211  0.00  0.00    +0.000 HD
ENDBRANCH  18  21
ENDBRANCH   2  17
TORSDOF 5
