REMARK  Name = 
REMARK  8 active torsions:
REMARK  status: ('A' for Active; 'I' for Inactive)
REMARK    1  A    between atoms: C_1  and  C_2
REMARK    2  A    between atoms: C_2  and  N_3
REMARK    3  A    between atoms: C_2  and  C_25
REMARK    4  A    between atoms: N_3  and  C_4
REMARK    5  A    between atoms: C_4  and  C_5
REMARK    6  A    between atoms: C_8  and  C_9
REMARK    7  A    between atoms: C_9  and  N_10
REMARK    8  A    between atoms: C_11  and  C_13
REMARK                            x       y       z     vdW  Elec       q    Type
REMARK                         _______ _______ _______ _____ _____    ______ ____
ROOT
ATOM      1  C   UNL     1       3.012   2.622  -2.687  0.00  0.00    +0.000 A 
ATOM      2  C   UNL     1       2.312   3.791  -2.352  0.00  0.00    +0.000 A 
ATOM      3  C   UNL     1       2.656   5.018  -2.925  0.00  0.00    +0.000 A 
ATOM      4  C   UNL     1       3.711   5.104  -3.840  0.00  0.00    +0.000 A 
ATOM      5  C   UNL     1       4.448   3.948  -4.131  0.00  0.00    +0.000 A 
ATOM      6  C   UNL     1       4.096   2.718  -3.569  0.00  0.00    +0.000 A 
ENDROOT
BRANCH   1   7
ATOM      7  C   UNL     1       2.598   1.281  -2.117  0.00  0.00    +0.000 C 
BRANCH   7   8
ATOM      8  N   UNL     1       1.235   0.947  -2.527  0.00  0.00    +0.000 NA
ATOM      9  H   UNL     1       0.612   1.694  -2.223  0.00  0.00    +0.000 HD
BRANCH   8  11
ATOM     10  C   UNL     1       1.533  -1.530  -2.438  0.00  0.00    +0.000 C 
ATOM     11  C   UNL     1       0.722  -0.314  -1.978  0.00  0.00    +0.000 C 
BRANCH  11  12
ATOM     12  C   UNL     1      -0.734  -0.516  -2.382  0.00  0.00    +0.000 A 
ATOM     13  C   UNL     1      -1.624  -1.163  -1.517  0.00  0.00    +0.000 A 
ATOM     14  C   UNL     1      -2.931  -1.375  -1.934  0.00  0.00    +0.000 A 
ATOM     15  N   UNL     1      -3.411  -0.989  -3.134  0.00  0.00    +0.000 NA
ATOM     16  C   UNL     1      -2.541  -0.369  -3.959  0.00  0.00    +0.000 A 
ATOM     17  C   UNL     1      -1.216  -0.119  -3.637  0.00  0.00    +0.000 A 
ENDBRANCH  11  12
ENDBRANCH   8  11
ENDBRANCH   7   8
ENDBRANCH   1   7
BRANCH   4  18
ATOM     18  C   UNL     1       4.072   6.416  -4.484  0.00  0.00    +0.000 C 
BRANCH  18  19
ATOM     19  N   UNL     1       5.038   7.137  -3.698  0.00  0.00    +0.000 N 
ATOM     20  C   UNL     1       5.465   8.385  -4.072  0.00  0.00    +0.000 C 
ATOM     21  O   UNL     1       5.024   8.955  -5.067  0.00  0.00    +0.000 OA
ATOM     22  H   UNL     1       5.587   6.598  -3.035  0.00  0.00    +0.000 HD
BRANCH  20  23
ATOM     23  C   UNL     1       6.433   9.036  -3.185  0.00  0.00    +0.000 A 
ATOM     24  C   UNL     1       6.523  10.420  -3.161  0.00  0.00    +0.000 A 
ATOM     25  S   UNL     1       7.674  11.011  -2.050  0.00  0.00    +0.000 S 
ATOM     26  C   UNL     1       8.127   9.434  -1.599  0.00  0.00    +0.000 A 
ATOM     27  N   UNL     1       9.114   9.226  -0.687  0.00  0.00    +0.000 NA
ATOM     28  C   UNL     1       9.376   7.983  -0.458  0.00  0.00    +0.000 A 
ATOM     29  N   UNL     1       8.732   6.927  -1.053  0.00  0.00    +0.000 N 
ATOM     30  C   UNL     1       7.707   7.090  -1.955  0.00  0.00    +0.000 A 
ATOM     31  O   UNL     1       7.116   6.123  -2.427  0.00  0.00    +0.000 OA
ATOM     32  C   UNL     1       7.389   8.472  -2.262  0.00  0.00    +0.000 A 
ATOM     33  H   UNL     1       8.979   5.977  -0.822  0.00  0.00    +0.000 HD
ENDBRANCH  20  23
ENDBRANCH  18  19
ENDBRANCH   4  18
TORSDOF 7
