REMARK  Name = 
REMARK  4 active torsions:
REMARK  status: ('A' for Active; 'I' for Inactive)
REMARK    1  A    between atoms: C_2  and  C_4
REMARK    2  A    between atoms: N_8  and  C_9
REMARK    3  A    between atoms: C_9  and  C_10
REMARK    4  A    between atoms: C_14  and  C_15
REMARK                            x       y       z     vdW  Elec       q    Type
REMARK                         _______ _______ _______ _____ _____    ______ ____
ROOT
ATOM      1  C   UNL     1       3.915  -4.549   3.275  0.00  0.00    +0.000 A 
ATOM      2  C   UNL     1       3.581  -5.672   2.528  0.00  0.00    +0.000 A 
ATOM      3  C   UNL     1       4.084  -5.799   1.234  0.00  0.00    +0.000 A 
ATOM      4  C   UNL     1       4.909  -4.809   0.709  0.00  0.00    +0.000 A 
ATOM      5  N   UNL     1       5.415  -4.847  -0.561  0.00  0.00    +0.000 N 
ATOM      6  N   UNL     1       5.236  -3.717   1.424  0.00  0.00    +0.000 NA
ATOM      7  C   UNL     1       4.726  -3.597   2.680  0.00  0.00    +0.000 A 
ATOM      8  H   UNL     1       6.059  -4.095  -0.768  0.00  0.00    +0.000 HD
ENDROOT
BRANCH   1  10
ATOM      9  N   UNL     1       3.151  -5.458   5.388  0.00  0.00    +0.000 N 
ATOM     10  C   UNL     1       3.421  -4.339   4.650  0.00  0.00    +0.000 C 
ATOM     11  O   UNL     1       3.288  -3.218   5.119  0.00  0.00    +0.000 OA
ATOM     12  H   UNL     1       2.905  -5.314   6.359  0.00  0.00    +0.000 HD
ATOM     13  H   UNL     1       3.477  -6.377   5.120  0.00  0.00    +0.000 HD
ENDBRANCH   1  10
BRANCH   5  14
ATOM     14  C   UNL     1       5.159  -5.875  -1.545  0.00  0.00    +0.000 C 
BRANCH  14  15
ATOM     15  C   UNL     1       6.159  -7.011  -1.474  0.00  0.00    +0.000 A 
ATOM     16  C   UNL     1       7.511  -6.769  -1.698  0.00  0.00    +0.000 A 
ATOM     17  C   UNL     1       8.394  -7.839  -1.680  0.00  0.00    +0.000 A 
ATOM     18  C   UNL     1       7.908  -9.119  -1.431  0.00  0.00    +0.000 A 
ATOM     19  C   UNL     1       6.545  -9.305  -1.196  0.00  0.00    +0.000 A 
ATOM     20  N   UNL     1       5.673  -8.256  -1.223  0.00  0.00    +0.000 NA
BRANCH  19  21
ATOM     21  C   UNL     1       5.975 -10.638  -0.888  0.00  0.00    +0.000 A 
ATOM     22  C   UNL     1       4.606 -10.829  -0.683  0.00  0.00    +0.000 A 
ATOM     23  C   UNL     1       4.130 -12.095  -0.351  0.00  0.00    +0.000 A 
ATOM     24  C   UNL     1       5.025 -13.149  -0.237  0.00  0.00    +0.000 A 
ATOM     25  C   UNL     1       6.364 -12.893  -0.470  0.00  0.00    +0.000 A 
ATOM     26  N   UNL     1       6.854 -11.675  -0.789  0.00  0.00    +0.000 NA
ENDBRANCH  19  21
ENDBRANCH  14  15
ENDBRANCH   5  14
TORSDOF 4
