REMARK  Name = 
REMARK  6 active torsions:
REMARK  status: ('A' for Active; 'I' for Inactive)
REMARK    1  A    between atoms: C_4  and  N_5
REMARK    2  A    between atoms: N_5  and  C_6
REMARK    3  A    between atoms: C_6  and  C_7
REMARK    4  A    between atoms: C_7  and  C_8
REMARK    5  A    between atoms: C_12  and  O_13
REMARK    6  A    between atoms: O_13  and  C_14
REMARK                            x       y       z     vdW  Elec       q    Type
REMARK                         _______ _______ _______ _____ _____    ______ ____
ROOT
ATOM      1  C   UNL     1      -6.042  -1.407  -0.597  0.00  0.00    +0.000 A 
ATOM      2  C   UNL     1      -5.569  -2.723  -0.739  0.00  0.00    +0.000 A 
ATOM      3  C   UNL     1      -6.445  -3.807  -0.794  0.00  0.00    +0.000 A 
ATOM      4  C   UNL     1      -7.818  -3.600  -0.723  0.00  0.00    +0.000 A 
ATOM      5  C   UNL     1      -8.314  -2.301  -0.608  0.00  0.00    +0.000 A 
ATOM      6  C   UNL     1      -7.431  -1.216  -0.534  0.00  0.00    +0.000 A 
ENDROOT
BRANCH   1   7
ATOM      7  C   UNL     1      -5.118  -0.200  -0.494  0.00  0.00    +0.000 C 
BRANCH   7   8
ATOM      8  C   UNL     1      -3.634  -0.571  -0.566  0.00  0.00    +0.000 C 
BRANCH   8   9
ATOM      9  N   UNL     1      -2.718   0.550  -0.387  0.00  0.00    +0.000 N 
ATOM     10  H   UNL     1      -2.936   1.369  -0.950  0.00  0.00    +0.000 HD
BRANCH   9  14
ATOM     11  C   UNL     1       1.439  -0.259  -0.422  0.00  0.00    +0.000 A 
ATOM     12  C   UNL     1       0.541  -1.307  -0.585  0.00  0.00    +0.000 A 
ATOM     13  C   UNL     1      -0.832  -1.053  -0.583  0.00  0.00    +0.000 A 
ATOM     14  C   UNL     1      -1.341   0.249  -0.451  0.00  0.00    +0.000 A 
ATOM     15  C   UNL     1      -0.419   1.287  -0.272  0.00  0.00    +0.000 A 
ATOM     16  C   UNL     1       0.959   1.037  -0.258  0.00  0.00    +0.000 A 
ENDBRANCH   9  14
ENDBRANCH   8   9
ENDBRANCH   7   8
ENDBRANCH   1   7
BRANCH   5  17
ATOM     17  O   UNL     1      -9.650  -1.992  -0.533  0.00  0.00    +0.000 OA
BRANCH  17  18
ATOM     18  C   UNL     1     -10.605  -2.954  -1.037  0.00  0.00    +0.000 C 
ATOM     19  C   UNL     1     -10.678  -3.166  -2.556  0.00  0.00    +0.000 C 
ATOM     20  O   UNL     1     -12.099  -2.888  -2.575  0.00  0.00    +0.000 OA
ATOM     21  C   UNL     1     -12.040  -2.437  -1.201  0.00  0.00    +0.000 C 
ENDBRANCH  17  18
ENDBRANCH   5  17
TORSDOF 6
