REMARK  Name = 
REMARK  5 active torsions:
REMARK  status: ('A' for Active; 'I' for Inactive)
REMARK    1  A    between atoms: C_2  and  C_4
REMARK    2  A    between atoms: C_7  and  N_8
REMARK    3  A    between atoms: N_8  and  C_9
REMARK    4  A    between atoms: C_9  and  C_10
REMARK    5  A    between atoms: C_14  and  C_15
REMARK                            x       y       z     vdW  Elec       q    Type
REMARK                         _______ _______ _______ _____ _____    ______ ____
ROOT
ATOM      1  N   UNL     1       4.925  -1.863   4.745  0.00  0.00    +0.000 N 
ATOM      2  H   UNL     1       5.839  -1.785   4.307  0.00  0.00    +0.000 HD
ENDROOT
BRANCH   1   6
ATOM      3  C   UNL     1       2.126  -0.060   2.363  0.00  0.00    +0.000 A 
ATOM      4  C   UNL     1       3.039   0.668   3.105  0.00  0.00    +0.000 A 
ATOM      5  N   UNL     1       3.985   0.071   3.877  0.00  0.00    +0.000 NA
ATOM      6  C   UNL     1       3.972  -1.278   3.927  0.00  0.00    +0.000 A 
ATOM      7  C   UNL     1       3.064  -1.992   3.137  0.00  0.00    +0.000 A 
ATOM      8  N   UNL     1       2.120  -1.422   2.348  0.00  0.00    +0.000 NA
BRANCH   3  10
ATOM      9  N   UNL     1       0.202  -0.192   0.913  0.00  0.00    +0.000 N 
ATOM     10  C   UNL     1       1.094   0.633   1.548  0.00  0.00    +0.000 C 
ATOM     11  O   UNL     1       1.037   1.850   1.451  0.00  0.00    +0.000 OA
ATOM     12  H   UNL     1      -0.531   0.207   0.349  0.00  0.00    +0.000 HD
ATOM     13  H   UNL     1       0.276  -1.196   1.030  0.00  0.00    +0.000 HD
ENDBRANCH   3  10
ENDBRANCH   1   6
BRANCH   1  14
ATOM     14  C   UNL     1       4.660  -3.189   5.275  0.00  0.00    +0.000 C 
BRANCH  14  15
ATOM     15  C   UNL     1       5.500  -3.417   6.508  0.00  0.00    +0.000 A 
ATOM     16  C   UNL     1       6.297  -4.562   6.631  0.00  0.00    +0.000 A 
ATOM     17  C   UNL     1       7.040  -4.783   7.790  0.00  0.00    +0.000 A 
ATOM     18  C   UNL     1       7.002  -3.860   8.837  0.00  0.00    +0.000 A 
ATOM     19  C   UNL     1       6.219  -2.703   8.736  0.00  0.00    +0.000 A 
ATOM     20  C   UNL     1       5.458  -2.502   7.573  0.00  0.00    +0.000 A 
BRANCH  19  21
ATOM     21  C   UNL     1       6.191  -1.672   9.837  0.00  0.00    +0.000 C 
ATOM     22  F   UNL     1       7.022  -1.966  10.877  0.00  0.00    +0.000 F 
ATOM     23  F   UNL     1       6.563  -0.435   9.405  0.00  0.00    +0.000 F 
ATOM     24  F   UNL     1       4.953  -1.521  10.384  0.00  0.00    +0.000 F 
ENDBRANCH  19  21
ENDBRANCH  14  15
ENDBRANCH   1  14
TORSDOF 5
