REMARK  Name = 
REMARK  4 active torsions:
REMARK  status: ('A' for Active; 'I' for Inactive)
REMARK    1  A    between atoms: C_2  and  C_4
REMARK    2  A    between atoms: N_8  and  C_9
REMARK    3  A    between atoms: C_9  and  C_10
REMARK    4  A    between atoms: C_14  and  C_15
REMARK                            x       y       z     vdW  Elec       q    Type
REMARK                         _______ _______ _______ _____ _____    ______ ____
ROOT
ATOM      1  C   UNL     1       5.226   1.841   5.694  0.00  0.00    +0.000 C 
ATOM      2  C   UNL     1       5.091   0.567   6.520  0.00  0.00    +0.000 C 
ATOM      3  C   UNL     1       3.937   1.508   6.417  0.00  0.00    +0.000 C 
ENDROOT
BRANCH   1   8
ATOM      4  C   UNL     1       3.587   3.571   1.052  0.00  0.00    +0.000 A 
ATOM      5  C   UNL     1       3.091   3.823   2.327  0.00  0.00    +0.000 A 
ATOM      6  C   UNL     1       3.676   3.183   3.423  0.00  0.00    +0.000 A 
ATOM      7  C   UNL     1       4.762   2.337   3.231  0.00  0.00    +0.000 A 
ATOM      8  N   UNL     1       5.373   1.619   4.254  0.00  0.00    +0.000 N 
ATOM      9  N   UNL     1       5.260   2.100   1.997  0.00  0.00    +0.000 NA
ATOM     10  C   UNL     1       4.656   2.699   0.939  0.00  0.00    +0.000 A 
ATOM     11  H   UNL     1       6.226   1.202   3.896  0.00  0.00    +0.000 HD
BRANCH   4  13
ATOM     12  N   UNL     1       2.357   5.349  -0.054  0.00  0.00    +0.000 N 
ATOM     13  C   UNL     1       2.999   4.147  -0.174  0.00  0.00    +0.000 C 
ATOM     14  O   UNL     1       3.094   3.584  -1.255  0.00  0.00    +0.000 OA
ATOM     15  H   UNL     1       2.030   5.770  -0.913  0.00  0.00    +0.000 HD
ATOM     16  H   UNL     1       2.471   5.948   0.751  0.00  0.00    +0.000 HD
ENDBRANCH   4  13
ENDBRANCH   1   8
BRANCH   1  17
ATOM     17  C   UNL     1       6.104   2.970   6.226  0.00  0.00    +0.000 A 
ATOM     18  C   UNL     1       7.389   2.726   6.732  0.00  0.00    +0.000 A 
ATOM     19  C   UNL     1       8.238   3.772   7.093  0.00  0.00    +0.000 A 
ATOM     20  C   UNL     1       7.832   5.095   6.908  0.00  0.00    +0.000 A 
ATOM     21  C   UNL     1       6.565   5.396   6.384  0.00  0.00    +0.000 A 
ATOM     22  C   UNL     1       5.703   4.317   6.115  0.00  0.00    +0.000 A 
BRANCH  21  23
ATOM     23  C   UNL     1       6.178   6.774   6.024  0.00  0.00    +0.000 A 
ATOM     24  C   UNL     1       7.093   7.666   5.457  0.00  0.00    +0.000 A 
ATOM     25  C   UNL     1       6.665   8.927   5.059  0.00  0.00    +0.000 A 
ATOM     26  C   UNL     1       5.336   9.282   5.235  0.00  0.00    +0.000 A 
ATOM     27  C   UNL     1       4.487   8.345   5.799  0.00  0.00    +0.000 A 
ATOM     28  N   UNL     1       4.872   7.108   6.186  0.00  0.00    +0.000 NA
ENDBRANCH  21  23
ENDBRANCH   1  17
TORSDOF 4
