REMARK  Name = 
REMARK  4 active torsions:
REMARK  status: ('A' for Active; 'I' for Inactive)
REMARK    1  A    between atoms: C_2  and  C_4
REMARK    2  A    between atoms: C_7  and  N_8
REMARK    3  A    between atoms: N_8  and  C_9
REMARK    4  A    between atoms: C_9  and  C_10
REMARK                            x       y       z     vdW  Elec       q    Type
REMARK                         _______ _______ _______ _____ _____    ______ ____
ROOT
ATOM      1  N   UNL     1       5.352  -0.907  -4.504  0.00  0.00    +0.000 N 
ATOM      2  H   UNL     1       4.560  -0.705  -3.904  0.00  0.00    +0.000 HD
ENDROOT
BRANCH   1   6
ATOM      3  C   UNL     1       8.839   0.192  -2.569  0.00  0.00    +0.000 A 
ATOM      4  C   UNL     1       8.773   0.184  -3.952  0.00  0.00    +0.000 A 
ATOM      5  N   UNL     1       7.638  -0.140  -4.630  0.00  0.00    +0.000 NA
ATOM      6  C   UNL     1       6.557  -0.480  -3.890  0.00  0.00    +0.000 A 
ATOM      7  C   UNL     1       6.658  -0.484  -2.490  0.00  0.00    +0.000 A 
ATOM      8  N   UNL     1       7.773  -0.137  -1.791  0.00  0.00    +0.000 NA
BRANCH   3  10
ATOM      9  N   UNL     1      10.088   0.524  -0.517  0.00  0.00    +0.000 N 
ATOM     10  C   UNL     1      10.112   0.567  -1.884  0.00  0.00    +0.000 C 
ATOM     11  O   UNL     1      11.117   0.886  -2.503  0.00  0.00    +0.000 OA
ATOM     12  H   UNL     1      10.922   0.753   0.002  0.00  0.00    +0.000 HD
ATOM     13  H   UNL     1       9.242   0.241  -0.029  0.00  0.00    +0.000 HD
ENDBRANCH   3  10
ENDBRANCH   1   6
BRANCH   1  14
ATOM     14  C   UNL     1       5.110  -0.562  -5.930  0.00  0.00    +0.000 C 
ATOM     15  C   UNL     1       5.025   0.904  -6.323  0.00  0.00    +0.000 C 
ATOM     16  C   UNL     1       3.775   0.091  -6.285  0.00  0.00    +0.000 C 
BRANCH  14  17
ATOM     17  C   UNL     1       5.635  -1.580  -6.939  0.00  0.00    +0.000 A 
ATOM     18  C   UNL     1       4.909  -2.749  -7.251  0.00  0.00    +0.000 A 
ATOM     19  C   UNL     1       5.354  -3.654  -8.221  0.00  0.00    +0.000 A 
ATOM     20  C   UNL     1       6.545  -3.411  -8.898  0.00  0.00    +0.000 A 
ATOM     21  C   UNL     1       7.282  -2.277  -8.588  0.00  0.00    +0.000 A 
ATOM     22  F   UNL     1       8.429  -2.039  -9.238  0.00  0.00    +0.000 F 
ATOM     23  C   UNL     1       6.843  -1.376  -7.623  0.00  0.00    +0.000 A 
ENDBRANCH  14  17
ENDBRANCH   1  14
TORSDOF 4
