REMARK  Name = 
REMARK  8 active torsions:
REMARK  status: ('A' for Active; 'I' for Inactive)
REMARK    1  A    between atoms: C_1  and  O_2
REMARK    2  A    between atoms: O_2  and  C_3
REMARK    3  A    between atoms: C_8  and  C_9
REMARK    4  A    between atoms: N_11  and  C_12
REMARK    5  A    between atoms: C_12  and  C_13
REMARK    6  A    between atoms: C_16  and  C_17
REMARK    7  A    between atoms: C_17  and  N_18
REMARK    8  A    between atoms: C_19  and  C_21
REMARK                            x       y       z     vdW  Elec       q    Type
REMARK                         _______ _______ _______ _____ _____    ______ ____
ROOT
ATOM      1  C   UNL     1       2.757  -0.846   4.245  0.00  0.00    +0.000 A 
ATOM      2  C   UNL     1       1.852  -1.567   5.037  0.00  0.00    +0.000 A 
ATOM      3  C   UNL     1       0.978  -0.906   5.907  0.00  0.00    +0.000 A 
ATOM      4  C   UNL     1       1.008   0.489   6.018  0.00  0.00    +0.000 A 
ATOM      5  C   UNL     1       1.907   1.200   5.220  0.00  0.00    +0.000 A 
ATOM      6  F   UNL     1       1.956   2.538   5.301  0.00  0.00    +0.000 F 
ATOM      7  C   UNL     1       2.775   0.551   4.345  0.00  0.00    +0.000 A 
ENDROOT
BRANCH   1   8
ATOM      8  C   UNL     1       3.721  -1.565   3.339  0.00  0.00    +0.000 C 
BRANCH   8  11
ATOM      9  C   UNL     1       5.995  -2.505   3.389  0.00  0.00    +0.000 C 
ATOM     10  O   UNL     1       5.901  -2.903   2.230  0.00  0.00    +0.000 OA
ATOM     11  N   UNL     1       4.962  -1.852   4.017  0.00  0.00    +0.000 N 
ATOM     12  H   UNL     1       5.080  -1.571   4.984  0.00  0.00    +0.000 HD
BRANCH   9  18
ATOM     13  C   UNL     1       7.499  -2.244   5.472  0.00  0.00    +0.000 A 
ATOM     14  C   UNL     1       8.774  -2.398   6.043  0.00  0.00    +0.000 A 
ATOM     15  C   UNL     1       9.817  -2.985   5.324  0.00  0.00    +0.000 A 
ATOM     16  C   UNL     1       9.595  -3.450   4.035  0.00  0.00    +0.000 A 
ATOM     17  C   UNL     1       8.335  -3.305   3.454  0.00  0.00    +0.000 A 
ATOM     18  C   UNL     1       7.277  -2.689   4.153  0.00  0.00    +0.000 A 
BRANCH  13  20
ATOM     19  C   UNL     1       6.757  -0.834   7.242  0.00  0.00    +0.000 C 
ATOM     20  O   UNL     1       6.440  -1.718   6.171  0.00  0.00    +0.000 OA
ENDBRANCH  13  20
ENDBRANCH   9  18
ENDBRANCH   8  11
ENDBRANCH   1   8
BRANCH   4  21
ATOM     21  C   UNL     1       0.086   1.211   6.956  0.00  0.00    +0.000 C 
BRANCH  21  22
ATOM     22  N   UNL     1      -1.148   1.582   6.312  0.00  0.00    +0.000 N 
ATOM     23  C   UNL     1      -2.303   0.854   6.426  0.00  0.00    +0.000 C 
ATOM     24  O   UNL     1      -2.368  -0.179   7.086  0.00  0.00    +0.000 OA
ATOM     25  H   UNL     1      -1.078   2.299   5.597  0.00  0.00    +0.000 HD
BRANCH  23  26
ATOM     26  C   UNL     1      -3.487   1.422   5.769  0.00  0.00    +0.000 A 
ATOM     27  C   UNL     1      -4.756   1.098   6.232  0.00  0.00    +0.000 A 
ATOM     28  S   UNL     1      -6.013   1.863   5.370  0.00  0.00    +0.000 S 
ATOM     29  C   UNL     1      -4.910   2.623   4.323  0.00  0.00    +0.000 A 
ATOM     30  N   UNL     1      -5.342   3.415   3.307  0.00  0.00    +0.000 NA
ATOM     31  C   UNL     1      -4.395   3.903   2.571  0.00  0.00    +0.000 A 
ATOM     32  N   UNL     1      -3.058   3.680   2.771  0.00  0.00    +0.000 N 
ATOM     33  C   UNL     1      -2.573   2.930   3.819  0.00  0.00    +0.000 A 
ATOM     34  O   UNL     1      -1.369   2.835   4.023  0.00  0.00    +0.000 OA
ATOM     35  C   UNL     1      -3.596   2.323   4.646  0.00  0.00    +0.000 A 
ATOM     36  H   UNL     1      -2.367   4.110   2.176  0.00  0.00    +0.000 HD
ENDBRANCH  23  26
ENDBRANCH  21  22
ENDBRANCH   4  21
TORSDOF 7
