REMARK  Name = 
REMARK  10 active torsions:
REMARK  status: ('A' for Active; 'I' for Inactive)
REMARK    1  A    between atoms: C_1  and  C_2
REMARK    2  A    between atoms: C_2  and  C_3
REMARK    3  A    between atoms: C_3  and  N_4
REMARK    4  A    between atoms: C_3  and  C_18
REMARK    5  A    between atoms: C_5  and  C_7
REMARK    6  A    between atoms: N_13  and  C_14
REMARK    7  A    between atoms: C_21  and  C_22
REMARK    8  A    between atoms: C_22  and  N_23
REMARK    9  A    between atoms: N_23  and  C_24
REMARK   10  A    between atoms: C_24  and  C_25
REMARK                            x       y       z     vdW  Elec       q    Type
REMARK                         _______ _______ _______ _____ _____    ______ ____
ROOT
ATOM      1  C   UNL     1       3.054   0.942  -0.967  0.00  0.00    +0.000 C 
ENDROOT
BRANCH   1   2
ATOM      2  C   UNL     1       4.561   1.165  -1.075  0.00  0.00    +0.000 A 
ATOM      3  C   UNL     1       5.306   0.465  -2.037  0.00  0.00    +0.000 A 
ATOM      4  C   UNL     1       6.655   0.769  -2.256  0.00  0.00    +0.000 A 
ATOM      5  C   UNL     1       7.288   1.780  -1.519  0.00  0.00    +0.000 A 
ATOM      6  C   UNL     1       6.576   2.402  -0.489  0.00  0.00    +0.000 A 
ATOM      7  C   UNL     1       5.238   2.080  -0.256  0.00  0.00    +0.000 A 
BRANCH   5   8
ATOM      8  C   UNL     1       8.696   2.220  -1.846  0.00  0.00    +0.000 C 
BRANCH   8   9
ATOM      9  N   UNL     1       8.776   2.685  -3.230  0.00  0.00    +0.000 NA
ATOM     10  H   UNL     1       8.104   3.442  -3.362  0.00  0.00    +0.000 HD
BRANCH   9  11
ATOM     11  C   UNL     1      10.112   3.202  -3.547  0.00  0.00    +0.000 C 
BRANCH  11  12
ATOM     12  C   UNL     1      10.213   3.659  -4.991  0.00  0.00    +0.000 A 
ATOM     13  C   UNL     1       9.916   2.772  -6.026  0.00  0.00    +0.000 A 
ATOM     14  C   UNL     1      10.022   3.209  -7.343  0.00  0.00    +0.000 A 
ATOM     15  C   UNL     1      10.423   4.515  -7.594  0.00  0.00    +0.000 A 
ATOM     16  C   UNL     1      10.699   5.334  -6.511  0.00  0.00    +0.000 A 
ATOM     17  N   UNL     1      10.604   4.939  -5.221  0.00  0.00    +0.000 NA
ENDBRANCH  11  12
ENDBRANCH   9  11
ENDBRANCH   8   9
ENDBRANCH   5   8
ENDBRANCH   1   2
BRANCH   1  18
ATOM     18  N   UNL     1       2.782  -0.108  -0.005  0.00  0.00    +0.000 N 
ATOM     19  C   UNL     1       1.634  -0.857  -0.019  0.00  0.00    +0.000 C 
ATOM     20  O   UNL     1       0.723  -0.654  -0.815  0.00  0.00    +0.000 OA
ATOM     21  H   UNL     1       3.551  -0.380   0.598  0.00  0.00    +0.000 HD
BRANCH  19  22
ATOM     22  C   UNL     1       1.532  -1.902   1.010  0.00  0.00    +0.000 A 
ATOM     23  C   UNL     1       0.282  -2.337   1.434  0.00  0.00    +0.000 A 
ATOM     24  S   UNL     1       0.355  -3.563   2.618  0.00  0.00    +0.000 S 
ATOM     25  C   UNL     1       2.056  -3.589   2.566  0.00  0.00    +0.000 A 
ATOM     26  N   UNL     1       2.764  -4.471   3.317  0.00  0.00    +0.000 NA
ATOM     27  C   UNL     1       4.046  -4.410   3.150  0.00  0.00    +0.000 A 
ATOM     28  N   UNL     1       4.702  -3.530   2.316  0.00  0.00    +0.000 N 
ATOM     29  C   UNL     1       6.146  -3.524   2.224  0.00  0.00    +0.000 C 
ATOM     30  C   UNL     1       4.010  -2.573   1.583  0.00  0.00    +0.000 A 
ATOM     31  O   UNL     1       4.579  -1.709   0.922  0.00  0.00    +0.000 OA
ATOM     32  C   UNL     1       2.563  -2.645   1.696  0.00  0.00    +0.000 A 
ENDBRANCH  19  22
ENDBRANCH   1  18
BRANCH   1  34
ATOM     33  C   UNL     1       2.431   3.346  -1.616  0.00  0.00    +0.000 C 
ATOM     34  C   UNL     1       2.255   2.215  -0.610  0.00  0.00    +0.000 C 
ENDBRANCH   1  34
TORSDOF 8
