REMARK  Name = 
REMARK  7 active torsions:
REMARK  status: ('A' for Active; 'I' for Inactive)
REMARK    1  A    between atoms: C_1  and  C_2
REMARK    2  A    between atoms: C_2  and  C_3
REMARK    3  A    between atoms: C_2  and  C_14
REMARK    4  A    between atoms: C_3  and  N_4
REMARK    5  A    between atoms: N_4  and  C_5
REMARK    6  A    between atoms: C_8  and  C_9
REMARK    7  A    between atoms: C_18  and  C_19
REMARK                            x       y       z     vdW  Elec       q    Type
REMARK                         _______ _______ _______ _____ _____    ______ ____
ROOT
ATOM      1  N   UNL     1       2.382  -2.304   1.005  0.00  0.00    +0.000 N 
ATOM      2  H   UNL     1       2.134  -1.707   1.790  0.00  0.00    +0.000 HD
ENDROOT
BRANCH   1   3
ATOM      3  C   UNL     1       2.886  -3.545   1.410  0.00  0.00    +0.000 A 
ATOM      4  C   UNL     1       3.895  -4.233   0.724  0.00  0.00    +0.000 A 
ATOM      5  C   UNL     1       4.306  -5.512   1.117  0.00  0.00    +0.000 A 
ATOM      6  C   UNL     1       3.694  -6.150   2.196  0.00  0.00    +0.000 A 
ATOM      7  C   UNL     1       2.663  -5.497   2.876  0.00  0.00    +0.000 A 
ATOM      8  C   UNL     1       2.266  -4.210   2.480  0.00  0.00    +0.000 A 
BRANCH   6   9
ATOM      9  C   UNL     1       4.142  -7.527   2.538  0.00  0.00    +0.000 C 
ATOM     10  N   UNL     1       3.926  -7.968   3.812  0.00  0.00    +0.000 N 
ATOM     11  O   UNL     1       4.713  -8.237   1.720  0.00  0.00    +0.000 OA
ATOM     12  H   UNL     1       3.665  -7.355   4.570  0.00  0.00    +0.000 HD
ATOM     13  H   UNL     1       4.325  -8.868   4.046  0.00  0.00    +0.000 HD
ENDBRANCH   6   9
ENDBRANCH   1   3
BRANCH   1  14
ATOM     14  C   UNL     1       3.006  -1.602  -0.106  0.00  0.00    +0.000 C 
BRANCH  14  16
ATOM     15  C   UNL     1       0.846  -0.292  -0.653  0.00  0.00    +0.000 C 
ATOM     16  C   UNL     1       2.314  -0.288  -0.343  0.00  0.00    +0.000 C 
BRANCH  16  17
ATOM     17  C   UNL     1       3.130   0.869  -0.767  0.00  0.00    +0.000 A 
ATOM     18  C   UNL     1       4.257   1.258  -0.030  0.00  0.00    +0.000 A 
ATOM     19  C   UNL     1       5.023   2.361  -0.420  0.00  0.00    +0.000 A 
ATOM     20  C   UNL     1       4.676   3.089  -1.558  0.00  0.00    +0.000 A 
ATOM     21  C   UNL     1       3.565   2.709  -2.312  0.00  0.00    +0.000 A 
ATOM     22  C   UNL     1       2.796   1.607  -1.914  0.00  0.00    +0.000 A 
BRANCH  21  23
ATOM     23  C   UNL     1       3.209   3.440  -3.494  0.00  0.00    +0.000 C 
ATOM     24  N   UNL     1       2.921   4.026  -4.453  0.00  0.00    +0.000 NA
ENDBRANCH  21  23
ENDBRANCH  16  17
ENDBRANCH  14  16
ENDBRANCH   1  14
TORSDOF 6
