REMARK  Name = 
REMARK  6 active torsions:
REMARK  status: ('A' for Active; 'I' for Inactive)
REMARK    1  A    between atoms: C_2  and  C_4
REMARK    2  A    between atoms: N_8  and  C_9
REMARK    3  A    between atoms: C_9  and  C_10
REMARK    4  A    between atoms: C_10  and  C_13
REMARK    5  A    between atoms: C_17  and  N_18
REMARK    6  A    between atoms: N_18  and  C_19
REMARK                            x       y       z     vdW  Elec       q    Type
REMARK                         _______ _______ _______ _____ _____    ______ ____
ROOT
ATOM      1  C   UNL     1       6.220   3.929   5.837  0.00  0.00    +0.000 C 
ATOM      2  F   UNL     1       7.440   3.365   5.578  0.00  0.00    +0.000 F 
ATOM      3  F   UNL     1       6.310   5.209   5.368  0.00  0.00    +0.000 F 
ENDROOT
BRANCH   1   4
ATOM      4  C   UNL     1       5.880   3.895   7.318  0.00  0.00    +0.000 A 
ATOM      5  C   UNL     1       6.309   2.834   8.126  0.00  0.00    +0.000 A 
ATOM      6  C   UNL     1       5.946   2.784   9.473  0.00  0.00    +0.000 A 
ATOM      7  C   UNL     1       5.143   3.787  10.025  0.00  0.00    +0.000 A 
ATOM      8  C   UNL     1       4.699   4.852   9.241  0.00  0.00    +0.000 A 
ATOM      9  C   UNL     1       5.095   4.909   7.896  0.00  0.00    +0.000 A 
BRANCH   8  10
ATOM     10  N   UNL     1       3.922   5.915   9.755  0.00  0.00    +0.000 N 
ATOM     11  H   UNL     1       4.520   6.736   9.851  0.00  0.00    +0.000 HD
BRANCH  10  12
ATOM     12  C   UNL     1       3.069   5.846  10.889  0.00  0.00    +0.000 C 
ATOM     13  C   UNL     1       1.990   6.948  10.845  0.00  0.00    +0.000 C 
ATOM     14  C   UNL     1       2.349   7.162  12.321  0.00  0.00    +0.000 C 
ATOM     15  N   UNL     1       3.664   6.543  12.036  0.00  0.00    +0.000 NA
ATOM     16  H   UNL     1       3.994   5.920  12.771  0.00  0.00    +0.000 HD
ENDBRANCH  10  12
ENDBRANCH   8  10
ENDBRANCH   1   4
BRANCH   1  17
ATOM     17  C   UNL     1       5.147   3.162   5.016  0.00  0.00    +0.000 C 
BRANCH  17  22
ATOM     18  C   UNL     1       2.942   1.259   0.826  0.00  0.00    +0.000 A 
ATOM     19  C   UNL     1       2.364   1.710   2.008  0.00  0.00    +0.000 A 
ATOM     20  C   UNL     1       3.161   2.360   2.951  0.00  0.00    +0.000 A 
ATOM     21  C   UNL     1       4.521   2.532   2.711  0.00  0.00    +0.000 A 
ATOM     22  N   UNL     1       5.353   3.239   3.562  0.00  0.00    +0.000 N 
ATOM     23  N   UNL     1       5.098   2.072   1.583  0.00  0.00    +0.000 NA
ATOM     24  C   UNL     1       4.306   1.443   0.669  0.00  0.00    +0.000 A 
ATOM     25  H   UNL     1       6.315   3.123   3.245  0.00  0.00    +0.000 HD
BRANCH  18  27
ATOM     26  N   UNL     1       0.834   0.921  -0.332  0.00  0.00    +0.000 N 
ATOM     27  C   UNL     1       2.162   0.603  -0.243  0.00  0.00    +0.000 C 
ATOM     28  O   UNL     1       2.688  -0.169  -1.036  0.00  0.00    +0.000 OA
ATOM     29  H   UNL     1       0.338   0.547  -1.132  0.00  0.00    +0.000 HD
ATOM     30  H   UNL     1       0.437   1.726   0.127  0.00  0.00    +0.000 HD
ENDBRANCH  18  27
ENDBRANCH  17  22
ENDBRANCH   1  17
TORSDOF 6
