REMARK  Name = 
REMARK  6 active torsions:
REMARK  status: ('A' for Active; 'I' for Inactive)
REMARK    1  A    between atoms: C_1  and  O_2
REMARK    2  A    between atoms: O_2  and  C_3
REMARK    3  A    between atoms: N_8  and  C_9
REMARK    4  A    between atoms: C_9  and  C_10
REMARK    5  A    between atoms: C_19  and  O_20
REMARK    6  A    between atoms: O_20  and  C_21
REMARK                            x       y       z     vdW  Elec       q    Type
REMARK                         _______ _______ _______ _____ _____    ______ ____
ROOT
ATOM      1  C   UNL     1       3.152  -0.575  -1.118  0.00  0.00    +0.000 A 
ATOM      2  C   UNL     1       4.144  -1.551  -0.903  0.00  0.00    +0.000 A 
ATOM      3  C   UNL     1       4.802  -2.154  -1.997  0.00  0.00    +0.000 A 
ATOM      4  C   UNL     1       5.871  -3.075  -2.108  0.00  0.00    +0.000 A 
ATOM      5  C   UNL     1       6.129  -3.251  -3.446  0.00  0.00    +0.000 A 
ATOM      6  N   UNL     1       5.231  -2.496  -4.160  0.00  0.00    +0.000 N 
ATOM      7  C   UNL     1       4.392  -1.824  -3.290  0.00  0.00    +0.000 A 
ATOM      8  C   UNL     1       3.322  -0.947  -3.514  0.00  0.00    +0.000 A 
ATOM      9  C   UNL     1       2.712  -0.303  -2.421  0.00  0.00    +0.000 A 
ENDROOT
BRANCH   1  11
ATOM     10  C   UNL     1       3.468   0.356   1.040  0.00  0.00    +0.000 C 
ATOM     11  O   UNL     1       2.590   0.091  -0.058  0.00  0.00    +0.000 OA
ENDBRANCH   1  11
BRANCH   9  12
ATOM     12  O   UNL     1       1.738   0.562  -2.845  0.00  0.00    +0.000 OA
ATOM     13  C   UNL     1       1.129   1.446  -1.919  0.00  0.00    +0.000 C 
ENDBRANCH   9  12
BRANCH   6  14
ATOM     14  C   UNL     1       5.256  -2.349  -5.611  0.00  0.00    +0.000 C 
BRANCH  14  15
ATOM     15  C   UNL     1       4.501  -3.463  -6.288  0.00  0.00    +0.000 A 
ATOM     16  C   UNL     1       3.151  -3.302  -6.637  0.00  0.00    +0.000 A 
ATOM     17  C   UNL     1       2.426  -4.368  -7.172  0.00  0.00    +0.000 A 
ATOM     18  C   UNL     1       3.047  -5.602  -7.366  0.00  0.00    +0.000 A 
ATOM     19 BR   UNL     1       2.047  -7.064  -8.018  0.00  0.00    +0.000 Br
ATOM     20  C   UNL     1       4.396  -5.767  -7.056  0.00  0.00    +0.000 A 
ATOM     21  C   UNL     1       5.120  -4.700  -6.522  0.00  0.00    +0.000 A 
ENDBRANCH  14  15
ENDBRANCH   6  14
TORSDOF 4
