REMARK  Name = 
REMARK  4 active torsions:
REMARK  status: ('A' for Active; 'I' for Inactive)
REMARK    1  A    between atoms: C_2  and  C_4
REMARK    2  A    between atoms: C_7  and  O_8
REMARK    3  A    between atoms: O_8  and  C_9
REMARK    4  A    between atoms: C_9  and  C_10
REMARK                            x       y       z     vdW  Elec       q    Type
REMARK                         _______ _______ _______ _____ _____    ______ ____
ROOT
ATOM      1  C   UNL     1       2.859   1.260  -0.922  0.00  0.00    +0.000 A 
ATOM      2  C   UNL     1       4.187   0.886  -1.135  0.00  0.00    +0.000 A 
ATOM      3  C   UNL     1       4.958   1.603  -2.050  0.00  0.00    +0.000 A 
ATOM      4  C   UNL     1       4.379   2.683  -2.700  0.00  0.00    +0.000 A 
ATOM      5  N   UNL     1       3.091   3.053  -2.532  0.00  0.00    +0.000 NA
ATOM      6  C   UNL     1       2.356   2.324  -1.656  0.00  0.00    +0.000 A 
ENDROOT
BRANCH   1   8
ATOM      7  N   UNL     1       2.551   0.003   1.131  0.00  0.00    +0.000 N 
ATOM      8  C   UNL     1       1.967   0.588   0.043  0.00  0.00    +0.000 C 
ATOM      9  O   UNL     1       0.751   0.599  -0.097  0.00  0.00    +0.000 OA
ATOM     10  H   UNL     1       1.920  -0.341   1.845  0.00  0.00    +0.000 HD
ATOM     11  H   UNL     1       3.502   0.200   1.408  0.00  0.00    +0.000 HD
ENDBRANCH   1   8
BRANCH   4  12
ATOM     12  O   UNL     1       5.178   3.390  -3.577  0.00  0.00    +0.000 OA
BRANCH  12  13
ATOM     13  C   UNL     1       4.676   4.713  -3.788  0.00  0.00    +0.000 C 
BRANCH  13  14
ATOM     14  C   UNL     1       5.530   5.468  -4.784  0.00  0.00    +0.000 A 
ATOM     15  C   UNL     1       5.722   6.852  -4.627  0.00  0.00    +0.000 A 
ATOM     16  C   UNL     1       6.427   7.590  -5.582  0.00  0.00    +0.000 A 
ATOM     17  C   UNL     1       6.942   6.953  -6.709  0.00  0.00    +0.000 A 
ATOM     18  C   UNL     1       6.748   5.586  -6.870  0.00  0.00    +0.000 A 
ATOM     19  F   UNL     1       7.231   4.979  -7.962  0.00  0.00    +0.000 F 
ATOM     20  C   UNL     1       6.047   4.842  -5.926  0.00  0.00    +0.000 A 
ENDBRANCH  13  14
ENDBRANCH  12  13
ENDBRANCH   4  12
TORSDOF 4
