REMARK  Name = 
REMARK  5 active torsions:
REMARK  status: ('A' for Active; 'I' for Inactive)
REMARK    1  A    between atoms: N_1  and  C_2
REMARK    2  A    between atoms: C_2  and  C_3
REMARK    3  A    between atoms: N_6  and  C_7
REMARK    4  A    between atoms: C_7  and  N_8
REMARK    5  A    between atoms: C_13  and  C_14
REMARK                            x       y       z     vdW  Elec       q    Type
REMARK                         _______ _______ _______ _____ _____    ______ ____
ROOT
ATOM      1  N   UNL     1       6.424   4.129   0.126  0.00  0.00    +0.000 N 
ATOM      2  C   UNL     1       6.877   4.799   1.229  0.00  0.00    +0.000 A 
ATOM      3  N   UNL     1       7.017   6.085   0.995  0.00  0.00    +0.000 NA
ATOM      4  C   UNL     1       6.643   6.255  -0.315  0.00  0.00    +0.000 A 
ATOM      5  C   UNL     1       6.647   7.426  -1.092  0.00  0.00    +0.000 A 
ATOM      6  C   UNL     1       6.244   7.350  -2.434  0.00  0.00    +0.000 A 
ATOM      7  C   UNL     1       5.807   6.126  -2.965  0.00  0.00    +0.000 A 
ATOM      8  C   UNL     1       5.789   4.952  -2.202  0.00  0.00    +0.000 A 
ATOM      9  C   UNL     1       6.236   5.050  -0.881  0.00  0.00    +0.000 A 
ENDROOT
BRANCH   6  10
ATOM     10  C   UNL     1       6.283   8.522  -3.358  0.00  0.00    +0.000 C 
ATOM     11  N   UNL     1       6.702   9.730  -2.875  0.00  0.00    +0.000 N 
ATOM     12  O   UNL     1       5.961   8.416  -4.536  0.00  0.00    +0.000 OA
ATOM     13  H   UNL     1       6.996   9.910  -1.929  0.00  0.00    +0.000 HD
ATOM     14  H   UNL     1       6.742  10.494  -3.536  0.00  0.00    +0.000 HD
ENDBRANCH   6  10
BRANCH   1  15
ATOM     15  C   UNL     1       6.333   2.681  -0.002  0.00  0.00    +0.000 C 
BRANCH  15  19
ATOM     16  C   UNL     1       2.935   0.457   1.446  0.00  0.00    +0.000 C 
ATOM     17  C   UNL     1       2.925   1.987   1.558  0.00  0.00    +0.000 C 
ATOM     18  C   UNL     1       3.988   2.647   0.673  0.00  0.00    +0.000 C 
ATOM     19  N   UNL     1       5.341   2.132   0.942  0.00  0.00    +0.000 NA
ATOM     20  C   UNL     1       5.394   0.660   0.850  0.00  0.00    +0.000 C 
ATOM     21  C   UNL     1       4.361  -0.027   1.740  0.00  0.00    +0.000 C 
BRANCH  16  22
ATOM     22  C   UNL     1       2.401   0.000   0.073  0.00  0.00    +0.000 C 
BRANCH  22  23
ATOM     23  N   UNL     1       2.367  -1.453  -0.039  0.00  0.00    +0.000 NA
ATOM     24  H   UNL     1       1.930  -1.716  -0.923  0.00  0.00    +0.000 HD
ATOM     25  H   UNL     1       1.773  -1.839   0.693  0.00  0.00    +0.000 HD
ENDBRANCH  22  23
ENDBRANCH  16  22
ENDBRANCH  15  19
ENDBRANCH   1  15
TORSDOF 5
