REMARK  Name = 
REMARK  3 active torsions:
REMARK  status: ('A' for Active; 'I' for Inactive)
REMARK    1  A    between atoms: C_2  and  C_4
REMARK    2  A    between atoms: N_8  and  C_9
REMARK    3  A    between atoms: C_9  and  C_10
REMARK                            x       y       z     vdW  Elec       q    Type
REMARK                         _______ _______ _______ _____ _____    ______ ____
ROOT
ATOM      1  C   UNL     1       2.719  -0.918  -1.990  0.00  0.00    +0.000 A 
ATOM      2  C   UNL     1       3.860  -0.390  -1.398  0.00  0.00    +0.000 A 
ATOM      3  C   UNL     1       4.739   0.358  -2.178  0.00  0.00    +0.000 A 
ATOM      4  C   UNL     1       4.459   0.588  -3.528  0.00  0.00    +0.000 A 
ATOM      5  N   UNL     1       5.387   1.389  -4.229  0.00  0.00    +0.000 N 
ATOM      6  N   UNL     1       3.357   0.081  -4.113  0.00  0.00    +0.000 NA
ATOM      7  C   UNL     1       2.527  -0.681  -3.346  0.00  0.00    +0.000 A 
ATOM      8  H   UNL     1       6.296   0.938  -4.194  0.00  0.00    +0.000 HD
ENDROOT
BRANCH   1  10
ATOM      9  N   UNL     1       1.610  -1.473   0.100  0.00  0.00    +0.000 N 
ATOM     10  C   UNL     1       1.735  -1.723  -1.242  0.00  0.00    +0.000 C 
ATOM     11  O   UNL     1       1.036  -2.563  -1.798  0.00  0.00    +0.000 OA
ATOM     12  H   UNL     1       0.867  -1.960   0.585  0.00  0.00    +0.000 HD
ATOM     13  H   UNL     1       1.980  -0.638   0.534  0.00  0.00    +0.000 HD
ENDBRANCH   1  10
BRANCH   5  14
ATOM     14  C   UNL     1       5.065   2.096  -5.489  0.00  0.00    +0.000 C 
ATOM     15  C   UNL     1       5.022   3.612  -5.332  0.00  0.00    +0.000 C 
ATOM     16  C   UNL     1       3.773   2.870  -5.671  0.00  0.00    +0.000 C 
BRANCH  14  17
ATOM     17  C   UNL     1       5.703   1.542  -6.768  0.00  0.00    +0.000 C 
ATOM     18  C   UNL     1       5.259   0.098  -7.039  0.00  0.00    +0.000 C 
ATOM     19  C   UNL     1       5.854  -0.427  -8.343  0.00  0.00    +0.000 C 
ATOM     20  C   UNL     1       7.376  -0.320  -8.344  0.00  0.00    +0.000 C 
ATOM     21  C   UNL     1       7.844   1.102  -8.046  0.00  0.00    +0.000 C 
ATOM     22  C   UNL     1       7.238   1.640  -6.749  0.00  0.00    +0.000 C 
ENDBRANCH  14  17
ENDBRANCH   5  14
TORSDOF 3
