REMARK  Name = 
REMARK  6 active torsions:
REMARK  status: ('A' for Active; 'I' for Inactive)
REMARK    1  A    between atoms: C_2  and  C_3
REMARK    2  A    between atoms: N_10  and  C_11
REMARK    3  A    between atoms: C_11  and  C_12
REMARK    4  A    between atoms: C_15  and  C_16
REMARK    5  A    between atoms: C_16  and  N_17
REMARK    6  A    between atoms: C_18  and  C_20
REMARK                            x       y       z     vdW  Elec       q    Type
REMARK                         _______ _______ _______ _____ _____    ______ ____
ROOT
ATOM      1  C   UNL     1       0.583  -4.055  -0.109  0.00  0.00    +0.000 A 
ATOM      2  C   UNL     1      -0.028  -5.321  -0.057  0.00  0.00    +0.000 A 
ATOM      3  C   UNL     1      -1.424  -5.439  -0.006  0.00  0.00    +0.000 A 
ATOM      4  C   UNL     1      -2.238  -4.299  -0.024  0.00  0.00    +0.000 A 
ATOM      5  C   UNL     1      -1.626  -3.040  -0.051  0.00  0.00    +0.000 A 
ATOM      6  C   UNL     1      -0.233  -2.921  -0.103  0.00  0.00    +0.000 A 
ENDROOT
BRANCH   1   7
ATOM      7  C   UNL     1       2.083  -3.922  -0.129  0.00  0.00    +0.000 C 
BRANCH   7  15
ATOM      8  C   UNL     1       4.062  -3.200  -4.028  0.00  0.00    +0.000 A 
ATOM      9  C   UNL     1       4.730  -3.636  -5.158  0.00  0.00    +0.000 A 
ATOM     10  C   UNL     1       5.523  -4.744  -4.790  0.00  0.00    +0.000 A 
ATOM     11  C   UNL     1       5.343  -4.930  -3.441  0.00  0.00    +0.000 A 
ATOM     12  N   UNL     1       4.403  -4.023  -2.968  0.00  0.00    +0.000 N 
ATOM     13  C   UNL     1       3.989  -3.993  -1.616  0.00  0.00    +0.000 C 
ATOM     14  O   UNL     1       4.796  -4.242  -0.735  0.00  0.00    +0.000 OA
ATOM     15  N   UNL     1       2.637  -3.776  -1.461  0.00  0.00    +0.000 N 
ATOM     16  H   UNL     1       1.995  -3.804  -2.248  0.00  0.00    +0.000 HD
BRANCH   8  18
ATOM     17  N   UNL     1       2.604  -1.076  -3.861  0.00  0.00    +0.000 NA
ATOM     18  C   UNL     1       3.259  -2.031  -3.933  0.00  0.00    +0.000 C 
ENDBRANCH   8  18
ENDBRANCH   7  15
ENDBRANCH   1   7
BRANCH   4  19
ATOM     19  C   UNL     1      -3.741  -4.412   0.009  0.00  0.00    +0.000 C 
BRANCH  19  20
ATOM     20  N   UNL     1      -4.257  -4.322   1.352  0.00  0.00    +0.000 N 
ATOM     21  C   UNL     1      -5.607  -4.300   1.592  0.00  0.00    +0.000 C 
ATOM     22  O   UNL     1      -6.430  -4.217   0.685  0.00  0.00    +0.000 OA
ATOM     23  H   UNL     1      -3.617  -4.553   2.106  0.00  0.00    +0.000 HD
BRANCH  21  24
ATOM     24  C   UNL     1      -6.035  -4.379   2.991  0.00  0.00    +0.000 A 
ATOM     25  C   UNL     1      -7.251  -3.849   3.387  0.00  0.00    +0.000 A 
ATOM     26  S   UNL     1      -7.617  -4.126   5.032  0.00  0.00    +0.000 S 
ATOM     27  C   UNL     1      -6.192  -5.029   5.252  0.00  0.00    +0.000 A 
ATOM     28  N   UNL     1      -5.945  -5.679   6.421  0.00  0.00    +0.000 NA
ATOM     29  C   UNL     1      -4.835  -6.341   6.438  0.00  0.00    +0.000 A 
ATOM     30  N   UNL     1      -3.930  -6.374   5.409  0.00  0.00    +0.000 N 
ATOM     31  C   UNL     1      -4.113  -5.691   4.232  0.00  0.00    +0.000 A 
ATOM     32  O   UNL     1      -3.238  -5.652   3.373  0.00  0.00    +0.000 OA
ATOM     33  C   UNL     1      -5.392  -5.015   4.123  0.00  0.00    +0.000 A 
ATOM     34  H   UNL     1      -3.050  -6.859   5.510  0.00  0.00    +0.000 HD
ENDBRANCH  21  24
ENDBRANCH  19  20
ENDBRANCH   4  19
TORSDOF 6
