REMARK  Name = 
REMARK  7 active torsions:
REMARK  status: ('A' for Active; 'I' for Inactive)
REMARK    1  A    between atoms: C_1  and  C_2
REMARK    2  A    between atoms: C_2  and  N_3
REMARK    3  A    between atoms: C_2  and  C_16
REMARK    4  A    between atoms: C_4  and  C_6
REMARK    5  A    between atoms: C_19  and  O_20
REMARK    6  A    between atoms: O_20  and  C_21
REMARK    7  A    between atoms: C_21  and  C_22
REMARK                            x       y       z     vdW  Elec       q    Type
REMARK                         _______ _______ _______ _____ _____    ______ ____
ROOT
ATOM      1  C   UNL     1       2.269  -0.523   1.589  0.00  0.00    +0.000 C 
ATOM      2  C   UNL     1       2.515  -0.133   0.125  0.00  0.00    +0.000 C 
ENDROOT
BRANCH   2   3
ATOM      3  C   UNL     1       2.942  -1.311  -0.735  0.00  0.00    +0.000 A 
ATOM      4  C   UNL     1       3.929  -1.151  -1.724  0.00  0.00    +0.000 A 
ATOM      5  C   UNL     1       4.368  -2.245  -2.477  0.00  0.00    +0.000 A 
ATOM      6  C   UNL     1       3.829  -3.512  -2.248  0.00  0.00    +0.000 A 
ATOM      7  C   UNL     1       2.799  -3.663  -1.327  0.00  0.00    +0.000 A 
ATOM      8  C   UNL     1       2.362  -2.575  -0.578  0.00  0.00    +0.000 A 
BRANCH   6   9
ATOM      9  O   UNL     1       4.372  -4.542  -2.970  0.00  0.00    +0.000 OA
BRANCH   9  10
ATOM     10  C   UNL     1       4.194  -5.835  -2.375  0.00  0.00    +0.000 C 
BRANCH  10  11
ATOM     11  C   UNL     1       5.212  -6.799  -2.926  0.00  0.00    +0.000 A 
ATOM     12  C   UNL     1       6.569  -6.496  -2.827  0.00  0.00    +0.000 A 
ATOM     13  C   UNL     1       7.496  -7.405  -3.319  0.00  0.00    +0.000 A 
ATOM     14  C   UNL     1       7.047  -8.592  -3.884  0.00  0.00    +0.000 A 
ATOM     15  C   UNL     1       5.683  -8.826  -3.927  0.00  0.00    +0.000 A 
ATOM     16  N   UNL     1       4.758  -7.963  -3.456  0.00  0.00    +0.000 NA
ENDBRANCH  10  11
ENDBRANCH   9  10
ENDBRANCH   6   9
ENDBRANCH   2   3
BRANCH   2  17
ATOM     17  N   UNL     1       1.346   0.509  -0.450  0.00  0.00    +0.000 N 
ATOM     18  C   UNL     1       1.135   1.859  -0.315  0.00  0.00    +0.000 C 
ATOM     19  O   UNL     1       1.924   2.583   0.289  0.00  0.00    +0.000 OA
ATOM     20  H   UNL     1       0.601  -0.086  -0.798  0.00  0.00    +0.000 HD
BRANCH  18  21
ATOM     21  C   UNL     1      -0.043   2.424  -0.981  0.00  0.00    +0.000 A 
ATOM     22  C   UNL     1      -0.030   3.756  -1.372  0.00  0.00    +0.000 A 
ATOM     23  S   UNL     1      -1.470   4.266  -2.126  0.00  0.00    +0.000 S 
ATOM     24  C   UNL     1      -2.183   2.737  -1.912  0.00  0.00    +0.000 A 
ATOM     25  N   UNL     1      -3.466   2.507  -2.302  0.00  0.00    +0.000 NA
ATOM     26  C   UNL     1      -3.895   1.316  -2.043  0.00  0.00    +0.000 A 
ATOM     27  N   UNL     1      -3.148   0.330  -1.448  0.00  0.00    +0.000 N 
ATOM     28  C   UNL     1      -1.832   0.500  -1.090  0.00  0.00    +0.000 A 
ATOM     29  O   UNL     1      -1.160  -0.426  -0.639  0.00  0.00    +0.000 OA
ATOM     30  C   UNL     1      -1.317   1.837  -1.315  0.00  0.00    +0.000 A 
ATOM     31  H   UNL     1      -3.540  -0.587  -1.296  0.00  0.00    +0.000 HD
ENDBRANCH  18  21
ENDBRANCH   2  17
TORSDOF 6
