REMARK  Name = 
REMARK  9 active torsions:
REMARK  status: ('A' for Active; 'I' for Inactive)
REMARK    1  A    between atoms: C_1  and  N_2
REMARK    2  A    between atoms: N_2  and  C_3
REMARK    3  A    between atoms: C_3  and  C_4
REMARK    4  A    between atoms: C_7  and  C_8
REMARK    5  A    between atoms: C_8  and  N_9
REMARK    6  A    between atoms: N_9  and  C_10
REMARK    7  A    between atoms: C_10  and  C_11
REMARK    8  A    between atoms: C_11  and  O_12
REMARK    9  A    between atoms: C_19  and  C_21
REMARK                            x       y       z     vdW  Elec       q    Type
REMARK                         _______ _______ _______ _____ _____    ______ ____
ROOT
ATOM      1  C   UNL     1       2.183  -0.119   2.526  0.00  0.00    +0.000 A 
ATOM      2  C   UNL     1       1.888  -1.431   2.929  0.00  0.00    +0.000 A 
ATOM      3  C   UNL     1       1.057  -1.665   4.021  0.00  0.00    +0.000 A 
ATOM      4  C   UNL     1       0.526  -0.594   4.753  0.00  0.00    +0.000 A 
ATOM      5  C   UNL     1       0.828   0.717   4.348  0.00  0.00    +0.000 A 
ATOM      6  C   UNL     1       1.645   0.954   3.244  0.00  0.00    +0.000 A 
ENDROOT
BRANCH   1   7
ATOM      7  C   UNL     1       3.031   0.133   1.307  0.00  0.00    +0.000 C 
BRANCH   7   9
ATOM      8  C   UNL     1       0.883   0.112  -0.038  0.00  0.00    +0.000 C 
ATOM      9  N   UNL     1       2.325   0.325   0.035  0.00  0.00    +0.000 N 
ATOM     10  C   UNL     1       2.910   0.943  -1.084  0.00  0.00    +0.000 C 
ATOM     11  O   UNL     1       2.235   1.261  -2.061  0.00  0.00    +0.000 OA
BRANCH  10  12
ATOM     12  C   UNL     1       4.362   1.173  -1.106  0.00  0.00    +0.000 A 
ATOM     13  C   UNL     1       5.311   0.245  -0.712  0.00  0.00    +0.000 A 
ATOM     14  S   UNL     1       6.919   0.778  -0.926  0.00  0.00    +0.000 S 
ATOM     15  C   UNL     1       6.398   2.206  -1.690  0.00  0.00    +0.000 A 
ATOM     16  N   UNL     1       7.293   3.076  -2.232  0.00  0.00    +0.000 NA
ATOM     17  C   UNL     1       6.746   4.076  -2.843  0.00  0.00    +0.000 A 
ATOM     18  N   UNL     1       5.395   4.303  -2.924  0.00  0.00    +0.000 N 
ATOM     19  C   UNL     1       4.465   3.530  -2.261  0.00  0.00    +0.000 A 
ATOM     20  O   UNL     1       3.303   3.901  -2.142  0.00  0.00    +0.000 OA
ATOM     21  C   UNL     1       5.020   2.320  -1.683  0.00  0.00    +0.000 A 
ATOM     22  H   UNL     1       5.039   5.145  -3.352  0.00  0.00    +0.000 HD
ENDBRANCH  10  12
ENDBRANCH   7   9
ENDBRANCH   1   7
BRANCH   4  23
ATOM     23  C   UNL     1      -0.437  -0.805   5.898  0.00  0.00    +0.000 C 
BRANCH  23  24
ATOM     24  N   UNL     1      -0.171  -2.036   6.649  0.00  0.00    +0.000 NA
ATOM     25  H   UNL     1       0.783  -1.982   7.008  0.00  0.00    +0.000 HD
BRANCH  24  26
ATOM     26  C   UNL     1      -1.114  -2.152   7.776  0.00  0.00    +0.000 C 
BRANCH  26  27
ATOM     27  C   UNL     1      -0.881  -3.466   8.542  0.00  0.00    +0.000 C 
ATOM     28  C   UNL     1       0.490  -3.579   9.209  0.00  0.00    +0.000 C 
ATOM     29  C   UNL     1       0.313  -4.722  10.207  0.00  0.00    +0.000 C 
ATOM     30  C   UNL     1      -1.176  -4.751  10.557  0.00  0.00    +0.000 C 
ATOM     31  C   UNL     1      -1.828  -3.645   9.726  0.00  0.00    +0.000 C 
BRANCH  27  32
ATOM     32  O   UNL     1      -1.047  -4.563   7.637  0.00  0.00    +0.000 OA
ATOM     33  H   UNL     1      -0.602  -4.281   6.813  0.00  0.00    +0.000 HD
ENDBRANCH  27  32
ENDBRANCH  26  27
ENDBRANCH  24  26
ENDBRANCH  23  24
ENDBRANCH   4  23
TORSDOF 8
