REMARK  Name = 
REMARK  10 active torsions:
REMARK  status: ('A' for Active; 'I' for Inactive)
REMARK    1  A    between atoms: C_1  and  O_2
REMARK    2  A    between atoms: O_2  and  C_3
REMARK    3  A    between atoms: C_10  and  C_11
REMARK    4  A    between atoms: N_13  and  C_14
REMARK    5  A    between atoms: C_14  and  C_15
REMARK    6  A    between atoms: C_18  and  C_19
REMARK    7  A    between atoms: C_19  and  C_20
REMARK    8  A    between atoms: C_19  and  N_21
REMARK    9  A    between atoms: N_21  and  C_22
REMARK   10  A    between atoms: C_22  and  C_23
REMARK                            x       y       z     vdW  Elec       q    Type
REMARK                         _______ _______ _______ _____ _____    ______ ____
ROOT
ATOM      1  C   UNL     1      -5.219  -2.878  -0.304  0.00  0.00    +0.000 A 
ATOM      2  C   UNL     1      -4.178  -1.993  -0.001  0.00  0.00    +0.000 A 
ATOM      3  C   UNL     1      -2.977  -2.459   0.554  0.00  0.00    +0.000 A 
ATOM      4  C   UNL     1      -2.781  -3.823   0.826  0.00  0.00    +0.000 A 
ATOM      5  C   UNL     1      -3.789  -4.712   0.405  0.00  0.00    +0.000 A 
ATOM      6  C   UNL     1      -4.990  -4.248  -0.145  0.00  0.00    +0.000 A 
ENDROOT
BRANCH   4   7
ATOM      7  C   UNL     1      -1.563  -4.363   1.599  0.00  0.00    +0.000 C 
ATOM      8  C   UNL     1      -2.059  -5.091   2.864  0.00  0.00    +0.000 C 
BRANCH   7   9
ATOM      9  N   UNL     1      -0.599  -3.301   1.949  0.00  0.00    +0.000 NA
ATOM     10  H   UNL     1      -1.045  -2.665   2.610  0.00  0.00    +0.000 HD
BRANCH   9  11
ATOM     11  C   UNL     1       0.629  -3.798   2.594  0.00  0.00    +0.000 C 
BRANCH  11  12
ATOM     12  C   UNL     1       1.582  -2.674   2.962  0.00  0.00    +0.000 A 
ATOM     13  C   UNL     1       2.143  -1.873   1.971  0.00  0.00    +0.000 A 
ATOM     14  C   UNL     1       3.006  -0.846   2.344  0.00  0.00    +0.000 A 
ATOM     15  C   UNL     1       3.290  -0.648   3.690  0.00  0.00    +0.000 A 
ATOM     16  C   UNL     1       2.693  -1.488   4.613  0.00  0.00    +0.000 A 
ATOM     17  N   UNL     1       1.848  -2.489   4.283  0.00  0.00    +0.000 NA
ENDBRANCH  11  12
ENDBRANCH   9  11
ENDBRANCH   7   9
ENDBRANCH   4   7
BRANCH   1  18
ATOM     18  C   UNL     1      -6.563  -2.373  -0.760  0.00  0.00    +0.000 C 
BRANCH  18  21
ATOM     19  C   UNL     1      -7.821  -1.846  -2.786  0.00  0.00    +0.000 C 
ATOM     20  O   UNL     1      -8.814  -1.570  -2.115  0.00  0.00    +0.000 OA
ATOM     21  N   UNL     1      -6.661  -2.262  -2.191  0.00  0.00    +0.000 N 
ATOM     22  H   UNL     1      -5.838  -2.468  -2.747  0.00  0.00    +0.000 HD
BRANCH  19  30
ATOM     23  C   UNL     1      -5.494  -2.432  -5.268  0.00  0.00    +0.000 A 
ATOM     24  N   UNL     1      -4.794  -2.551  -6.415  0.00  0.00    +0.000 NA
ATOM     25  C   UNL     1      -5.411  -2.265  -7.564  0.00  0.00    +0.000 A 
ATOM     26  N   UNL     1      -6.670  -1.866  -7.715  0.00  0.00    +0.000 NA
ATOM     27  C   UNL     1      -7.327  -1.745  -6.548  0.00  0.00    +0.000 A 
ATOM     28  S   UNL     1      -8.949  -1.248  -6.557  0.00  0.00    +0.000 S 
ATOM     29  C   UNL     1      -9.033  -1.338  -4.863  0.00  0.00    +0.000 A 
ATOM     30  C   UNL     1      -7.850  -1.740  -4.258  0.00  0.00    +0.000 A 
ATOM     31  C   UNL     1      -6.829  -1.992  -5.272  0.00  0.00    +0.000 A 
BRANCH  23  33
ATOM     32  C   UNL     1      -3.793  -3.678  -4.277  0.00  0.00    +0.000 C 
ATOM     33  O   UNL     1      -4.851  -2.741  -4.086  0.00  0.00    +0.000 OA
ENDBRANCH  23  33
ENDBRANCH  19  30
ENDBRANCH  18  21
ENDBRANCH   1  18
TORSDOF 8
