REMARK  Name = 
REMARK  10 active torsions:
REMARK  status: ('A' for Active; 'I' for Inactive)
REMARK    1  A    between atoms: C_2  and  C_23
REMARK    2  A    between atoms: N_3  and  C_4
REMARK    3  A    between atoms: C_4  and  C_5
REMARK    4  A    between atoms: C_9  and  C_10
REMARK    5  A    between atoms: C_10  and  N_11
REMARK    6  A    between atoms: N_11  and  C_12
REMARK    7  A    between atoms: N_11  and  C_15
REMARK    8  A    between atoms: C_12  and  C_13
REMARK    9  A    between atoms: C_13  and  O_14
REMARK   10  A    between atoms: C_15  and  C_16
REMARK                            x       y       z     vdW  Elec       q    Type
REMARK                         _______ _______ _______ _____ _____    ______ ____
ROOT
ATOM      1  C   UNL     1       3.310   1.130   3.256  0.00  0.00    +0.000 A 
ATOM      2  C   UNL     1       3.696   2.469   3.395  0.00  0.00    +0.000 A 
ATOM      3  C   UNL     1       4.636   2.838   4.358  0.00  0.00    +0.000 A 
ATOM      4  C   UNL     1       5.149   1.883   5.232  0.00  0.00    +0.000 A 
ATOM      5  C   UNL     1       4.692   0.560   5.179  0.00  0.00    +0.000 A 
ATOM      6  C   UNL     1       3.805   0.183   4.162  0.00  0.00    +0.000 A 
ENDROOT
BRANCH   1   7
ATOM      7  C   UNL     1       2.330   0.714   2.193  0.00  0.00    +0.000 C 
BRANCH   7  10
ATOM      8  O   UNL     1       0.933  -1.537   3.144  0.00  0.00    +0.000 OA
ATOM      9  C   UNL     1       0.400  -0.435   3.210  0.00  0.00    +0.000 C 
ATOM     10  N   UNL     1       0.985   0.698   2.708  0.00  0.00    +0.000 N 
ATOM     11  H   UNL     1       0.597   1.604   2.949  0.00  0.00    +0.000 HD
BRANCH   9  12
ATOM     12  C   UNL     1      -0.933  -0.264   3.797  0.00  0.00    +0.000 A 
ATOM     13  C   UNL     1      -1.789  -1.354   3.879  0.00  0.00    +0.000 A 
ATOM     14  S   UNL     1      -3.292  -0.995   4.601  0.00  0.00    +0.000 S 
ATOM     15  C   UNL     1      -2.832   0.623   4.869  0.00  0.00    +0.000 A 
ATOM     16  N   UNL     1      -3.667   1.485   5.508  0.00  0.00    +0.000 NA
ATOM     17  C   UNL     1      -3.178   2.669   5.687  0.00  0.00    +0.000 A 
ATOM     18  N   UNL     1      -1.937   3.070   5.270  0.00  0.00    +0.000 N 
ATOM     19  C   UNL     1      -1.092   2.256   4.552  0.00  0.00    +0.000 A 
ATOM     20  O   UNL     1      -0.050   2.690   4.072  0.00  0.00    +0.000 OA
ATOM     21  C   UNL     1      -1.568   0.897   4.382  0.00  0.00    +0.000 A 
ATOM     22  H   UNL     1      -1.631   4.022   5.401  0.00  0.00    +0.000 HD
ENDBRANCH   9  12
ENDBRANCH   7  10
ENDBRANCH   1   7
BRANCH   5  23
ATOM     23  C   UNL     1       5.080  -0.432   6.255  0.00  0.00    +0.000 C 
BRANCH  23  24
ATOM     24  N   UNL     1       4.689   0.009   7.622  0.00  0.00    +0.000 NA
BRANCH  24  25
ATOM     25  C   UNL     1       3.218   0.188   7.710  0.00  0.00    +0.000 C 
BRANCH  25  26
ATOM     26  C   UNL     1       2.710   0.741   9.053  0.00  0.00    +0.000 C 
BRANCH  26  27
ATOM     27  O   UNL     1       1.305   0.981   8.998  0.00  0.00    +0.000 OA
ATOM     28  H   UNL     1       1.184   1.875   8.636  0.00  0.00    +0.000 HD
ENDBRANCH  26  27
ENDBRANCH  25  26
ENDBRANCH  24  25
BRANCH  24  29
ATOM     29  C   UNL     1       5.153  -0.974   8.623  0.00  0.00    +0.000 C 
BRANCH  29  30
ATOM     30  C   UNL     1       6.654  -1.145   8.652  0.00  0.00    +0.000 A 
ATOM     31  C   UNL     1       7.491  -0.064   8.943  0.00  0.00    +0.000 A 
ATOM     32  C   UNL     1       8.862  -0.259   8.908  0.00  0.00    +0.000 A 
ATOM     33  N   UNL     1       9.445  -1.441   8.616  0.00  0.00    +0.000 NA
ATOM     34  C   UNL     1       8.619  -2.475   8.350  0.00  0.00    +0.000 A 
ATOM     35  C   UNL     1       7.237  -2.382   8.362  0.00  0.00    +0.000 A 
ENDBRANCH  29  30
ENDBRANCH  24  29
ENDBRANCH  23  24
ENDBRANCH   5  23
TORSDOF 10
