REMARK  Name = 
REMARK  6 active torsions:
REMARK  status: ('A' for Active; 'I' for Inactive)
REMARK    1  A    between atoms: N_1  and  C_2
REMARK    2  A    between atoms: C_2  and  C_3
REMARK    3  A    between atoms: C_6  and  C_7
REMARK    4  A    between atoms: C_7  and  S_8
REMARK    5  A    between atoms: S_8  and  C_9
REMARK    6  A    between atoms: C_13  and  N_14
REMARK                            x       y       z     vdW  Elec       q    Type
REMARK                         _______ _______ _______ _____ _____    ______ ____
ROOT
ATOM      1  C   UNL     1       3.827  -2.970   4.733  0.00  0.00    +0.000 C 
ENDROOT
BRANCH   1   5
ATOM      2  C   UNL     1       2.866  -0.783   1.091  0.00  0.00    +0.000 A 
ATOM      3  C   UNL     1       3.221  -0.102   2.263  0.00  0.00    +0.000 A 
ATOM      4  C   UNL     1       3.540  -0.802   3.431  0.00  0.00    +0.000 A 
ATOM      5  C   UNL     1       3.497  -2.205   3.464  0.00  0.00    +0.000 A 
ATOM      6  C   UNL     1       3.147  -2.886   2.289  0.00  0.00    +0.000 A 
ATOM      7  C   UNL     1       2.837  -2.183   1.117  0.00  0.00    +0.000 A 
BRANCH   2   8
ATOM      8  C   UNL     1       2.488  -0.024  -0.156  0.00  0.00    +0.000 C 
BRANCH   8   9
ATOM      9  N   UNL     1       3.555   0.870  -0.596  0.00  0.00    +0.000 NA
ATOM     10  H   UNL     1       3.320   1.243  -1.512  0.00  0.00    +0.000 HD
ATOM     11  H   UNL     1       4.408   0.323  -0.716  0.00  0.00    +0.000 HD
ENDBRANCH   8   9
ENDBRANCH   2   8
ENDBRANCH   1   5
BRANCH   1  12
ATOM     12  S   UNL     1       2.616  -2.636   6.048  0.00  0.00    +0.000 S 
BRANCH  12  13
ATOM     13  C   UNL     1       3.251  -3.624   7.383  0.00  0.00    +0.000 A 
ATOM     14  N   UNL     1       2.546  -3.549   8.526  0.00  0.00    +0.000 NA
ATOM     15  C   UNL     1       2.977  -4.301   9.550  0.00  0.00    +0.000 A 
ATOM     16  C   UNL     1       4.082  -5.108   9.473  0.00  0.00    +0.000 A 
ATOM     17  C   UNL     1       4.750  -5.102   8.268  0.00  0.00    +0.000 A 
ATOM     18  N   UNL     1       4.351  -4.378   7.211  0.00  0.00    +0.000 NA
BRANCH  17  19
ATOM     19  N   UNL     1       5.863  -5.926   8.097  0.00  0.00    +0.000 N 
ATOM     20  H   UNL     1       6.548  -5.811   8.834  0.00  0.00    +0.000 HD
ATOM     21  H   UNL     1       6.257  -5.749   7.176  0.00  0.00    +0.000 HD
ENDBRANCH  17  19
ENDBRANCH  12  13
ENDBRANCH   1  12
TORSDOF 6
