REMARK  Name = 
REMARK  11 active torsions:
REMARK  status: ('A' for Active; 'I' for Inactive)
REMARK    1  A    between atoms: C_1  and  C_2
REMARK    2  A    between atoms: C_2  and  N_3
REMARK    3  A    between atoms: N_3  and  C_4
REMARK    4  A    between atoms: C_5  and  C_7
REMARK    5  A    between atoms: C_10  and  N_11
REMARK    6  A    between atoms: N_11  and  C_12
REMARK    7  A    between atoms: C_12  and  C_13
REMARK    8  A    between atoms: C_13  and  C_14
REMARK    9  A    between atoms: C_13  and  C_15
REMARK   10  A    between atoms: C_13  and  C_16
REMARK   11  A    between atoms: C_20  and  C_21
REMARK                            x       y       z     vdW  Elec       q    Type
REMARK                         _______ _______ _______ _____ _____    ______ ____
ROOT
ATOM      1  N   UNL     1       6.121   1.764   6.719  0.00  0.00    +0.000 N 
ATOM      2  H   UNL     1       7.103   2.012   6.710  0.00  0.00    +0.000 HD
ENDROOT
BRANCH   1   6
ATOM      3  C   UNL     1       4.950   0.568   2.963  0.00  0.00    +0.000 A 
ATOM      4  C   UNL     1       4.634  -0.195   4.077  0.00  0.00    +0.000 A 
ATOM      5  N   UNL     1       5.027   0.140   5.338  0.00  0.00    +0.000 NA
ATOM      6  C   UNL     1       5.749   1.272   5.464  0.00  0.00    +0.000 A 
ATOM      7  C   UNL     1       6.082   2.014   4.324  0.00  0.00    +0.000 A 
ATOM      8  N   UNL     1       5.702   1.691   3.064  0.00  0.00    +0.000 NA
BRANCH   3  11
ATOM      9  N   UNL     1       5.064   0.522   0.455  0.00  0.00    +0.000 N 
ATOM     10  C   UNL     1       6.422   1.046   0.436  0.00  0.00    +0.000 C 
ATOM     11  C   UNL     1       4.382   0.195   1.637  0.00  0.00    +0.000 C 
ATOM     12  O   UNL     1       3.298  -0.397   1.624  0.00  0.00    +0.000 OA
BRANCH   9  14
ATOM     13  C   UNL     1       4.573  -1.213  -1.249  0.00  0.00    +0.000 C 
ATOM     14  C   UNL     1       4.424   0.241  -0.826  0.00  0.00    +0.000 C 
ENDBRANCH   9  14
ENDBRANCH   3  11
ENDBRANCH   1   6
BRANCH   1  15
ATOM     15  C   UNL     1       5.689   1.007   7.901  0.00  0.00    +0.000 C 
BRANCH  15  16
ATOM     16  C   UNL     1       6.664   1.202   9.112  0.00  0.00    +0.000 C 
ATOM     17  C   UNL     1       8.072   0.672   8.741  0.00  0.00    +0.000 C 
ATOM     18  C   UNL     1       6.800   2.716   9.410  0.00  0.00    +0.000 C 
BRANCH  16  19
ATOM     19  C   UNL     1       6.168   0.399  10.343  0.00  0.00    +0.000 A 
ATOM     20  C   UNL     1       6.011  -1.000  10.264  0.00  0.00    +0.000 A 
ATOM     21  C   UNL     1       5.643  -1.759  11.379  0.00  0.00    +0.000 A 
ATOM     22  C   UNL     1       5.418  -1.139  12.605  0.00  0.00    +0.000 A 
ATOM     23  C   UNL     1       5.546   0.245  12.716  0.00  0.00    +0.000 A 
ATOM     24  C   UNL     1       5.914   1.004  11.591  0.00  0.00    +0.000 A 
BRANCH  23  25
ATOM     25  C   UNL     1       5.324   0.892  13.979  0.00  0.00    +0.000 C 
ATOM     26  N   UNL     1       5.152   1.416  14.998  0.00  0.00    +0.000 NA
ENDBRANCH  23  25
ENDBRANCH  16  19
ENDBRANCH  15  16
ENDBRANCH   1  15
TORSDOF 7
