REMARK  Name = 
REMARK  6 active torsions:
REMARK  status: ('A' for Active; 'I' for Inactive)
REMARK    1  A    between atoms: C_2  and  C_3
REMARK    2  A    between atoms: N_7  and  C_8
REMARK    3  A    between atoms: C_8  and  C_9
REMARK    4  A    between atoms: C_9  and  C_12
REMARK    5  A    between atoms: C_16  and  N_17
REMARK    6  A    between atoms: N_17  and  C_18
REMARK                            x       y       z     vdW  Elec       q    Type
REMARK                         _______ _______ _______ _____ _____    ______ ____
ROOT
ATOM      1  C   UNL     1      -5.844   1.133  -0.265  0.00  0.00    +0.000 C 
ATOM      2  F   UNL     1      -6.378   0.164   0.538  0.00  0.00    +0.000 F 
ATOM      3  F   UNL     1      -4.559   1.290   0.169  0.00  0.00    +0.000 F 
ENDROOT
BRANCH   1   4
ATOM      4  C   UNL     1      -6.635   2.427  -0.186  0.00  0.00    +0.000 A 
ATOM      5  C   UNL     1      -8.027   2.409  -0.032  0.00  0.00    +0.000 A 
ATOM      6  C   UNL     1      -8.745   3.605   0.023  0.00  0.00    +0.000 A 
ATOM      7  C   UNL     1      -8.083   4.833  -0.082  0.00  0.00    +0.000 A 
ATOM      8  C   UNL     1      -6.694   4.877  -0.219  0.00  0.00    +0.000 A 
ATOM      9  C   UNL     1      -5.984   3.668  -0.280  0.00  0.00    +0.000 A 
BRANCH   8  10
ATOM     10  N   UNL     1      -5.964   6.079  -0.336  0.00  0.00    +0.000 N 
ATOM     11  H   UNL     1      -5.221   6.085   0.364  0.00  0.00    +0.000 HD
BRANCH  10  12
ATOM     12  C   UNL     1      -6.490   7.383  -0.604  0.00  0.00    +0.000 C 
ATOM     13  C   UNL     1      -6.913   7.564  -2.077  0.00  0.00    +0.000 C 
ATOM     14  C   UNL     1      -6.173   8.917  -2.067  0.00  0.00    +0.000 C 
ATOM     15  F   UNL     1      -5.462   9.207  -3.179  0.00  0.00    +0.000 F 
ATOM     16  F   UNL     1      -6.945   9.998  -1.806  0.00  0.00    +0.000 F 
ATOM     17  C   UNL     1      -5.353   8.394  -0.871  0.00  0.00    +0.000 C 
ENDBRANCH  10  12
ENDBRANCH   8  10
ENDBRANCH   1   4
BRANCH   1  18
ATOM     18  C   UNL     1      -5.810   0.601  -1.722  0.00  0.00    +0.000 C 
BRANCH  18  23
ATOM     19  C   UNL     1      -4.333  -2.682  -5.410  0.00  0.00    +0.000 A 
ATOM     20  C   UNL     1      -5.115  -1.537  -5.460  0.00  0.00    +0.000 A 
ATOM     21  C   UNL     1      -5.377  -0.834  -4.281  0.00  0.00    +0.000 A 
ATOM     22  C   UNL     1      -4.855  -1.284  -3.072  0.00  0.00    +0.000 A 
ATOM     23  N   UNL     1      -5.080  -0.657  -1.879  0.00  0.00    +0.000 N 
ATOM     24  N   UNL     1      -4.092  -2.392  -3.015  0.00  0.00    +0.000 NA
ATOM     25  C   UNL     1      -3.844  -3.062  -4.172  0.00  0.00    +0.000 A 
ATOM     26  H   UNL     1      -4.623  -1.080  -1.077  0.00  0.00    +0.000 HD
BRANCH  19  28
ATOM     27  N   UNL     1      -3.812  -4.051  -7.544  0.00  0.00    +0.000 NA
ATOM     28  C   UNL     1      -4.041  -3.441  -6.583  0.00  0.00    +0.000 C 
ENDBRANCH  19  28
ENDBRANCH  18  23
ENDBRANCH   1  18
TORSDOF 6
