REMARK  Name = 
REMARK  5 active torsions:
REMARK  status: ('A' for Active; 'I' for Inactive)
REMARK    1  A    between atoms: N_1  and  C_2
REMARK    2  A    between atoms: C_2  and  C_3
REMARK    3  A    between atoms: C_3  and  C_4
REMARK    4  A    between atoms: C_7  and  C_8
REMARK    5  A    between atoms: C_8  and  N_9
REMARK                            x       y       z     vdW  Elec       q    Type
REMARK                         _______ _______ _______ _____ _____    ______ ____
ROOT
ATOM      1  C   UNL     1       4.618  -0.981  -0.956  0.00  0.00    +0.000 A 
ATOM      2  C   UNL     1       5.369  -1.744  -1.847  0.00  0.00    +0.000 A 
ATOM      3  C   UNL     1       6.768  -1.651  -1.854  0.00  0.00    +0.000 A 
ATOM      4  C   UNL     1       7.438  -0.785  -0.967  0.00  0.00    +0.000 A 
ATOM      5  C   UNL     1       6.675  -0.024  -0.078  0.00  0.00    +0.000 A 
ATOM      6  C   UNL     1       5.279  -0.125  -0.062  0.00  0.00    +0.000 A 
ENDROOT
BRANCH   1   7
ATOM      7  C   UNL     1       3.103  -1.062  -0.951  0.00  0.00    +0.000 C 
BRANCH   7   8
ATOM      8  C   UNL     1       2.561  -2.132   0.006  0.00  0.00    +0.000 C 
BRANCH   8   9
ATOM      9  N   UNL     1       1.100  -2.157  -0.013  0.00  0.00    +0.000 NA
ATOM     10  H   UNL     1       0.763  -2.877   0.622  0.00  0.00    +0.000 HD
ATOM     11  H   UNL     1       0.768  -2.411  -0.943  0.00  0.00    +0.000 HD
ENDBRANCH   8   9
ENDBRANCH   7   8
ENDBRANCH   1   7
BRANCH   4  12
ATOM     12  C   UNL     1       8.945  -0.705  -0.956  0.00  0.00    +0.000 C 
BRANCH  12  13
ATOM     13  N   UNL     1       9.491   0.339  -1.820  0.00  0.00    +0.000 N 
ATOM     14  C   UNL     1       9.399   0.324  -3.195  0.00  0.00    +0.000 A 
ATOM     15  C   UNL     1      10.131   1.378  -3.685  0.00  0.00    +0.000 A 
ATOM     16  C   UNL     1      10.933   1.847  -2.616  0.00  0.00    +0.000 A 
ATOM     17  C   UNL     1      12.077   2.666  -2.552  0.00  0.00    +0.000 A 
ATOM     18  C   UNL     1      12.649   2.941  -1.307  0.00  0.00    +0.000 A 
ATOM     19  C   UNL     1      12.032   2.508  -0.138  0.00  0.00    +0.000 A 
ATOM     20  C   UNL     1      10.893   1.695  -0.177  0.00  0.00    +0.000 A 
ATOM     21  C   UNL     1      10.416   1.297  -1.437  0.00  0.00    +0.000 A 
ENDBRANCH  12  13
ENDBRANCH   4  12
TORSDOF 5
