REMARK  Name = 
REMARK  6 active torsions:
REMARK  status: ('A' for Active; 'I' for Inactive)
REMARK    1  A    between atoms: C_2  and  C_4
REMARK    2  A    between atoms: C_7  and  N_8
REMARK    3  A    between atoms: N_8  and  C_9
REMARK    4  A    between atoms: C_9  and  C_10
REMARK    5  A    between atoms: C_10  and  C_13
REMARK    6  A    between atoms: C_17  and  C_18
REMARK                            x       y       z     vdW  Elec       q    Type
REMARK                         _______ _______ _______ _____ _____    ______ ____
ROOT
ATOM      1  C   UNL     1       5.936  -5.533  -4.772  0.00  0.00    +0.000 C 
ATOM      2  F   UNL     1       7.232  -5.099  -4.787  0.00  0.00    +0.000 F 
ATOM      3  F   UNL     1       5.905  -6.535  -3.839  0.00  0.00    +0.000 F 
ENDROOT
BRANCH   1   4
ATOM      4  C   UNL     1       5.484  -6.011  -6.140  0.00  0.00    +0.000 A 
ATOM      5  C   UNL     1       4.562  -7.057  -6.257  0.00  0.00    +0.000 A 
ATOM      6  C   UNL     1       4.134  -7.472  -7.514  0.00  0.00    +0.000 A 
ATOM      7  C   UNL     1       4.618  -6.843  -8.665  0.00  0.00    +0.000 A 
ATOM      8  C   UNL     1       5.531  -5.775  -8.593  0.00  0.00    +0.000 A 
ATOM      9  C   UNL     1       5.957  -5.383  -7.309  0.00  0.00    +0.000 A 
BRANCH   8  10
ATOM     10  C   UNL     1       6.004  -5.079  -9.812  0.00  0.00    +0.000 A 
ATOM     11  C   UNL     1       7.293  -4.536  -9.920  0.00  0.00    +0.000 A 
ATOM     12  C   UNL     1       7.690  -3.859 -11.075  0.00  0.00    +0.000 A 
ATOM     13  C   UNL     1       6.786  -3.747 -12.115  0.00  0.00    +0.000 A 
ATOM     14  N   UNL     1       5.540  -4.255 -12.073  0.00  0.00    +0.000 NA
ATOM     15  C   UNL     1       5.185  -4.898 -10.932  0.00  0.00    +0.000 A 
ENDBRANCH   8  10
ENDBRANCH   1   4
BRANCH   1  16
ATOM     16  C   UNL     1       5.022  -4.384  -4.274  0.00  0.00    +0.000 C 
BRANCH  16  17
ATOM     17  N   UNL     1       5.372  -3.902  -2.926  0.00  0.00    +0.000 N 
ATOM     18  H   UNL     1       5.704  -4.629  -2.293  0.00  0.00    +0.000 HD
BRANCH  17  22
ATOM     19  C   UNL     1       3.338  -0.741  -1.011  0.00  0.00    +0.000 A 
ATOM     20  C   UNL     1       2.933  -1.146  -2.283  0.00  0.00    +0.000 A 
ATOM     21  C   UNL     1       3.586  -2.208  -2.923  0.00  0.00    +0.000 A 
ATOM     22  C   UNL     1       4.631  -2.904  -2.301  0.00  0.00    +0.000 A 
ATOM     23  C   UNL     1       5.038  -2.466  -1.032  0.00  0.00    +0.000 A 
ATOM     24  C   UNL     1       4.405  -1.393  -0.392  0.00  0.00    +0.000 A 
BRANCH  19  26
ATOM     25  N   UNL     1       1.383   0.656  -0.614  0.00  0.00    +0.000 N 
ATOM     26  C   UNL     1       2.694   0.403  -0.313  0.00  0.00    +0.000 C 
ATOM     27  O   UNL     1       3.292   1.067   0.521  0.00  0.00    +0.000 OA
ATOM     28  H   UNL     1       0.930   1.369  -0.053  0.00  0.00    +0.000 HD
ATOM     29  H   UNL     1       0.799  -0.008  -1.096  0.00  0.00    +0.000 HD
ENDBRANCH  19  26
ENDBRANCH  17  22
ENDBRANCH  16  17
ENDBRANCH   1  16
TORSDOF 6
