REMARK  Name = 
REMARK  3 active torsions:
REMARK  status: ('A' for Active; 'I' for Inactive)
REMARK    1  A    between atoms: C_2  and  C_4
REMARK    2  A    between atoms: N_8  and  C_9
REMARK    3  A    between atoms: C_9  and  C_10
REMARK                            x       y       z     vdW  Elec       q    Type
REMARK                         _______ _______ _______ _____ _____    ______ ____
ROOT
ATOM      1  C   UNL     1       3.284   1.205  -0.411  0.00  0.00    +0.000 A 
ATOM      2  C   UNL     1       3.611   0.710  -1.669  0.00  0.00    +0.000 A 
ATOM      3  C   UNL     1       4.130   1.584  -2.622  0.00  0.00    +0.000 A 
ATOM      4  C   UNL     1       4.285   2.936  -2.318  0.00  0.00    +0.000 A 
ATOM      5  N   UNL     1       4.758   3.766  -3.332  0.00  0.00    +0.000 N 
ATOM      6  N   UNL     1       3.951   3.431  -1.111  0.00  0.00    +0.000 NA
ATOM      7  C   UNL     1       3.462   2.563  -0.186  0.00  0.00    +0.000 A 
ATOM      8  H   UNL     1       5.696   3.493  -3.611  0.00  0.00    +0.000 HD
ENDROOT
BRANCH   1  10
ATOM      9  N   UNL     1       3.045  -0.977   0.628  0.00  0.00    +0.000 N 
ATOM     10  C   UNL     1       2.743   0.357   0.671  0.00  0.00    +0.000 C 
ATOM     11  O   UNL     1       2.083   0.827   1.586  0.00  0.00    +0.000 OA
ATOM     12  H   UNL     1       2.753  -1.532   1.423  0.00  0.00    +0.000 HD
ATOM     13  H   UNL     1       3.767  -1.359   0.034  0.00  0.00    +0.000 HD
ENDBRANCH   1  10
BRANCH   5  14
ATOM     14  C   UNL     1       4.626   5.198  -3.132  0.00  0.00    +0.000 C 
BRANCH  14  15
ATOM     15  C   UNL     1       4.756   5.868  -4.487  0.00  0.00    +0.000 A 
ATOM     16  C   UNL     1       5.653   6.921  -4.702  0.00  0.00    +0.000 A 
ATOM     17  C   UNL     1       5.751   7.521  -5.962  0.00  0.00    +0.000 A 
ATOM     18  C   UNL     1       4.953   7.075  -7.017  0.00  0.00    +0.000 A 
ATOM     19  C   UNL     1       4.053   6.034  -6.809  0.00  0.00    +0.000 A 
ATOM     20 CL   UNL     1       3.071   5.475  -8.107  0.00  0.00    +0.000 Cl
ATOM     21  C   UNL     1       3.946   5.438  -5.555  0.00  0.00    +0.000 A 
ENDBRANCH  14  15
ENDBRANCH   5  14
TORSDOF 3
