REMARK  Name = 
REMARK  5 active torsions:
REMARK  status: ('A' for Active; 'I' for Inactive)
REMARK    1  A    between atoms: N_1  and  C_2
REMARK    2  A    between atoms: C_2  and  C_3
REMARK    3  A    between atoms: C_6  and  C_7
REMARK    4  A    between atoms: C_7  and  N_8
REMARK    5  A    between atoms: C_12  and  C_13
REMARK                            x       y       z     vdW  Elec       q    Type
REMARK                         _______ _______ _______ _____ _____    ______ ____
ROOT
ATOM      1  N   UNL     1       6.897   3.655  -1.229  0.00  0.00    +0.000 N 
ATOM      2  C   UNL     1       7.910   4.009  -0.380  0.00  0.00    +0.000 A 
ATOM      3  C   UNL     1       7.878   3.907   1.016  0.00  0.00    +0.000 A 
ATOM      4  N   UNL     1       8.936   4.178   1.829  0.00  0.00    +0.000 NA
ATOM      5  C   UNL     1      10.065   4.547   1.169  0.00  0.00    +0.000 A 
ATOM      6  C   UNL     1      10.116   4.662  -0.211  0.00  0.00    +0.000 A 
ATOM      7  N   UNL     1       9.040   4.407  -1.002  0.00  0.00    +0.000 NA
ATOM      8  H   UNL     1       7.118   3.994  -2.163  0.00  0.00    +0.000 HD
ENDROOT
BRANCH   5   9
ATOM      9  C   UNL     1      11.297   4.801   1.965  0.00  0.00    +0.000 C 
ATOM     10  N   UNL     1      11.184   4.650   3.321  0.00  0.00    +0.000 N 
ATOM     11  O   UNL     1      12.355   5.115   1.443  0.00  0.00    +0.000 OA
ATOM     12  H   UNL     1      10.312   4.349   3.738  0.00  0.00    +0.000 HD
ATOM     13  H   UNL     1      12.011   4.764   3.893  0.00  0.00    +0.000 HD
ENDBRANCH   5   9
BRANCH   1  14
ATOM     14  C   UNL     1       5.498   3.608  -0.856  0.00  0.00    +0.000 C 
BRANCH  14  18
ATOM     15  C   UNL     1       2.947   0.728  -1.284  0.00  0.00    +0.000 C 
ATOM     16  C   UNL     1       4.456   0.589  -1.553  0.00  0.00    +0.000 C 
ATOM     17  C   UNL     1       5.012   1.668  -2.482  0.00  0.00    +0.000 C 
ATOM     18  C   UNL     1       4.666   3.105  -2.057  0.00  0.00    +0.000 C 
ATOM     19  C   UNL     1       3.163   3.253  -1.798  0.00  0.00    +0.000 C 
ATOM     20  C   UNL     1       2.579   2.171  -0.893  0.00  0.00    +0.000 C 
BRANCH  15  21
ATOM     21  C   UNL     1       2.152   0.156  -2.477  0.00  0.00    +0.000 C 
BRANCH  21  22
ATOM     22  N   UNL     1       0.706   0.224  -2.299  0.00  0.00    +0.000 NA
ATOM     23  H   UNL     1       0.253  -0.202  -3.108  0.00  0.00    +0.000 HD
ATOM     24  H   UNL     1       0.404   1.197  -2.299  0.00  0.00    +0.000 HD
ENDBRANCH  21  22
ENDBRANCH  15  21
ENDBRANCH  14  18
ENDBRANCH   1  14
TORSDOF 5
