REMARK  Name = 
REMARK  6 active torsions:
REMARK  status: ('A' for Active; 'I' for Inactive)
REMARK    1  A    between atoms: C_1  and  O_2
REMARK    2  A    between atoms: O_2  and  C_3
REMARK    3  A    between atoms: C_7  and  C_8
REMARK    4  A    between atoms: C_12  and  C_13
REMARK    5  A    between atoms: C_13  and  N_14
REMARK    6  A    between atoms: C_18  and  C_19
REMARK                            x       y       z     vdW  Elec       q    Type
REMARK                         _______ _______ _______ _____ _____    ______ ____
ROOT
ATOM      1  C   UNL     1       2.515  -5.574  -6.299  0.00  0.00    +0.000 C 
ATOM      2  C   UNL     1       1.197  -5.817  -7.023  0.00  0.00    +0.000 C 
ATOM      3  C   UNL     1       1.365  -6.300  -5.623  0.00  0.00    +0.000 C 
ENDROOT
BRANCH   1   4
ATOM      4  N   UNL     1       3.703  -6.335  -6.731  0.00  0.00    +0.000 N 
ATOM      5  C   UNL     1       4.627  -6.902  -5.841  0.00  0.00    +0.000 A 
ATOM      6  C   UNL     1       4.269  -7.481  -4.628  0.00  0.00    +0.000 A 
ATOM      7  C   UNL     1       5.240  -8.117  -3.847  0.00  0.00    +0.000 A 
ATOM      8  C   UNL     1       6.562  -8.158  -4.280  0.00  0.00    +0.000 A 
ATOM      9  C   UNL     1       6.837  -7.546  -5.493  0.00  0.00    +0.000 A 
ATOM     10  N   UNL     1       5.907  -6.930  -6.273  0.00  0.00    +0.000 NA
ATOM     11  H   UNL     1       4.261  -5.914  -7.472  0.00  0.00    +0.000 HD
BRANCH   8  12
ATOM     12  C   UNL     1       7.576  -8.845  -3.442  0.00  0.00    +0.000 C 
ATOM     13  N   UNL     1       8.873  -8.900  -3.870  0.00  0.00    +0.000 N 
ATOM     14  O   UNL     1       7.265  -9.359  -2.373  0.00  0.00    +0.000 OA
ATOM     15  H   UNL     1       9.231  -8.529  -4.735  0.00  0.00    +0.000 HD
ATOM     16  H   UNL     1       9.524  -9.390  -3.269  0.00  0.00    +0.000 HD
ENDBRANCH   8  12
ENDBRANCH   1   4
BRANCH   1  21
ATOM     17  C   UNL     1       3.356  -2.396  -4.267  0.00  0.00    +0.000 A 
ATOM     18  C   UNL     1       3.419  -1.441  -5.292  0.00  0.00    +0.000 A 
ATOM     19  C   UNL     1       3.183  -1.796  -6.622  0.00  0.00    +0.000 A 
ATOM     20  C   UNL     1       2.891  -3.122  -6.949  0.00  0.00    +0.000 A 
ATOM     21  C   UNL     1       2.811  -4.116  -5.961  0.00  0.00    +0.000 A 
ATOM     22  C   UNL     1       3.039  -3.721  -4.635  0.00  0.00    +0.000 A 
BRANCH  17  27
ATOM     23  C   UNL     1       4.384  -2.696  -0.630  0.00  0.00    +0.000 A 
ATOM     24  C   UNL     1       3.945  -1.460  -0.182  0.00  0.00    +0.000 A 
ATOM     25  N   UNL     1       3.386  -0.517  -0.976  0.00  0.00    +0.000 NA
ATOM     26  C   UNL     1       3.232  -0.844  -2.283  0.00  0.00    +0.000 A 
ATOM     27  C   UNL     1       3.606  -2.061  -2.852  0.00  0.00    +0.000 A 
ATOM     28  C   UNL     1       4.211  -2.985  -1.982  0.00  0.00    +0.000 A 
BRANCH  23  30
ATOM     29  C   UNL     1       5.824  -4.517  -0.202  0.00  0.00    +0.000 C 
ATOM     30  O   UNL     1       4.912  -3.544   0.300  0.00  0.00    +0.000 OA
ENDBRANCH  23  30
ENDBRANCH  17  27
ENDBRANCH   1  21
TORSDOF 5
