REMARK  Name = 
REMARK  3 active torsions:
REMARK  status: ('A' for Active; 'I' for Inactive)
REMARK    1  A    between atoms: C_2  and  C_4
REMARK    2  A    between atoms: N_8  and  C_9
REMARK    3  A    between atoms: C_9  and  C_10
REMARK                            x       y       z     vdW  Elec       q    Type
REMARK                         _______ _______ _______ _____ _____    ______ ____
ROOT
ATOM      1  C   UNL     1       1.562  -0.309  -5.590  0.00  0.00    +0.000 A 
ATOM      2  C   UNL     1       1.769   0.203  -4.325  0.00  0.00    +0.000 A 
ATOM      3  N   UNL     1       2.949   0.697  -3.896  0.00  0.00    +0.000 NA
ATOM      4  C   UNL     1       3.971   0.654  -4.766  0.00  0.00    +0.000 A 
ATOM      5  N   UNL     1       5.176   1.122  -4.269  0.00  0.00    +0.000 N 
ATOM      6  N   UNL     1       3.871   0.162  -6.017  0.00  0.00    +0.000 NA
ATOM      7  C   UNL     1       2.671  -0.313  -6.402  0.00  0.00    +0.000 A 
ATOM      8  H   UNL     1       5.085   1.464  -3.326  0.00  0.00    +0.000 HD
ENDROOT
BRANCH   1  10
ATOM      9  N   UNL     1      -0.857  -0.266  -5.481  0.00  0.00    +0.000 N 
ATOM     10  C   UNL     1       0.262  -0.804  -6.050  0.00  0.00    +0.000 C 
ATOM     11  O   UNL     1       0.196  -1.642  -6.940  0.00  0.00    +0.000 OA
ATOM     12  H   UNL     1      -1.739  -0.542  -5.890  0.00  0.00    +0.000 HD
ATOM     13  H   UNL     1      -0.847   0.595  -4.951  0.00  0.00    +0.000 HD
ENDBRANCH   1  10
BRANCH   5  14
ATOM     14  C   UNL     1       6.464   0.935  -4.925  0.00  0.00    +0.000 C 
ATOM     15  C   UNL     1       6.841  -0.431  -5.468  0.00  0.00    +0.000 C 
ATOM     16  C   UNL     1       7.491   0.064  -4.219  0.00  0.00    +0.000 C 
BRANCH  14  17
ATOM     17  C   UNL     1       6.945   2.208  -5.609  0.00  0.00    +0.000 A 
ATOM     18  C   UNL     1       6.803   2.392  -6.996  0.00  0.00    +0.000 A 
ATOM     19  C   UNL     1       7.052   3.627  -7.601  0.00  0.00    +0.000 A 
ATOM     20  C   UNL     1       7.454   4.712  -6.827  0.00  0.00    +0.000 A 
ATOM     21  C   UNL     1       7.649   4.542  -5.460  0.00  0.00    +0.000 A 
ATOM     22 CL   UNL     1       8.128   5.885  -4.495  0.00  0.00    +0.000 Cl
ATOM     23  C   UNL     1       7.413   3.304  -4.858  0.00  0.00    +0.000 A 
ENDBRANCH  14  17
ENDBRANCH   5  14
TORSDOF 3
