REMARK  Name = 
REMARK  6 active torsions:
REMARK  status: ('A' for Active; 'I' for Inactive)
REMARK    1  A    between atoms: C_2  and  C_25
REMARK    2  A    between atoms: N_3  and  C_4
REMARK    3  A    between atoms: C_4  and  C_5
REMARK    4  A    between atoms: C_8  and  C_9
REMARK    5  A    between atoms: C_9  and  N_10
REMARK    6  A    between atoms: C_11  and  C_13
REMARK                            x       y       z     vdW  Elec       q    Type
REMARK                         _______ _______ _______ _____ _____    ______ ____
ROOT
ATOM      1  C   UNL     1       3.223   0.741  -3.592  0.00  0.00    +0.000 A 
ATOM      2  C   UNL     1       3.466   2.048  -4.035  0.00  0.00    +0.000 A 
ATOM      3  C   UNL     1       4.375   2.293  -5.070  0.00  0.00    +0.000 A 
ATOM      4  C   UNL     1       5.043   1.233  -5.697  0.00  0.00    +0.000 A 
ATOM      5  C   UNL     1       4.808  -0.073  -5.247  0.00  0.00    +0.000 A 
ATOM      6  C   UNL     1       3.898  -0.318  -4.214  0.00  0.00    +0.000 A 
ENDROOT
BRANCH   1   7
ATOM      7  C   UNL     1       2.249   0.477  -2.478  0.00  0.00    +0.000 C 
BRANCH   7  10
ATOM      8  O   UNL     1       0.062  -0.037  -0.887  0.00  0.00    +0.000 OA
ATOM      9  C   UNL     1      -0.137   0.059  -2.097  0.00  0.00    +0.000 C 
ATOM     10  N   UNL     1       0.902   0.313  -2.966  0.00  0.00    +0.000 N 
ATOM     11  H   UNL     1       0.707   0.419  -3.954  0.00  0.00    +0.000 HD
BRANCH   9  12
ATOM     12  C   UNL     1      -1.463  -0.078  -2.686  0.00  0.00    +0.000 A 
ATOM     13  C   UNL     1      -2.651  -0.254  -1.996  0.00  0.00    +0.000 A 
ATOM     14  C   UNL     1      -3.779  -0.366  -2.858  0.00  0.00    +0.000 A 
ATOM     15  C   UNL     1      -3.419  -0.277  -4.183  0.00  0.00    +0.000 A 
ATOM     16  S   UNL     1      -1.735  -0.049  -4.378  0.00  0.00    +0.000 S 
ENDBRANCH   9  12
ENDBRANCH   7  10
ENDBRANCH   1   7
BRANCH   4  17
ATOM     17  C   UNL     1       6.034   1.488  -6.804  0.00  0.00    +0.000 C 
BRANCH  17  18
ATOM     18  N   UNL     1       7.364   1.662  -6.281  0.00  0.00    +0.000 N 
ATOM     19  C   UNL     1       8.417   1.983  -7.100  0.00  0.00    +0.000 C 
ATOM     20  O   UNL     1       8.268   2.185  -8.302  0.00  0.00    +0.000 OA
ATOM     21  H   UNL     1       7.549   1.277  -5.360  0.00  0.00    +0.000 HD
BRANCH  19  22
ATOM     22  C   UNL     1       9.726   2.140  -6.452  0.00  0.00    +0.000 A 
ATOM     23  C   UNL     1      10.707   2.912  -7.059  0.00  0.00    +0.000 A 
ATOM     24  S   UNL     1      12.138   3.045  -6.141  0.00  0.00    +0.000 S 
ATOM     25  C   UNL     1      11.517   2.031  -4.924  0.00  0.00    +0.000 A 
ATOM     26  N   UNL     1      12.261   1.714  -3.830  0.00  0.00    +0.000 NA
ATOM     27  C   UNL     1      11.680   0.908  -3.005  0.00  0.00    +0.000 A 
ATOM     28  N   UNL     1      10.420   0.393  -3.173  0.00  0.00    +0.000 N 
ATOM     29  C   UNL     1       9.623   0.705  -4.248  0.00  0.00    +0.000 A 
ATOM     30  O   UNL     1       8.488   0.251  -4.353  0.00  0.00    +0.000 OA
ATOM     31  C   UNL     1      10.232   1.605  -5.209  0.00  0.00    +0.000 A 
ATOM     32  H   UNL     1      10.021  -0.232  -2.489  0.00  0.00    +0.000 HD
ENDBRANCH  19  22
ENDBRANCH  17  18
ENDBRANCH   4  17
TORSDOF 6
