REMARK  Name = 
REMARK  5 active torsions:
REMARK  status: ('A' for Active; 'I' for Inactive)
REMARK    1  A    between atoms: C_2  and  C_4
REMARK    2  A    between atoms: C_7  and  O_8
REMARK    3  A    between atoms: O_8  and  C_9
REMARK    4  A    between atoms: C_9  and  C_10
REMARK    5  A    between atoms: C_14  and  C_15
REMARK                            x       y       z     vdW  Elec       q    Type
REMARK                         _______ _______ _______ _____ _____    ______ ____
ROOT
ATOM      1  C   UNL     1       4.831   3.575  -4.914  0.00  0.00    +0.000 C 
ENDROOT
BRANCH   1   2
ATOM      2  C   UNL     1       5.678   3.980  -6.091  0.00  0.00    +0.000 A 
ATOM      3  C   UNL     1       6.321   3.008  -6.847  0.00  0.00    +0.000 A 
ATOM      4  N   UNL     1       7.052   3.271  -7.949  0.00  0.00    +0.000 NA
ATOM      5  C   UNL     1       7.141   4.572  -8.322  0.00  0.00    +0.000 A 
ATOM      6  C   UNL     1       6.544   5.647  -7.658  0.00  0.00    +0.000 A 
ATOM      7  C   UNL     1       5.792   5.310  -6.521  0.00  0.00    +0.000 A 
BRANCH   6   8
ATOM      8  C   UNL     1       6.699   7.045  -8.116  0.00  0.00    +0.000 A 
ATOM      9  C   UNL     1       5.676   7.991  -7.953  0.00  0.00    +0.000 A 
ATOM     10  C   UNL     1       5.877   9.297  -8.376  0.00  0.00    +0.000 A 
ATOM     11  N   UNL     1       7.012   9.731  -8.958  0.00  0.00    +0.000 NA
ATOM     12  C   UNL     1       7.988   8.818  -9.121  0.00  0.00    +0.000 A 
ATOM     13  C   UNL     1       7.882   7.493  -8.722  0.00  0.00    +0.000 A 
ENDBRANCH   6   8
ENDBRANCH   1   2
BRANCH   1  14
ATOM     14  O   UNL     1       4.830   4.599  -3.915  0.00  0.00    +0.000 OA
BRANCH  14  18
ATOM     15  C   UNL     1       2.522   3.678  -0.632  0.00  0.00    +0.000 A 
ATOM     16  C   UNL     1       3.190   4.903  -0.687  0.00  0.00    +0.000 A 
ATOM     17  C   UNL     1       3.972   5.201  -1.804  0.00  0.00    +0.000 A 
ATOM     18  C   UNL     1       4.056   4.263  -2.824  0.00  0.00    +0.000 A 
ATOM     19  N   UNL     1       3.429   3.068  -2.793  0.00  0.00    +0.000 NA
ATOM     20  C   UNL     1       2.685   2.796  -1.693  0.00  0.00    +0.000 A 
BRANCH  15  22
ATOM     21  N   UNL     1       1.080   4.258   1.234  0.00  0.00    +0.000 N 
ATOM     22  C   UNL     1       1.669   3.266   0.500  0.00  0.00    +0.000 C 
ATOM     23  O   UNL     1       1.463   2.086   0.749  0.00  0.00    +0.000 OA
ATOM     24  H   UNL     1       0.411   3.959   1.933  0.00  0.00    +0.000 HD
ATOM     25  H   UNL     1       1.017   5.213   0.911  0.00  0.00    +0.000 HD
ENDBRANCH  15  22
ENDBRANCH  14  18
ENDBRANCH   1  14
TORSDOF 5
