REMARK  Name = 
REMARK  5 active torsions:
REMARK  status: ('A' for Active; 'I' for Inactive)
REMARK    1  A    between atoms: C_2  and  C_4
REMARK    2  A    between atoms: C_7  and  N_8
REMARK    3  A    between atoms: N_8  and  C_9
REMARK    4  A    between atoms: C_9  and  C_10
REMARK    5  A    between atoms: C_12  and  C_13
REMARK                            x       y       z     vdW  Elec       q    Type
REMARK                         _______ _______ _______ _____ _____    ______ ____
ROOT
ATOM      1  C   UNL     1       4.923   3.931   4.502  0.00  0.00    +0.000 C 
ENDROOT
BRANCH   1   2
ATOM      2  C   UNL     1       5.853   4.958   5.118  0.00  0.00    +0.000 A 
ATOM      3  C   UNL     1       5.901   6.247   4.580  0.00  0.00    +0.000 A 
ATOM      4  C   UNL     1       6.702   7.234   5.169  0.00  0.00    +0.000 A 
ATOM      5  C   UNL     1       7.438   6.849   6.298  0.00  0.00    +0.000 A 
ATOM      6  C   UNL     1       7.334   5.550   6.775  0.00  0.00    +0.000 A 
ATOM      7  N   UNL     1       6.561   4.599   6.213  0.00  0.00    +0.000 NA
BRANCH   4   8
ATOM      8  C   UNL     1       6.739   8.618   4.639  0.00  0.00    +0.000 A 
ATOM      9  C   UNL     1       6.556   8.892   3.268  0.00  0.00    +0.000 A 
ATOM     10  C   UNL     1       6.545  10.202   2.772  0.00  0.00    +0.000 A 
ATOM     11  C   UNL     1       6.732  11.273   3.638  0.00  0.00    +0.000 A 
ATOM     12  C   UNL     1       6.928  11.022   4.988  0.00  0.00    +0.000 A 
ATOM     13  F   UNL     1       7.111  12.049   5.829  0.00  0.00    +0.000 F 
ATOM     14  C   UNL     1       6.929   9.722   5.489  0.00  0.00    +0.000 A 
ENDBRANCH   4   8
ENDBRANCH   1   2
BRANCH   1  15
ATOM     15  N   UNL     1       5.276   3.697   3.099  0.00  0.00    +0.000 N 
ATOM     16  H   UNL     1       6.136   3.157   3.031  0.00  0.00    +0.000 HD
BRANCH  15  20
ATOM     17  C   UNL     1       2.463   2.684   0.120  0.00  0.00    +0.000 A 
ATOM     18  C   UNL     1       2.048   3.379   1.255  0.00  0.00    +0.000 A 
ATOM     19  C   UNL     1       2.965   3.693   2.260  0.00  0.00    +0.000 A 
ATOM     20  C   UNL     1       4.308   3.300   2.178  0.00  0.00    +0.000 A 
ATOM     21  C   UNL     1       4.710   2.613   1.022  0.00  0.00    +0.000 A 
ATOM     22  C   UNL     1       3.797   2.288   0.010  0.00  0.00    +0.000 A 
BRANCH  17  24
ATOM     23  N   UNL     1       0.441   3.181  -1.138  0.00  0.00    +0.000 N 
ATOM     24  C   UNL     1       1.515   2.351  -0.973  0.00  0.00    +0.000 C 
ATOM     25  O   UNL     1       1.701   1.399  -1.717  0.00  0.00    +0.000 OA
ATOM     26  H   UNL     1      -0.145   2.999  -1.947  0.00  0.00    +0.000 HD
ATOM     27  H   UNL     1       0.402   4.103  -0.733  0.00  0.00    +0.000 HD
ENDBRANCH  17  24
ENDBRANCH  15  20
ENDBRANCH   1  15
TORSDOF 5
