REMARK  Name = 
REMARK  10 active torsions:
REMARK  status: ('A' for Active; 'I' for Inactive)
REMARK    1  A    between atoms: C_1  and  C_2
REMARK    2  A    between atoms: C_2  and  C_3
REMARK    3  A    between atoms: C_5  and  N_6
REMARK    4  A    between atoms: C_9  and  C_10
REMARK    5  A    between atoms: C_10  and  C_11
REMARK    6  A    between atoms: C_10  and  C_12
REMARK    7  A    between atoms: C_10  and  C_13
REMARK    8  A    between atoms: C_13  and  N_14
REMARK    9  A    between atoms: N_14  and  C_15
REMARK   10  A    between atoms: C_18  and  C_19
REMARK                            x       y       z     vdW  Elec       q    Type
REMARK                         _______ _______ _______ _____ _____    ______ ____
ROOT
ATOM      1  C   UNL     1      -4.409   0.482   4.704  0.00  0.00    +0.000 C 
ATOM      2  C   UNL     1      -5.235   1.606   5.379  0.00  0.00    +0.000 C 
ATOM      3  C   UNL     1      -4.880  -0.871   5.290  0.00  0.00    +0.000 C 
ENDROOT
BRANCH   1   7
ATOM      4  N   UNL     1      -7.505   0.361   0.811  0.00  0.00    +0.000 N 
ATOM      5  C   UNL     1      -6.177   0.445   1.285  0.00  0.00    +0.000 A 
ATOM      6  C   UNL     1      -5.954   0.335   2.661  0.00  0.00    +0.000 A 
ATOM      7  C   UNL     1      -4.661   0.517   3.188  0.00  0.00    +0.000 A 
ATOM      8  C   UNL     1      -3.646   0.762   2.255  0.00  0.00    +0.000 A 
ATOM      9  C   UNL     1      -3.946   0.796   0.902  0.00  0.00    +0.000 A 
ATOM     10  N   UNL     1      -5.187   0.655   0.407  0.00  0.00    +0.000 NA
ATOM     11  H   UNL     1      -7.792  -0.611   0.882  0.00  0.00    +0.000 HD
BRANCH   4  16
ATOM     12  C   UNL     1      -9.048   2.689  -2.647  0.00  0.00    +0.000 C 
ATOM     13  C   UNL     1      -9.094   2.595  -1.123  0.00  0.00    +0.000 C 
ATOM     14  C   UNL     1      -9.977   3.682  -0.520  0.00  0.00    +0.000 C 
ATOM     15  C   UNL     1      -7.694   2.486  -0.461  0.00  0.00    +0.000 C 
ATOM     16  C   UNL     1      -7.862   0.944  -0.451  0.00  0.00    +0.000 C 
ATOM     17  C   UNL     1      -9.385   1.167  -0.573  0.00  0.00    +0.000 C 
ENDBRANCH   4  16
ENDBRANCH   1   7
BRANCH   1  18
ATOM     18  C   UNL     1      -2.920   0.724   5.129  0.00  0.00    +0.000 C 
BRANCH  18  19
ATOM     19  N   UNL     1      -2.000  -0.264   4.570  0.00  0.00    +0.000 N 
ATOM     20  H   UNL     1      -2.379  -1.184   4.374  0.00  0.00    +0.000 HD
BRANCH  19  21
ATOM     21  C   UNL     1      -0.631  -0.217   4.763  0.00  0.00    +0.000 A 
ATOM     22  C   UNL     1       0.017   0.799   5.473  0.00  0.00    +0.000 A 
ATOM     23  C   UNL     1       1.412   0.837   5.570  0.00  0.00    +0.000 A 
ATOM     24  C   UNL     1       2.189  -0.131   4.937  0.00  0.00    +0.000 A 
ATOM     25  C   UNL     1       1.565  -1.128   4.185  0.00  0.00    +0.000 A 
ATOM     26  C   UNL     1       0.168  -1.161   4.099  0.00  0.00    +0.000 A 
BRANCH  24  27
ATOM     27  C   UNL     1       3.662  -0.028   5.050  0.00  0.00    +0.000 C 
ATOM     28  N   UNL     1       4.392  -1.180   4.899  0.00  0.00    +0.000 N 
ATOM     29  O   UNL     1       4.222   1.029   5.307  0.00  0.00    +0.000 OA
ATOM     30  H   UNL     1       3.976  -2.100   4.886  0.00  0.00    +0.000 HD
ATOM     31  H   UNL     1       5.388  -1.110   5.071  0.00  0.00    +0.000 HD
ENDBRANCH  24  27
ENDBRANCH  19  21
ENDBRANCH  18  19
ENDBRANCH   1  18
TORSDOF 6
