REMARK  Name = 
REMARK  5 active torsions:
REMARK  status: ('A' for Active; 'I' for Inactive)
REMARK    1  A    between atoms: C_1  and  C_2
REMARK    2  A    between atoms: C_2  and  N_3
REMARK    3  A    between atoms: C_2  and  C_13
REMARK    4  A    between atoms: N_3  and  C_4
REMARK    5  A    between atoms: C_7  and  C_8
REMARK                            x       y       z     vdW  Elec       q    Type
REMARK                         _______ _______ _______ _____ _____    ______ ____
ROOT
ATOM      1  N   UNL     1       2.754  -1.330   0.691  0.00  0.00    +0.000 N 
ATOM      2  H   UNL     1       3.755  -1.525   0.635  0.00  0.00    +0.000 HD
ENDROOT
BRANCH   1   3
ATOM      3  C   UNL     1       2.352  -1.481   2.022  0.00  0.00    +0.000 A 
ATOM      4  C   UNL     1       2.193  -2.787   2.502  0.00  0.00    +0.000 A 
ATOM      5  C   UNL     1       1.834  -3.034   3.830  0.00  0.00    +0.000 A 
ATOM      6  C   UNL     1       1.673  -1.971   4.720  0.00  0.00    +0.000 A 
ATOM      7  C   UNL     1       1.874  -0.663   4.268  0.00  0.00    +0.000 A 
ATOM      8  C   UNL     1       2.221  -0.425   2.930  0.00  0.00    +0.000 A 
BRANCH   6   9
ATOM      9  C   UNL     1       1.266  -2.278   6.118  0.00  0.00    +0.000 C 
ATOM     10  N   UNL     1       1.613  -1.380   7.089  0.00  0.00    +0.000 N 
ATOM     11  O   UNL     1       0.675  -3.311   6.402  0.00  0.00    +0.000 OA
ATOM     12  H   UNL     1       2.299  -0.655   6.942  0.00  0.00    +0.000 HD
ATOM     13  H   UNL     1       1.420  -1.663   8.043  0.00  0.00    +0.000 HD
ENDBRANCH   6   9
ENDBRANCH   1   3
BRANCH   1  15
ATOM     14  C   UNL     1       0.908   0.039  -0.229  0.00  0.00    +0.000 C 
ATOM     15  C   UNL     1       2.423  -0.118  -0.070  0.00  0.00    +0.000 C 
BRANCH  15  16
ATOM     16  C   UNL     1       3.065  -0.194  -1.453  0.00  0.00    +0.000 A 
ATOM     17  C   UNL     1       3.494   0.985  -2.086  0.00  0.00    +0.000 A 
ATOM     18  C   UNL     1       4.059   0.940  -3.363  0.00  0.00    +0.000 A 
ATOM     19 CL   UNL     1       4.564   2.401  -4.119  0.00  0.00    +0.000 Cl
ATOM     20  C   UNL     1       4.213  -0.271  -4.030  0.00  0.00    +0.000 A 
ATOM     21  C   UNL     1       3.781  -1.442  -3.415  0.00  0.00    +0.000 A 
ATOM     22 CL   UNL     1       3.966  -2.948  -4.229  0.00  0.00    +0.000 Cl
ATOM     23  C   UNL     1       3.201  -1.409  -2.146  0.00  0.00    +0.000 A 
ENDBRANCH  15  16
ENDBRANCH   1  15
TORSDOF 4
