REMARK  Name = 
REMARK  6 active torsions:
REMARK  status: ('A' for Active; 'I' for Inactive)
REMARK    1  A    between atoms: C_2  and  C_3
REMARK    2  A    between atoms: C_7  and  C_8
REMARK    3  A    between atoms: C_12  and  C_13
REMARK    4  A    between atoms: C_13  and  N_14
REMARK    5  A    between atoms: N_14  and  C_15
REMARK    6  A    between atoms: C_18  and  C_19
REMARK                            x       y       z     vdW  Elec       q    Type
REMARK                         _______ _______ _______ _____ _____    ______ ____
ROOT
ATOM      1  C   UNL     1       2.340   2.438  -0.196  0.00  0.00    +0.000 A 
ATOM      2  C   UNL     1       3.343   2.712  -1.136  0.00  0.00    +0.000 A 
ATOM      3  C   UNL     1       3.956   3.967  -1.199  0.00  0.00    +0.000 A 
ATOM      4  C   UNL     1       3.579   4.979  -0.316  0.00  0.00    +0.000 A 
ATOM      5  C   UNL     1       2.587   4.759   0.645  0.00  0.00    +0.000 A 
ATOM      6  C   UNL     1       1.997   3.478   0.686  0.00  0.00    +0.000 A 
ENDROOT
BRANCH   1  11
ATOM      7  C   UNL     1       0.723  -0.847  -1.247  0.00  0.00    +0.000 A 
ATOM      8  C   UNL     1       0.271  -1.345  -0.026  0.00  0.00    +0.000 A 
ATOM      9  C   UNL     1       0.495  -0.620   1.141  0.00  0.00    +0.000 A 
ATOM     10  C   UNL     1       1.178   0.600   1.083  0.00  0.00    +0.000 A 
ATOM     11  C   UNL     1       1.645   1.129  -0.134  0.00  0.00    +0.000 A 
ATOM     12  C   UNL     1       1.396   0.384  -1.298  0.00  0.00    +0.000 A 
BRANCH   7  14
ATOM     13  N   UNL     1       0.310  -2.173  -3.437  0.00  0.00    +0.000 NA
ATOM     14  C   UNL     1       0.493  -1.581  -2.455  0.00  0.00    +0.000 C 
ENDBRANCH   7  14
ENDBRANCH   1  11
BRANCH   5  15
ATOM     15  C   UNL     1       2.136   5.820   1.639  0.00  0.00    +0.000 C 
ATOM     16  C   UNL     1       0.628   6.070   1.641  0.00  0.00    +0.000 C 
ATOM     17  C   UNL     1       1.558   7.147   1.199  0.00  0.00    +0.000 C 
BRANCH  15  18
ATOM     18  N   UNL     1       2.832   5.735   2.943  0.00  0.00    +0.000 N 
ATOM     19  H   UNL     1       2.812   4.808   3.365  0.00  0.00    +0.000 HD
BRANCH  18  20
ATOM     20  C   UNL     1       4.059   6.380   3.184  0.00  0.00    +0.000 A 
ATOM     21  C   UNL     1       4.649   7.330   2.368  0.00  0.00    +0.000 A 
ATOM     22  N   UNL     1       5.792   7.998   2.651  0.00  0.00    +0.000 NA
ATOM     23  C   UNL     1       6.353   7.711   3.840  0.00  0.00    +0.000 A 
ATOM     24  N   UNL     1       5.869   6.839   4.743  0.00  0.00    +0.000 NA
ATOM     25  C   UNL     1       4.727   6.208   4.389  0.00  0.00    +0.000 A 
BRANCH  23  26
ATOM     26  C   UNL     1       7.568   8.404   4.179  0.00  0.00    +0.000 C 
ATOM     27  N   UNL     1       8.553   8.962   4.456  0.00  0.00    +0.000 NA
ENDBRANCH  23  26
ENDBRANCH  18  20
ENDBRANCH  15  18
ENDBRANCH   5  15
TORSDOF 6
