REMARK  Name = 
REMARK  3 active torsions:
REMARK  status: ('A' for Active; 'I' for Inactive)
REMARK    1  A    between atoms: C_2  and  C_4
REMARK    2  A    between atoms: N_8  and  C_9
REMARK    3  A    between atoms: C_9  and  C_10
REMARK                            x       y       z     vdW  Elec       q    Type
REMARK                         _______ _______ _______ _____ _____    ______ ____
ROOT
ATOM      1  C   UNL     1       2.582  -1.672  -1.175  0.00  0.00    +0.000 A 
ATOM      2  C   UNL     1       3.896  -1.270  -0.964  0.00  0.00    +0.000 A 
ATOM      3  C   UNL     1       4.827  -1.436  -1.991  0.00  0.00    +0.000 A 
ATOM      4  C   UNL     1       4.429  -1.979  -3.215  0.00  0.00    +0.000 A 
ATOM      5  N   UNL     1       5.383  -1.982  -4.254  0.00  0.00    +0.000 N 
ATOM      6  N   UNL     1       3.164  -2.405  -3.414  0.00  0.00    +0.000 NA
ATOM      7  C   UNL     1       2.276  -2.260  -2.394  0.00  0.00    +0.000 A 
ATOM      8  H   UNL     1       6.231  -2.468  -3.967  0.00  0.00    +0.000 HD
ENDROOT
BRANCH   1  10
ATOM      9  N   UNL     1       1.642  -0.454   0.704  0.00  0.00    +0.000 N 
ATOM     10  C   UNL     1       1.516  -1.499  -0.171  0.00  0.00    +0.000 C 
ATOM     11  O   UNL     1       0.534  -2.228  -0.147  0.00  0.00    +0.000 OA
ATOM     12  H   UNL     1       0.848  -0.276   1.306  0.00  0.00    +0.000 HD
ATOM     13  H   UNL     1       2.282   0.312   0.544  0.00  0.00    +0.000 HD
ENDBRANCH   1  10
BRANCH   5  14
ATOM     14  C   UNL     1       5.018  -2.050  -5.690  0.00  0.00    +0.000 C 
ATOM     15  C   UNL     1       5.154  -0.715  -6.413  0.00  0.00    +0.000 C 
ATOM     16  C   UNL     1       3.802  -1.325  -6.240  0.00  0.00    +0.000 C 
BRANCH  14  17
ATOM     17  C   UNL     1       5.449  -3.298  -6.468  0.00  0.00    +0.000 C 
ATOM     18  C   UNL     1       4.763  -4.560  -5.994  0.00  0.00    +0.000 C 
ATOM     19  C   UNL     1       5.687  -5.085  -4.915  0.00  0.00    +0.000 C 
ATOM     20  O   UNL     1       6.996  -4.544  -5.159  0.00  0.00    +0.000 OA
ATOM     21  C   UNL     1       6.916  -3.653  -6.284  0.00  0.00    +0.000 C 
ENDBRANCH  14  17
ENDBRANCH   5  14
TORSDOF 3
