REMARK  Name = 
REMARK  6 active torsions:
REMARK  status: ('A' for Active; 'I' for Inactive)
REMARK    1  A    between atoms: C_1  and  C_2
REMARK    2  A    between atoms: C_2  and  C_3
REMARK    3  A    between atoms: C_2  and  C_14
REMARK    4  A    between atoms: C_3  and  N_4
REMARK    5  A    between atoms: N_4  and  C_5
REMARK    6  A    between atoms: C_8  and  C_9
REMARK                            x       y       z     vdW  Elec       q    Type
REMARK                         _______ _______ _______ _____ _____    ______ ____
ROOT
ATOM      1  N   UNL     1       2.705  -0.810   2.375  0.00  0.00    +0.000 N 
ATOM      2  H   UNL     1       1.701  -0.691   2.517  0.00  0.00    +0.000 HD
ENDROOT
BRANCH   1   3
ATOM      3  C   UNL     1       3.257  -1.703   3.300  0.00  0.00    +0.000 A 
ATOM      4  C   UNL     1       4.496  -2.310   3.159  0.00  0.00    +0.000 A 
ATOM      5  N   UNL     1       5.049  -3.163   4.042  0.00  0.00    +0.000 NA
ATOM      6  C   UNL     1       4.323  -3.378   5.166  0.00  0.00    +0.000 A 
ATOM      7  N   UNL     1       3.148  -2.799   5.467  0.00  0.00    +0.000 NA
ATOM      8  C   UNL     1       2.659  -1.958   4.527  0.00  0.00    +0.000 A 
BRANCH   6   9
ATOM      9  C   UNL     1       4.903  -4.386   6.129  0.00  0.00    +0.000 C 
ATOM     10  N   UNL     1       6.096  -4.950   5.732  0.00  0.00    +0.000 N 
ATOM     11  O   UNL     1       4.378  -4.716   7.186  0.00  0.00    +0.000 OA
ATOM     12  H   UNL     1       6.518  -4.672   4.853  0.00  0.00    +0.000 HD
ATOM     13  H   UNL     1       6.538  -5.636   6.323  0.00  0.00    +0.000 HD
ENDBRANCH   6   9
ENDBRANCH   1   3
BRANCH   1  14
ATOM     14  C   UNL     1       3.008  -1.072   0.968  0.00  0.00    +0.000 C 
BRANCH  14  16
ATOM     15  C   UNL     1       2.738   1.327   0.096  0.00  0.00    +0.000 C 
ATOM     16  C   UNL     1       2.241  -0.083   0.150  0.00  0.00    +0.000 C 
BRANCH  16  17
ATOM     17  C   UNL     1       0.861  -0.398  -0.241  0.00  0.00    +0.000 A 
ATOM     18  C   UNL     1       0.548  -1.600  -0.891  0.00  0.00    +0.000 A 
ATOM     19  C   UNL     1      -0.779  -1.908  -1.206  0.00  0.00    +0.000 A 
ATOM     20  C   UNL     1      -1.799  -1.021  -0.871  0.00  0.00    +0.000 A 
ATOM     21  C   UNL     1      -1.497   0.179  -0.235  0.00  0.00    +0.000 A 
ATOM     22  C   UNL     1      -0.173   0.492   0.070  0.00  0.00    +0.000 A 
ENDBRANCH  16  17
ENDBRANCH  14  16
ENDBRANCH   1  14
TORSDOF 5
