REMARK  Name = 
REMARK  9 active torsions:
REMARK  status: ('A' for Active; 'I' for Inactive)
REMARK    1  A    between atoms: C_1  and  O_2
REMARK    2  A    between atoms: O_2  and  C_3
REMARK    3  A    between atoms: C_10  and  C_11
REMARK    4  A    between atoms: N_13  and  C_14
REMARK    5  A    between atoms: C_14  and  C_15
REMARK    6  A    between atoms: C_18  and  C_19
REMARK    7  A    between atoms: C_19  and  N_20
REMARK    8  A    between atoms: N_20  and  C_21
REMARK    9  A    between atoms: C_21  and  C_22
REMARK                            x       y       z     vdW  Elec       q    Type
REMARK                         _______ _______ _______ _____ _____    ______ ____
ROOT
ATOM      1  C   UNL     1       1.716   3.043   1.396  0.00  0.00    +0.000 A 
ATOM      2  C   UNL     1       0.649   2.191   1.080  0.00  0.00    +0.000 A 
ATOM      3  C   UNL     1      -0.436   2.654   0.329  0.00  0.00    +0.000 A 
ATOM      4  C   UNL     1      -0.481   3.979  -0.128  0.00  0.00    +0.000 A 
ATOM      5  C   UNL     1       0.573   4.838   0.213  0.00  0.00    +0.000 A 
ATOM      6  C   UNL     1       1.661   4.374   0.962  0.00  0.00    +0.000 A 
ENDROOT
BRANCH   1   7
ATOM      7  C   UNL     1       2.919   2.521   2.140  0.00  0.00    +0.000 C 
BRANCH   7  10
ATOM      8  C   UNL     1       5.059   1.400   1.696  0.00  0.00    +0.000 C 
ATOM      9  O   UNL     1       5.308   1.369   2.902  0.00  0.00    +0.000 OA
ATOM     10  N   UNL     1       3.901   1.968   1.236  0.00  0.00    +0.000 N 
ATOM     11  H   UNL     1       3.697   1.982   0.244  0.00  0.00    +0.000 HD
BRANCH   8  19
ATOM     12  C   UNL     1       5.045   1.124  -1.744  0.00  0.00    +0.000 A 
ATOM     13  N   UNL     1       5.274   0.843  -3.043  0.00  0.00    +0.000 NA
ATOM     14  C   UNL     1       6.393   0.185  -3.357  0.00  0.00    +0.000 A 
ATOM     15  N   UNL     1       7.337  -0.232  -2.518  0.00  0.00    +0.000 NA
ATOM     16  C   UNL     1       7.062   0.054  -1.235  0.00  0.00    +0.000 A 
ATOM     17  S   UNL     1       8.164  -0.400  -0.026  0.00  0.00    +0.000 S 
ATOM     18  C   UNL     1       7.171   0.251   1.188  0.00  0.00    +0.000 A 
ATOM     19  C   UNL     1       5.994   0.822   0.715  0.00  0.00    +0.000 A 
ATOM     20  C   UNL     1       5.940   0.714  -0.741  0.00  0.00    +0.000 A 
BRANCH  12  22
ATOM     21  C   UNL     1       3.438   2.636  -2.493  0.00  0.00    +0.000 C 
ATOM     22  O   UNL     1       3.893   1.810  -1.422  0.00  0.00    +0.000 OA
ENDBRANCH  12  22
ENDBRANCH   8  19
ENDBRANCH   7  10
ENDBRANCH   1   7
BRANCH   4  23
ATOM     23  C   UNL     1      -1.615   4.455  -1.012  0.00  0.00    +0.000 C 
BRANCH  23  24
ATOM     24  N   UNL     1      -2.909   4.336  -0.346  0.00  0.00    +0.000 NA
ATOM     25  H   UNL     1      -2.891   4.898   0.505  0.00  0.00    +0.000 HD
BRANCH  24  26
ATOM     26  C   UNL     1      -4.001   4.815  -1.200  0.00  0.00    +0.000 C 
BRANCH  26  27
ATOM     27  C   UNL     1      -5.325   4.698  -0.487  0.00  0.00    +0.000 A 
ATOM     28  C   UNL     1      -5.786   3.451  -0.035  0.00  0.00    +0.000 A 
ATOM     29  C   UNL     1      -6.990   3.348   0.666  0.00  0.00    +0.000 A 
ATOM     30  C   UNL     1      -7.755   4.487   0.914  0.00  0.00    +0.000 A 
ATOM     31  C   UNL     1      -7.322   5.727   0.447  0.00  0.00    +0.000 A 
ATOM     32  C   UNL     1      -6.119   5.823  -0.250  0.00  0.00    +0.000 A 
ATOM     33  F   UNL     1      -5.725   7.028  -0.686  0.00  0.00    +0.000 F 
ENDBRANCH  26  27
ENDBRANCH  24  26
ENDBRANCH  23  24
ENDBRANCH   4  23
TORSDOF 8
