REMARK  Name = 
REMARK  6 active torsions:
REMARK  status: ('A' for Active; 'I' for Inactive)
REMARK    1  A    between atoms: C_1  and  C_2
REMARK    2  A    between atoms: C_4  and  C_5
REMARK    3  A    between atoms: C_10  and  O_11
REMARK    4  A    between atoms: O_11  and  C_12
REMARK    5  A    between atoms: C_12  and  C_13
REMARK    6  A    between atoms: C_16  and  C_17
REMARK                            x       y       z     vdW  Elec       q    Type
REMARK                         _______ _______ _______ _____ _____    ______ ____
ROOT
ATOM      1  C   UNL     1       2.511   0.183   0.005  0.00  0.00    +0.000 C 
ATOM      2  C   UNL     1       1.015   0.114   0.005  0.00  0.00    +0.000 A 
ATOM      3  C   UNL     1       0.292   1.323   0.010  0.00  0.00    +0.000 A 
ATOM      4  C   UNL     1      -1.104   1.329   0.009  0.00  0.00    +0.000 A 
ATOM      5  C   UNL     1      -1.738   0.103   0.003  0.00  0.00    +0.000 A 
ATOM      6  N   UNL     1      -1.083  -1.082  -0.000  0.00  0.00    +0.000 NA
ATOM      7  C   UNL     1       0.273  -1.070   0.002  0.00  0.00    +0.000 A 
ENDROOT
BRANCH   4   8
ATOM      8  C   UNL     1      -1.827   2.619   0.014  0.00  0.00    +0.000 C 
ATOM      9  N   UNL     1      -3.191   2.625   0.019  0.00  0.00    +0.000 N 
ATOM     10  O   UNL     1      -1.213   3.685   0.014  0.00  0.00    +0.000 OA
ATOM     11  H   UNL     1      -3.794   1.817   0.018  0.00  0.00    +0.000 HD
ATOM     12  H   UNL     1      -3.634   3.536   0.022  0.00  0.00    +0.000 HD
ENDBRANCH   4   8
BRANCH   7  13
ATOM     13  O   UNL     1       0.912  -2.301  -0.000  0.00  0.00    +0.000 OA
BRANCH  13  14
ATOM     14  C   UNL     1      -0.048  -3.379   0.003  0.00  0.00    +0.000 C 
BRANCH  14  15
ATOM     15  C   UNL     1       0.552  -4.765   0.005  0.00  0.00    +0.000 A 
ATOM     16  C   UNL     1       1.917  -5.021   0.010  0.00  0.00    +0.000 A 
ATOM     17  C   UNL     1       2.377  -6.340   0.019  0.00  0.00    +0.000 A 
ATOM     18  C   UNL     1       1.455  -7.392   0.024  0.00  0.00    +0.000 A 
ATOM     19  N   UNL     1       0.114  -7.160   0.015  0.00  0.00    +0.000 NA
ATOM     20  C   UNL     1      -0.299  -5.869   0.006  0.00  0.00    +0.000 A 
BRANCH  18  21
ATOM     21  C   UNL     1       1.952  -8.837   0.041  0.00  0.00    +0.000 C 
ATOM     22  F   UNL     1       3.316  -8.934   0.059  0.00  0.00    +0.000 F 
ATOM     23  F   UNL     1       1.527  -9.537   1.132  0.00  0.00    +0.000 F 
ATOM     24  F   UNL     1       1.555  -9.554  -1.048  0.00  0.00    +0.000 F 
ENDBRANCH  18  21
ENDBRANCH  14  15
ENDBRANCH  13  14
ENDBRANCH   7  13
TORSDOF 5
