REMARK  Name = 
REMARK  6 active torsions:
REMARK  status: ('A' for Active; 'I' for Inactive)
REMARK    1  A    between atoms: C_2  and  C_3
REMARK    2  A    between atoms: C_7  and  N_8
REMARK    3  A    between atoms: N_8  and  C_9
REMARK    4  A    between atoms: C_9  and  C_10
REMARK    5  A    between atoms: C_10  and  C_13
REMARK    6  A    between atoms: C_17  and  C_18
REMARK                            x       y       z     vdW  Elec       q    Type
REMARK                         _______ _______ _______ _____ _____    ______ ____
ROOT
ATOM      1  C   UNL     1      -2.521   4.988   0.097  0.00  0.00    +0.000 C 
ATOM      2  F   UNL     1      -3.331   4.968  -1.000  0.00  0.00    +0.000 F 
ATOM      3  F   UNL     1      -3.358   4.825   1.168  0.00  0.00    +0.000 F 
ENDROOT
BRANCH   1   4
ATOM      4  C   UNL     1      -1.708   6.266   0.191  0.00  0.00    +0.000 A 
ATOM      5  C   UNL     1      -1.408   6.828   1.441  0.00  0.00    +0.000 A 
ATOM      6  C   UNL     1      -0.583   7.949   1.536  0.00  0.00    +0.000 A 
ATOM      7  C   UNL     1      -0.030   8.514   0.385  0.00  0.00    +0.000 A 
ATOM      8  C   UNL     1      -0.316   7.968  -0.871  0.00  0.00    +0.000 A 
ATOM      9  C   UNL     1      -1.167   6.857  -0.965  0.00  0.00    +0.000 A 
BRANCH   8  10
ATOM     10  C   UNL     1       0.339   8.461  -2.114  0.00  0.00    +0.000 C 
ATOM     11  N   UNL     1       0.839   9.731  -2.115  0.00  0.00    +0.000 N 
ATOM     12  O   UNL     1       0.434   7.747  -3.104  0.00  0.00    +0.000 OA
ATOM     13  H   UNL     1       0.635  10.417  -1.404  0.00  0.00    +0.000 HD
ATOM     14  H   UNL     1       1.248  10.057  -2.983  0.00  0.00    +0.000 HD
ENDBRANCH   8  10
ENDBRANCH   1   4
BRANCH   1  15
ATOM     15  C   UNL     1      -1.563   3.766   0.048  0.00  0.00    +0.000 C 
BRANCH  15  16
ATOM     16  N   UNL     1      -2.256   2.464   0.003  0.00  0.00    +0.000 N 
ATOM     17  H   UNL     1      -3.148   2.448   0.498  0.00  0.00    +0.000 HD
BRANCH  16  22
ATOM     18  C   UNL     1       0.510  -0.031  -0.155  0.00  0.00    +0.000 A 
ATOM     19  C   UNL     1      -0.254  -1.183  -0.056  0.00  0.00    +0.000 A 
ATOM     20  N   UNL     1      -1.597  -1.175   0.087  0.00  0.00    +0.000 NA
ATOM     21  C   UNL     1      -2.196   0.043   0.123  0.00  0.00    +0.000 A 
ATOM     22  C   UNL     1      -1.534   1.275   0.057  0.00  0.00    +0.000 A 
ATOM     23  C   UNL     1      -0.146   1.204  -0.105  0.00  0.00    +0.000 A 
BRANCH  18  25
ATOM     24  N   UNL     1       3.076  -0.158  -0.439  0.00  0.00    +0.000 NA
ATOM     25  C   UNL     1       1.924  -0.107  -0.315  0.00  0.00    +0.000 C 
ENDBRANCH  18  25
ENDBRANCH  16  22
ENDBRANCH  15  16
ENDBRANCH   1  15
TORSDOF 6
