REMARK  Name = 
REMARK  9 active torsions:
REMARK  status: ('A' for Active; 'I' for Inactive)
REMARK    1  A    between atoms: C_1  and  C_2
REMARK    2  A    between atoms: C_2  and  C_3
REMARK    3  A    between atoms: C_5  and  N_6
REMARK    4  A    between atoms: N_6  and  C_7
REMARK    5  A    between atoms: C_7  and  C_8
REMARK    6  A    between atoms: C_8  and  C_9
REMARK    7  A    between atoms: C_8  and  C_10
REMARK    8  A    between atoms: N_15  and  C_16
REMARK    9  A    between atoms: C_23  and  C_24
REMARK                            x       y       z     vdW  Elec       q    Type
REMARK                         _______ _______ _______ _____ _____    ______ ____
ROOT
ATOM      1  N   UNL     1       4.439   2.098   6.898  0.00  0.00    +0.000 N 
ATOM      2  H   UNL     1       4.564   2.598   6.027  0.00  0.00    +0.000 HD
ENDROOT
BRANCH   1   5
ATOM      3  C   UNL     1       2.355   2.942   9.855  0.00  0.00    +0.000 A 
ATOM      4  C   UNL     1       3.177   2.211   8.976  0.00  0.00    +0.000 A 
ATOM      5  C   UNL     1       3.605   2.756   7.771  0.00  0.00    +0.000 A 
ATOM      6  N   UNL     1       3.250   4.000   7.411  0.00  0.00    +0.000 NA
ATOM      7  C   UNL     1       2.471   4.714   8.272  0.00  0.00    +0.000 A 
ATOM      8  C   UNL     1       1.983   4.241   9.486  0.00  0.00    +0.000 A 
BRANCH   8   9
ATOM      9  C   UNL     1       1.149   5.124  10.344  0.00  0.00    +0.000 C 
ATOM     10  N   UNL     1       0.367   6.063   9.715  0.00  0.00    +0.000 N 
ATOM     11  O   UNL     1       1.115   5.035  11.562  0.00  0.00    +0.000 OA
ATOM     12  H   UNL     1       0.185   6.073   8.724  0.00  0.00    +0.000 HD
ATOM     13  H   UNL     1      -0.259   6.589  10.313  0.00  0.00    +0.000 HD
ENDBRANCH   8   9
BRANCH   3  15
ATOM     14  C   UNL     1       3.012   2.552  12.243  0.00  0.00    +0.000 C 
ATOM     15  C   UNL     1       1.973   2.288  11.162  0.00  0.00    +0.000 C 
ENDBRANCH   3  15
ENDBRANCH   1   5
BRANCH   1  16
ATOM     16  C   UNL     1       4.779   0.692   7.019  0.00  0.00    +0.000 C 
BRANCH  16  17
ATOM     17  C   UNL     1       5.697   0.187   5.882  0.00  0.00    +0.000 C 
ATOM     18  C   UNL     1       5.039   0.333   4.504  0.00  0.00    +0.000 C 
BRANCH  17  19
ATOM     19  C   UNL     1       6.135  -1.243   6.193  0.00  0.00    +0.000 A 
ATOM     20  C   UNL     1       5.461  -2.374   5.732  0.00  0.00    +0.000 A 
ATOM     21  C   UNL     1       5.893  -3.624   6.158  0.00  0.00    +0.000 A 
ATOM     22  N   UNL     1       6.918  -3.829   7.016  0.00  0.00    +0.000 NA
ATOM     23  C   UNL     1       7.583  -2.743   7.448  0.00  0.00    +0.000 A 
ATOM     24  N   UNL     1       8.642  -2.870   8.369  0.00  0.00    +0.000 N 
ATOM     25  C   UNL     1       7.224  -1.452   7.052  0.00  0.00    +0.000 A 
ATOM     26  H   UNL     1       9.475  -2.439   7.976  0.00  0.00    +0.000 HD
BRANCH  24  27
ATOM     27  C   UNL     1       8.906  -4.060   9.133  0.00  0.00    +0.000 C 
ATOM     28  C   UNL     1      10.266  -4.003   9.845  0.00  0.00    +0.000 C 
ATOM     29  O   UNL     1      10.671  -5.266   9.266  0.00  0.00    +0.000 OA
ATOM     30  C   UNL     1       9.512  -5.253   8.389  0.00  0.00    +0.000 C 
ENDBRANCH  24  27
ENDBRANCH  17  19
ENDBRANCH  16  17
ENDBRANCH   1  16
TORSDOF 7
