REMARK  Name = 
REMARK  6 active torsions:
REMARK  status: ('A' for Active; 'I' for Inactive)
REMARK    1  A    between atoms: C_2  and  C_3
REMARK    2  A    between atoms: N_7  and  C_8
REMARK    3  A    between atoms: C_8  and  C_9
REMARK    4  A    between atoms: C_9  and  C_12
REMARK    5  A    between atoms: C_16  and  O_17
REMARK    6  A    between atoms: O_17  and  C_18
REMARK                            x       y       z     vdW  Elec       q    Type
REMARK                         _______ _______ _______ _____ _____    ______ ____
ROOT
ATOM      1  C   UNL     1      -5.867   1.115  -0.347  0.00  0.00    +0.000 C 
ATOM      2  F   UNL     1      -4.781   1.198  -1.170  0.00  0.00    +0.000 F 
ATOM      3  F   UNL     1      -6.615   0.083  -0.838  0.00  0.00    +0.000 F 
ENDROOT
BRANCH   1   4
ATOM      4  C   UNL     1      -6.650   2.415  -0.295  0.00  0.00    +0.000 A 
ATOM      5  C   UNL     1      -8.037   2.405  -0.091  0.00  0.00    +0.000 A 
ATOM      6  C   UNL     1      -8.742   3.604   0.030  0.00  0.00    +0.000 A 
ATOM      7  C   UNL     1      -8.074   4.830  -0.055  0.00  0.00    +0.000 A 
ATOM      8  C   UNL     1      -6.698   4.853  -0.271  0.00  0.00    +0.000 A 
ATOM      9  C   UNL     1      -5.992   3.651  -0.385  0.00  0.00    +0.000 A 
BRANCH   8  10
ATOM     10  O   UNL     1      -5.925   5.983  -0.339  0.00  0.00    +0.000 OA
BRANCH  10  11
ATOM     11  C   UNL     1      -6.541   7.249  -0.664  0.00  0.00    +0.000 C 
ATOM     12  C   UNL     1      -7.033   7.473  -2.101  0.00  0.00    +0.000 C 
ATOM     13  O   UNL     1      -6.266   8.696  -2.223  0.00  0.00    +0.000 OA
ATOM     14  C   UNL     1      -5.553   8.378  -1.004  0.00  0.00    +0.000 C 
ENDBRANCH  10  11
ENDBRANCH   8  10
ENDBRANCH   1   4
BRANCH   1  15
ATOM     15  C   UNL     1      -5.385   0.746   1.078  0.00  0.00    +0.000 C 
BRANCH  15  20
ATOM     16  C   UNL     1      -3.250  -2.290   4.627  0.00  0.00    +0.000 A 
ATOM     17  C   UNL     1      -3.838  -1.036   4.724  0.00  0.00    +0.000 A 
ATOM     18  C   UNL     1      -4.333  -0.426   3.571  0.00  0.00    +0.000 A 
ATOM     19  C   UNL     1      -4.229  -1.073   2.343  0.00  0.00    +0.000 A 
ATOM     20  N   UNL     1      -4.673  -0.525   1.171  0.00  0.00    +0.000 N 
ATOM     21  N   UNL     1      -3.664  -2.291   2.243  0.00  0.00    +0.000 NA
ATOM     22  C   UNL     1      -3.189  -2.875   3.375  0.00  0.00    +0.000 A 
ATOM     23  H   UNL     1      -4.543  -1.100   0.344  0.00  0.00    +0.000 HD
BRANCH  16  25
ATOM     24  N   UNL     1      -2.299  -3.486   6.715  0.00  0.00    +0.000 NA
ATOM     25  C   UNL     1      -2.726  -2.956   5.774  0.00  0.00    +0.000 C 
ENDBRANCH  16  25
ENDBRANCH  15  20
ENDBRANCH   1  15
TORSDOF 6
