REMARK  Name = 
REMARK  7 active torsions:
REMARK  status: ('A' for Active; 'I' for Inactive)
REMARK    1  A    between atoms: C_1  and  C_2
REMARK    2  A    between atoms: C_10  and  C_11
REMARK    3  A    between atoms: C_11  and  C_12
REMARK    4  A    between atoms: C_11  and  C_13
REMARK    5  A    between atoms: C_11  and  C_14
REMARK    6  A    between atoms: C_14  and  N_15
REMARK    7  A    between atoms: C_19  and  C_20
REMARK                            x       y       z     vdW  Elec       q    Type
REMARK                         _______ _______ _______ _____ _____    ______ ____
ROOT
ATOM      1  C   UNL     1       3.819  -1.224  -4.469  0.00  0.00    +0.000 C 
ATOM      2  C   UNL     1       3.378  -2.694  -4.313  0.00  0.00    +0.000 C 
ATOM      3  C   UNL     1       2.712  -0.475  -5.257  0.00  0.00    +0.000 C 
ENDROOT
BRANCH   1  13
ATOM      4  C   UNL     1      -1.213  -1.315   2.243  0.00  0.00    +0.000 C 
ATOM      5  C   UNL     1      -0.540  -0.360   1.262  0.00  0.00    +0.000 C 
ATOM      6  C   UNL     1       0.829   0.083   1.805  0.00  0.00    +0.000 C 
ATOM      7  C   UNL     1       1.598   0.925   0.789  0.00  0.00    +0.000 C 
ATOM      8  N   UNL     1       1.651   0.185  -0.458  0.00  0.00    +0.000 N 
ATOM      9  C   UNL     1       2.816   0.120  -1.175  0.00  0.00    +0.000 A 
ATOM     10  N   UNL     1       3.927   0.656  -0.652  0.00  0.00    +0.000 NA
ATOM     11  C   UNL     1       5.048   0.578  -1.377  0.00  0.00    +0.000 A 
ATOM     12  C   UNL     1       5.110  -0.006  -2.613  0.00  0.00    +0.000 A 
ATOM     13  C   UNL     1       3.941  -0.560  -3.096  0.00  0.00    +0.000 A 
ATOM     14  N   UNL     1       2.806  -0.498  -2.367  0.00  0.00    +0.000 NA
ATOM     15  C   UNL     1       0.385  -0.140  -1.087  0.00  0.00    +0.000 C 
ATOM     16  C   UNL     1      -0.406  -1.019  -0.122  0.00  0.00    +0.000 C 
ENDBRANCH   1  13
BRANCH   1  17
ATOM     17  C   UNL     1       5.122  -1.161  -5.315  0.00  0.00    +0.000 C 
BRANCH  17  18
ATOM     18  N   UNL     1       6.251  -1.870  -4.683  0.00  0.00    +0.000 N 
ATOM     19  C   UNL     1       7.443  -1.804  -5.413  0.00  0.00    +0.000 A 
ATOM     20  C   UNL     1       8.589  -2.405  -4.898  0.00  0.00    +0.000 A 
ATOM     21  C   UNL     1       9.768  -2.369  -5.642  0.00  0.00    +0.000 A 
ATOM     22  C   UNL     1       9.785  -1.734  -6.881  0.00  0.00    +0.000 A 
ATOM     23  C   UNL     1       8.608  -1.139  -7.301  0.00  0.00    +0.000 A 
ATOM     24  N   UNL     1       7.457  -1.151  -6.591  0.00  0.00    +0.000 NA
ATOM     25  H   UNL     1       6.049  -2.845  -4.479  0.00  0.00    +0.000 HD
BRANCH  22  26
ATOM     26  C   UNL     1      11.022  -1.733  -7.692  0.00  0.00    +0.000 C 
ATOM     27  N   UNL     1      11.020  -1.122  -8.913  0.00  0.00    +0.000 N 
ATOM     28  O   UNL     1      12.044  -2.282  -7.283  0.00  0.00    +0.000 OA
ATOM     29  H   UNL     1      10.246  -0.648  -9.345  0.00  0.00    +0.000 HD
ATOM     30  H   UNL     1      11.887  -1.160  -9.428  0.00  0.00    +0.000 HD
ENDBRANCH  22  26
ENDBRANCH  17  18
ENDBRANCH   1  17
TORSDOF 4
