REMARK  Name = 
REMARK  5 active torsions:
REMARK  status: ('A' for Active; 'I' for Inactive)
REMARK    1  A    between atoms: C_1  and  C_2
REMARK    2  A    between atoms: C_4  and  O_5
REMARK    3  A    between atoms: O_5  and  C_6
REMARK    4  A    between atoms: C_6  and  C_7
REMARK    5  A    between atoms: C_17  and  C_18
REMARK                            x       y       z     vdW  Elec       q    Type
REMARK                         _______ _______ _______ _____ _____    ______ ____
ROOT
ATOM      1  C   UNL     1       2.527  -0.363  -0.755  0.00  0.00    +0.000 C 
ATOM      2  C   UNL     1       1.040  -0.295  -0.538  0.00  0.00    +0.000 A 
ATOM      3  C   UNL     1       0.399   0.942  -0.733  0.00  0.00    +0.000 A 
ATOM      4  C   UNL     1      -0.963   1.088  -0.478  0.00  0.00    +0.000 A 
ATOM      5  C   UNL     1      -1.722  -0.014  -0.097  0.00  0.00    +0.000 A 
ATOM      6  C   UNL     1      -1.108  -1.256   0.082  0.00  0.00    +0.000 A 
ATOM      7  C   UNL     1       0.274  -1.407  -0.130  0.00  0.00    +0.000 A 
ENDROOT
BRANCH   7   8
ATOM      8  C   UNL     1       0.913  -2.738   0.125  0.00  0.00    +0.000 C 
ATOM      9  N   UNL     1       0.155  -3.852  -0.102  0.00  0.00    +0.000 N 
ATOM     10  O   UNL     1       2.067  -2.850   0.509  0.00  0.00    +0.000 OA
ATOM     11  H   UNL     1      -0.722  -3.834  -0.604  0.00  0.00    +0.000 HD
ATOM     12  H   UNL     1       0.629  -4.739  -0.007  0.00  0.00    +0.000 HD
ENDBRANCH   7   8
BRANCH   4  13
ATOM     13  O   UNL     1      -1.618   2.279  -0.626  0.00  0.00    +0.000 OA
BRANCH  13  14
ATOM     14  C   UNL     1      -0.962   3.390   0.002  0.00  0.00    +0.000 C 
BRANCH  14  15
ATOM     15  C   UNL     1      -0.530   4.453  -0.988  0.00  0.00    +0.000 A 
ATOM     16  C   UNL     1      -1.188   4.625  -2.218  0.00  0.00    +0.000 A 
ATOM     17  C   UNL     1      -0.893   5.720  -3.037  0.00  0.00    +0.000 A 
ATOM     18  C   UNL     1       0.063   6.644  -2.632  0.00  0.00    +0.000 A 
ATOM     19  F   UNL     1       0.301   7.721  -3.394  0.00  0.00    +0.000 F 
ATOM     20  C   UNL     1       0.749   6.464  -1.440  0.00  0.00    +0.000 A 
ATOM     21  F   UNL     1       1.672   7.355  -1.050  0.00  0.00    +0.000 F 
ATOM     22  C   UNL     1       0.462   5.376  -0.618  0.00  0.00    +0.000 A 
ENDBRANCH  14  15
ENDBRANCH  13  14
ENDBRANCH   4  13
TORSDOF 4
