REMARK  Name = 
REMARK  7 active torsions:
REMARK  status: ('A' for Active; 'I' for Inactive)
REMARK    1  A    between atoms: C_1  and  O_2
REMARK    2  A    between atoms: O_2  and  C_3
REMARK    3  A    between atoms: C_5  and  C_6
REMARK    4  A    between atoms: C_11  and  O_12
REMARK    5  A    between atoms: O_12  and  C_13
REMARK    6  A    between atoms: C_13  and  C_14
REMARK    7  A    between atoms: C_18  and  C_19
REMARK                            x       y       z     vdW  Elec       q    Type
REMARK                         _______ _______ _______ _____ _____    ______ ____
ROOT
ATOM      1  O   UNL     1       4.378  -1.638   0.804  0.00  0.00    +0.000 OA
ENDROOT
BRANCH   1   7
ATOM      2  C   UNL     1       3.095  -0.510  -1.033  0.00  0.00    +0.000 A 
ATOM      3  C   UNL     1       2.995  -0.340  -2.422  0.00  0.00    +0.000 A 
ATOM      4  C   UNL     1       3.872  -0.980  -3.309  0.00  0.00    +0.000 A 
ATOM      5  C   UNL     1       4.878  -1.797  -2.790  0.00  0.00    +0.000 A 
ATOM      6  C   UNL     1       4.993  -1.966  -1.404  0.00  0.00    +0.000 A 
ATOM      7  C   UNL     1       4.111  -1.335  -0.513  0.00  0.00    +0.000 A 
BRANCH   4   8
ATOM      8  C   UNL     1       3.664  -0.735  -4.766  0.00  0.00    +0.000 C 
ATOM      9  N   UNL     1       4.518  -1.311  -5.662  0.00  0.00    +0.000 N 
ATOM     10  O   UNL     1       2.745  -0.030  -5.170  0.00  0.00    +0.000 OA
ATOM     11  H   UNL     1       5.312  -1.880  -5.428  0.00  0.00    +0.000 HD
ATOM     12  H   UNL     1       4.349  -1.112  -6.641  0.00  0.00    +0.000 HD
ENDBRANCH   4   8
BRANCH   2  14
ATOM     13  C   UNL     1       0.996   0.568  -0.661  0.00  0.00    +0.000 C 
ATOM     14  O   UNL     1       2.263   0.148  -0.167  0.00  0.00    +0.000 OA
ENDBRANCH   2  14
ENDBRANCH   1   7
BRANCH   1  15
ATOM     15  C   UNL     1       3.504  -1.088   1.790  0.00  0.00    +0.000 C 
BRANCH  15  16
ATOM     16  C   UNL     1       3.831  -1.560   3.192  0.00  0.00    +0.000 A 
ATOM     17  C   UNL     1       3.622  -0.684   4.266  0.00  0.00    +0.000 A 
ATOM     18  C   UNL     1       3.797  -1.117   5.575  0.00  0.00    +0.000 A 
ATOM     19  C   UNL     1       4.165  -2.439   5.828  0.00  0.00    +0.000 A 
ATOM     20  C   UNL     1       4.357  -3.361   4.781  0.00  0.00    +0.000 A 
ATOM     21  C   UNL     1       4.194  -2.890   3.462  0.00  0.00    +0.000 A 
BRANCH  20  22
ATOM     22  C   UNL     1       4.665  -4.779   5.061  0.00  0.00    +0.000 A 
ATOM     23  C   UNL     1       5.511  -5.543   4.245  0.00  0.00    +0.000 A 
ATOM     24  C   UNL     1       5.750  -6.889   4.530  0.00  0.00    +0.000 A 
ATOM     25  C   UNL     1       5.142  -7.445   5.640  0.00  0.00    +0.000 A 
ATOM     26  N   UNL     1       4.325  -6.760   6.463  0.00  0.00    +0.000 NA
ATOM     27  C   UNL     1       4.106  -5.457   6.150  0.00  0.00    +0.000 A 
ENDBRANCH  20  22
ENDBRANCH  15  16
ENDBRANCH   1  15
TORSDOF 6
