REMARK  Name = 
REMARK  4 active torsions:
REMARK  status: ('A' for Active; 'I' for Inactive)
REMARK    1  A    between atoms: C_2  and  C_4
REMARK    2  A    between atoms: C_7  and  O_8
REMARK    3  A    between atoms: O_8  and  C_9
REMARK    4  A    between atoms: C_9  and  C_10
REMARK                            x       y       z     vdW  Elec       q    Type
REMARK                         _______ _______ _______ _____ _____    ______ ____
ROOT
ATOM      1  C   UNL     1       2.952  -1.731   0.593  0.00  0.00    +0.000 A 
ATOM      2  C   UNL     1       3.978  -1.102  -0.107  0.00  0.00    +0.000 A 
ATOM      3  C   UNL     1       4.861  -1.874  -0.861  0.00  0.00    +0.000 A 
ATOM      4  C   UNL     1       4.636  -3.256  -0.954  0.00  0.00    +0.000 A 
ATOM      5  N   UNL     1       3.645  -3.887  -0.315  0.00  0.00    +0.000 NA
ATOM      6  C   UNL     1       2.838  -3.115   0.474  0.00  0.00    +0.000 A 
ENDROOT
BRANCH   1   8
ATOM      7  N   UNL     1       1.831   0.323   1.179  0.00  0.00    +0.000 N 
ATOM      8  C   UNL     1       2.062  -0.982   1.493  0.00  0.00    +0.000 C 
ATOM      9  O   UNL     1       1.549  -1.518   2.474  0.00  0.00    +0.000 OA
ATOM     10  H   UNL     1       1.179   0.835   1.774  0.00  0.00    +0.000 HD
ATOM     11  H   UNL     1       2.068   0.725   0.286  0.00  0.00    +0.000 HD
ENDBRANCH   1   8
BRANCH   4  12
ATOM     12  O   UNL     1       5.585  -3.989  -1.638  0.00  0.00    +0.000 OA
BRANCH  12  13
ATOM     13  C   UNL     1       5.224  -5.251  -2.271  0.00  0.00    +0.000 C 
ATOM     14  C   UNL     1       5.264  -5.011  -3.785  0.00  0.00    +0.000 C 
ATOM     15  C   UNL     1       4.002  -5.480  -3.153  0.00  0.00    +0.000 C 
BRANCH  13  16
ATOM     16  C   UNL     1       5.836  -6.522  -1.682  0.00  0.00    +0.000 A 
ATOM     17  C   UNL     1       5.533  -6.916  -0.375  0.00  0.00    +0.000 A 
ATOM     18  C   UNL     1       6.007  -8.132   0.116  0.00  0.00    +0.000 A 
ATOM     19  C   UNL     1       6.775  -8.942  -0.706  0.00  0.00    +0.000 A 
ATOM     20  C   UNL     1       7.055  -8.491  -1.982  0.00  0.00    +0.000 A 
ATOM     21  N   UNL     1       6.608  -7.318  -2.478  0.00  0.00    +0.000 NA
ENDBRANCH  13  16
ENDBRANCH  12  13
ENDBRANCH   4  12
TORSDOF 4
