REMARK  Name = 
REMARK  4 active torsions:
REMARK  status: ('A' for Active; 'I' for Inactive)
REMARK    1  A    between atoms: N_1  and  C_2
REMARK    2  A    between atoms: C_2  and  C_3
REMARK    3  A    between atoms: C_7  and  C_8
REMARK    4  A    between atoms: C_8  and  N_9
REMARK                            x       y       z     vdW  Elec       q    Type
REMARK                         _______ _______ _______ _____ _____    ______ ____
ROOT
ATOM      1  C   UNL     1       4.337   0.728  -4.699  0.00  0.00    +0.000 C 
ENDROOT
BRANCH   1   2
ATOM      2  N   UNL     1       4.524   2.121  -4.321  0.00  0.00    +0.000 N 
ATOM      3  C   UNL     1       5.642   2.627  -3.716  0.00  0.00    +0.000 A 
ATOM      4  N   UNL     1       5.582   3.934  -3.604  0.00  0.00    +0.000 NA
ATOM      5  C   UNL     1       4.374   4.290  -4.151  0.00  0.00    +0.000 A 
ATOM      6  C   UNL     1       3.808   5.565  -4.302  0.00  0.00    +0.000 A 
ATOM      7  C   UNL     1       2.547   5.660  -4.897  0.00  0.00    +0.000 A 
ATOM      8 CL   UNL     1       1.833   7.214  -5.115  0.00  0.00    +0.000 Cl
ATOM      9  C   UNL     1       1.853   4.525  -5.320  0.00  0.00    +0.000 A 
ATOM     10  C   UNL     1       2.406   3.247  -5.179  0.00  0.00    +0.000 A 
ATOM     11  C   UNL     1       3.677   3.169  -4.598  0.00  0.00    +0.000 A 
ENDBRANCH   1   2
BRANCH   1  16
ATOM     12  C   UNL     1       2.499  -0.583  -1.596  0.00  0.00    +0.000 A 
ATOM     13  C   UNL     1       2.918  -1.905  -1.679  0.00  0.00    +0.000 A 
ATOM     14  N   UNL     1       3.729  -2.382  -2.648  0.00  0.00    +0.000 NA
ATOM     15  C   UNL     1       4.157  -1.497  -3.574  0.00  0.00    +0.000 A 
ATOM     16  C   UNL     1       3.825  -0.144  -3.586  0.00  0.00    +0.000 A 
ATOM     17  C   UNL     1       2.960   0.300  -2.580  0.00  0.00    +0.000 A 
BRANCH  12  18
ATOM     18  C   UNL     1       1.612  -0.113  -0.479  0.00  0.00    +0.000 C 
BRANCH  18  19
ATOM     19  N   UNL     1       0.350   0.417  -0.980  0.00  0.00    +0.000 NA
ATOM     20  H   UNL     1      -0.225   0.710  -0.192  0.00  0.00    +0.000 HD
ATOM     21  H   UNL     1      -0.164  -0.327  -1.449  0.00  0.00    +0.000 HD
ENDBRANCH  18  19
ENDBRANCH  12  18
ENDBRANCH   1  16
TORSDOF 4
