REMARK  Name = 
REMARK  11 active torsions:
REMARK  status: ('A' for Active; 'I' for Inactive)
REMARK    1  A    between atoms: C_1  and  O_2
REMARK    2  A    between atoms: O_2  and  C_3
REMARK    3  A    between atoms: C_3  and  C_4
REMARK    4  A    between atoms: C_4  and  N_5
REMARK    5  A    between atoms: C_4  and  C_18
REMARK    6  A    between atoms: C_6  and  C_8
REMARK    7  A    between atoms: C_21  and  C_22
REMARK    8  A    between atoms: C_22  and  N_23
REMARK    9  A    between atoms: N_23  and  C_24
REMARK   10  A    between atoms: C_24  and  C_25
REMARK   11  A    between atoms: C_24  and  C_26
REMARK                            x       y       z     vdW  Elec       q    Type
REMARK                         _______ _______ _______ _____ _____    ______ ____
ROOT
ATOM      1  C   UNL     1       0.999 -10.755  -7.796  0.00  0.00    +0.000 C 
ENDROOT
BRANCH   1   2
ATOM      2  C   UNL     1       2.125 -10.076  -7.033  0.00  0.00    +0.000 A 
ATOM      3  C   UNL     1       2.852  -9.033  -7.619  0.00  0.00    +0.000 A 
ATOM      4  C   UNL     1       3.929  -8.455  -6.944  0.00  0.00    +0.000 A 
ATOM      5  C   UNL     1       4.288  -8.903  -5.667  0.00  0.00    +0.000 A 
ATOM      6  C   UNL     1       3.537  -9.915  -5.062  0.00  0.00    +0.000 A 
ATOM      7  C   UNL     1       2.467 -10.492  -5.735  0.00  0.00    +0.000 A 
BRANCH   5   8
ATOM      8  C   UNL     1       5.515  -8.380  -4.967  0.00  0.00    +0.000 C 
BRANCH   8   9
ATOM      9  N   UNL     1       5.439  -6.944  -4.689  0.00  0.00    +0.000 NA
ATOM     10  H   UNL     1       4.592  -6.772  -4.150  0.00  0.00    +0.000 HD
BRANCH   9  11
ATOM     11  C   UNL     1       6.614  -6.464  -3.925  0.00  0.00    +0.000 C 
ATOM     12  C   UNL     1       7.902  -6.575  -4.755  0.00  0.00    +0.000 C 
BRANCH  11  13
ATOM     13  C   UNL     1       6.752  -7.119  -2.555  0.00  0.00    +0.000 A 
ATOM     14  C   UNL     1       6.050  -6.616  -1.462  0.00  0.00    +0.000 A 
ATOM     15  N   UNL     1       6.041  -7.218  -0.248  0.00  0.00    +0.000 NA
ATOM     16  C   UNL     1       6.756  -8.362  -0.166  0.00  0.00    +0.000 A 
ATOM     17  C   UNL     1       7.449  -8.881  -1.243  0.00  0.00    +0.000 A 
ATOM     18  N   UNL     1       7.464  -8.276  -2.451  0.00  0.00    +0.000 NA
ENDBRANCH  11  13
ENDBRANCH   9  11
ENDBRANCH   8   9
ENDBRANCH   5   8
ENDBRANCH   1   2
BRANCH   1  19
ATOM     19  N   UNL     1      -0.262 -10.522  -7.110  0.00  0.00    +0.000 N 
ATOM     20  C   UNL     1      -1.061  -9.440  -7.367  0.00  0.00    +0.000 C 
ATOM     21  O   UNL     1      -0.829  -8.633  -8.262  0.00  0.00    +0.000 OA
ATOM     22  H   UNL     1      -0.384 -11.018  -6.235  0.00  0.00    +0.000 HD
BRANCH  20  23
ATOM     23  C   UNL     1      -2.255  -9.323  -6.525  0.00  0.00    +0.000 A 
ATOM     24  C   UNL     1      -3.399  -8.702  -7.008  0.00  0.00    +0.000 A 
ATOM     25  S   UNL     1      -4.674  -8.646  -5.876  0.00  0.00    +0.000 S 
ATOM     26  C   UNL     1      -3.721  -9.403  -4.684  0.00  0.00    +0.000 A 
ATOM     27  N   UNL     1      -4.199  -9.609  -3.426  0.00  0.00    +0.000 NA
ATOM     28  C   UNL     1      -3.349 -10.153  -2.618  0.00  0.00    +0.000 A 
ATOM     29  N   UNL     1      -2.077 -10.529  -2.955  0.00  0.00    +0.000 N 
ATOM     30  C   UNL     1      -1.589 -10.433  -4.236  0.00  0.00    +0.000 A 
ATOM     31  O   UNL     1      -0.523 -10.946  -4.540  0.00  0.00    +0.000 OA
ATOM     32  C   UNL     1      -2.471  -9.748  -5.164  0.00  0.00    +0.000 A 
ATOM     33  H   UNL     1      -1.482 -11.000  -2.292  0.00  0.00    +0.000 HD
ENDBRANCH  20  23
ENDBRANCH   1  19
BRANCH   1  34
ATOM     34  C   UNL     1       1.304 -12.269  -7.933  0.00  0.00    +0.000 C 
BRANCH  34  36
ATOM     35  C   UNL     1       0.581 -14.335  -8.800  0.00  0.00    +0.000 C 
ATOM     36  O   UNL     1       0.274 -12.952  -8.658  0.00  0.00    +0.000 OA
ENDBRANCH  34  36
ENDBRANCH   1  34
TORSDOF 9
