REMARK  Name = 
REMARK  7 active torsions:
REMARK  status: ('A' for Active; 'I' for Inactive)
REMARK    1  A    between atoms: C_1  and  O_2
REMARK    2  A    between atoms: O_2  and  C_3
REMARK    3  A    between atoms: C_10  and  C_11
REMARK    4  A    between atoms: N_13  and  C_14
REMARK    5  A    between atoms: C_14  and  C_15
REMARK    6  A    between atoms: C_18  and  C_19
REMARK    7  A    between atoms: C_20  and  C_21
REMARK                            x       y       z     vdW  Elec       q    Type
REMARK                         _______ _______ _______ _____ _____    ______ ____
ROOT
ATOM      1  C   UNL     1       3.412  -3.310  -1.264  0.00  0.00    +0.000 C 
ATOM      2  O   UNL     1       4.569  -3.716  -1.211  0.00  0.00    +0.000 OA
ATOM      3  N   UNL     1       2.724  -2.971  -0.132  0.00  0.00    +0.000 N 
ATOM      4  H   UNL     1       1.774  -2.637  -0.196  0.00  0.00    +0.000 HD
ENDROOT
BRANCH   1  12
ATOM      5  C   UNL     1       0.226  -2.336  -2.134  0.00  0.00    +0.000 A 
ATOM      6  N   UNL     1      -0.907  -1.932  -2.741  0.00  0.00    +0.000 NA
ATOM      7  C   UNL     1      -0.935  -1.928  -4.077  0.00  0.00    +0.000 A 
ATOM      8  N   UNL     1       0.042  -2.299  -4.900  0.00  0.00    +0.000 NA
ATOM      9  C   UNL     1       1.156  -2.683  -4.253  0.00  0.00    +0.000 A 
ATOM     10  S   UNL     1       2.505  -3.201  -5.144  0.00  0.00    +0.000 S 
ATOM     11  C   UNL     1       3.404  -3.460  -3.725  0.00  0.00    +0.000 A 
ATOM     12  C   UNL     1       2.715  -3.156  -2.557  0.00  0.00    +0.000 A 
ATOM     13  C   UNL     1       1.357  -2.718  -2.877  0.00  0.00    +0.000 A 
BRANCH   5  15
ATOM     14  C   UNL     1      -1.027  -2.469  -0.163  0.00  0.00    +0.000 C 
ATOM     15  O   UNL     1       0.261  -2.327  -0.756  0.00  0.00    +0.000 OA
ENDBRANCH   5  15
ENDBRANCH   1  12
BRANCH   3  16
ATOM     16  C   UNL     1       3.314  -3.052   1.181  0.00  0.00    +0.000 C 
BRANCH  16  17
ATOM     17  C   UNL     1       2.324  -2.654   2.250  0.00  0.00    +0.000 A 
ATOM     18  C   UNL     1       1.467  -3.607   2.814  0.00  0.00    +0.000 A 
ATOM     19  C   UNL     1       0.527  -3.239   3.784  0.00  0.00    +0.000 A 
ATOM     20  C   UNL     1       0.415  -1.909   4.214  0.00  0.00    +0.000 A 
ATOM     21  C   UNL     1       1.258  -0.953   3.630  0.00  0.00    +0.000 A 
ATOM     22  C   UNL     1       2.202  -1.320   2.661  0.00  0.00    +0.000 A 
BRANCH  20  23
ATOM     23  C   UNL     1      -0.606  -1.472   5.184  0.00  0.00    +0.000 C 
ATOM     24  C   UNL     1      -1.093  -2.235   6.178  0.00  0.00    +0.000 C 
BRANCH  24  25
ATOM     25  C   UNL     1      -2.154  -1.830   7.119  0.00  0.00    +0.000 A 
ATOM     26  C   UNL     1      -3.165  -0.921   6.775  0.00  0.00    +0.000 A 
ATOM     27  C   UNL     1      -4.198  -0.626   7.671  0.00  0.00    +0.000 A 
ATOM     28  C   UNL     1      -4.239  -1.242   8.919  0.00  0.00    +0.000 A 
ATOM     29  C   UNL     1      -3.244  -2.149   9.274  0.00  0.00    +0.000 A 
ATOM     30  C   UNL     1      -2.211  -2.442   8.379  0.00  0.00    +0.000 A 
ENDBRANCH  24  25
ENDBRANCH  20  23
ENDBRANCH  16  17
ENDBRANCH   3  16
TORSDOF 6
