REMARK  Name = 
REMARK  9 active torsions:
REMARK  status: ('A' for Active; 'I' for Inactive)
REMARK    1  A    between atoms: C_1  and  C_2
REMARK    2  A    between atoms: C_2  and  C_3
REMARK    3  A    between atoms: C_2  and  C_17
REMARK    4  A    between atoms: C_3  and  N_4
REMARK    5  A    between atoms: C_5  and  C_7
REMARK    6  A    between atoms: C_20  and  C_21
REMARK    7  A    between atoms: C_21  and  N_22
REMARK    8  A    between atoms: N_22  and  C_23
REMARK    9  A    between atoms: C_23  and  C_24
REMARK                            x       y       z     vdW  Elec       q    Type
REMARK                         _______ _______ _______ _____ _____    ______ ____
ROOT
ATOM      1  C   UNL     1       2.648   0.081  -1.642  0.00  0.00    +0.000 C 
ATOM      2  C   UNL     1       2.531  -0.086  -0.111  0.00  0.00    +0.000 C 
ENDROOT
BRANCH   2   3
ATOM      3  C   UNL     1       2.911   1.184   0.659  0.00  0.00    +0.000 A 
ATOM      4  C   UNL     1       2.730   2.458   0.097  0.00  0.00    +0.000 A 
ATOM      5  C   UNL     1       3.020   3.619   0.817  0.00  0.00    +0.000 A 
ATOM      6  C   UNL     1       3.476   3.546   2.136  0.00  0.00    +0.000 A 
ATOM      7  C   UNL     1       3.660   2.289   2.711  0.00  0.00    +0.000 A 
ATOM      8  C   UNL     1       3.373   1.129   1.986  0.00  0.00    +0.000 A 
BRANCH   6   9
ATOM      9  C   UNL     1       3.730   4.808   2.919  0.00  0.00    +0.000 C 
BRANCH   9  10
ATOM     10  N   UNL     1       2.508   5.606   3.002  0.00  0.00    +0.000 NA
ATOM     11  H   UNL     1       1.779   5.047   3.444  0.00  0.00    +0.000 HD
BRANCH  10  12
ATOM     12  C   UNL     1       2.727   6.823   3.770  0.00  0.00    +0.000 C 
BRANCH  12  13
ATOM     13  C   UNL     1       1.456   7.626   3.887  0.00  0.00    +0.000 A 
ATOM     14  C   UNL     1       0.897   7.899   5.139  0.00  0.00    +0.000 A 
ATOM     15  C   UNL     1      -0.257   8.664   5.200  0.00  0.00    +0.000 A 
ATOM     16  N   UNL     1      -0.886   9.165   4.116  0.00  0.00    +0.000 NA
ATOM     17  C   UNL     1      -0.337   8.883   2.915  0.00  0.00    +0.000 A 
ATOM     18  C   UNL     1       0.815   8.131   2.751  0.00  0.00    +0.000 A 
ENDBRANCH  12  13
ENDBRANCH  10  12
ENDBRANCH   9  10
ENDBRANCH   6   9
ENDBRANCH   2   3
BRANCH   2  19
ATOM     19  C   UNL     1       3.355  -1.321   0.331  0.00  0.00    +0.000 C 
BRANCH  19  20
ATOM     20  N   UNL     1       2.972  -2.545  -0.335  0.00  0.00    +0.000 N 
ATOM     21  C   UNL     1       1.935  -3.336   0.092  0.00  0.00    +0.000 C 
ATOM     22  O   UNL     1       1.239  -3.046   1.059  0.00  0.00    +0.000 OA
ATOM     23  H   UNL     1       3.621  -2.901  -1.029  0.00  0.00    +0.000 HD
BRANCH  21  24
ATOM     24  C   UNL     1       1.666  -4.521  -0.729  0.00  0.00    +0.000 A 
ATOM     25  C   UNL     1       0.405  -5.099  -0.718  0.00  0.00    +0.000 A 
ATOM     26  S   UNL     1       0.248  -6.405  -1.804  0.00  0.00    +0.000 S 
ATOM     27  C   UNL     1       1.878  -6.277  -2.281  0.00  0.00    +0.000 A 
ATOM     28  N   UNL     1       2.408  -7.119  -3.211  0.00  0.00    +0.000 NA
ATOM     29  C   UNL     1       3.661  -6.929  -3.449  0.00  0.00    +0.000 A 
ATOM     30  N   UNL     1       4.439  -5.981  -2.842  0.00  0.00    +0.000 N 
ATOM     31  C   UNL     1       3.942  -5.083  -1.929  0.00  0.00    +0.000 A 
ATOM     32  O   UNL     1       4.651  -4.202  -1.458  0.00  0.00    +0.000 OA
ATOM     33  C   UNL     1       2.531  -5.254  -1.621  0.00  0.00    +0.000 A 
ATOM     34  H   UNL     1       5.416  -5.879  -3.079  0.00  0.00    +0.000 HD
ENDBRANCH  21  24
ENDBRANCH  19  20
ENDBRANCH   2  19
TORSDOF 8
