REMARK  Name = 
REMARK  5 active torsions:
REMARK  status: ('A' for Active; 'I' for Inactive)
REMARK    1  A    between atoms: N_1  and  C_2
REMARK    2  A    between atoms: C_2  and  C_3
REMARK    3  A    between atoms: C_3  and  C_4
REMARK    4  A    between atoms: C_7  and  C_8
REMARK    5  A    between atoms: C_8  and  N_9
REMARK                            x       y       z     vdW  Elec       q    Type
REMARK                         _______ _______ _______ _____ _____    ______ ____
ROOT
ATOM      1  C   UNL     1       4.368  -0.829   1.134  0.00  0.00    +0.000 A 
ATOM      2  C   UNL     1       5.019  -1.842   1.848  0.00  0.00    +0.000 A 
ATOM      3  C   UNL     1       6.415  -1.932   1.842  0.00  0.00    +0.000 A 
ATOM      4  C   UNL     1       7.187  -1.000   1.137  0.00  0.00    +0.000 A 
ATOM      5  C   UNL     1       6.533   0.013   0.420  0.00  0.00    +0.000 A 
ATOM      6  C   UNL     1       5.138   0.102   0.425  0.00  0.00    +0.000 A 
ENDROOT
BRANCH   1   7
ATOM      7  C   UNL     1       2.860  -0.742   1.126  0.00  0.00    +0.000 C 
BRANCH   7   8
ATOM      8  C   UNL     1       2.311   0.119   2.268  0.00  0.00    +0.000 C 
BRANCH   8   9
ATOM      9  N   UNL     1       0.848   0.154   2.239  0.00  0.00    +0.000 NA
ATOM     10  H   UNL     1       0.508   0.707   3.025  0.00  0.00    +0.000 HD
ATOM     11  H   UNL     1       0.481  -0.788   2.376  0.00  0.00    +0.000 HD
ENDBRANCH   8   9
ENDBRANCH   7   8
ENDBRANCH   1   7
BRANCH   4  12
ATOM     12  C   UNL     1       8.698  -1.076   1.155  0.00  0.00    +0.000 C 
BRANCH  12  13
ATOM     13  N   UNL     1       9.173  -1.917   0.062  0.00  0.00    +0.000 N 
ATOM     14  C   UNL     1      10.577  -1.955  -0.046  0.00  0.00    +0.000 A 
ATOM     15  C   UNL     1      11.143  -2.720  -1.050  0.00  0.00    +0.000 A 
ATOM     16  C   UNL     1      12.518  -2.757  -1.107  0.00  0.00    +0.000 A 
ATOM     17  N   UNL     1      13.313  -2.093  -0.251  0.00  0.00    +0.000 NA
ATOM     18  C   UNL     1      12.671  -1.392   0.692  0.00  0.00    +0.000 A 
ATOM     19  N   UNL     1      11.342  -1.295   0.841  0.00  0.00    +0.000 NA
ATOM     20  H   UNL     1       8.767  -1.645  -0.828  0.00  0.00    +0.000 HD
ENDBRANCH  12  13
ENDBRANCH   4  12
TORSDOF 5
