REMARK  Name = 
REMARK  5 active torsions:
REMARK  status: ('A' for Active; 'I' for Inactive)
REMARK    1  A    between atoms: C_2  and  C_4
REMARK    2  A    between atoms: C_7  and  N_8
REMARK    3  A    between atoms: N_8  and  C_9
REMARK    4  A    between atoms: C_9  and  C_10
REMARK    5  A    between atoms: C_14  and  C_15
REMARK                            x       y       z     vdW  Elec       q    Type
REMARK                         _______ _______ _______ _____ _____    ______ ____
ROOT
ATOM      1  N   UNL     1       4.881   4.451   2.676  0.00  0.00    +0.000 N 
ATOM      2  H   UNL     1       5.743   4.099   2.271  0.00  0.00    +0.000 HD
ENDROOT
BRANCH   1   6
ATOM      3  C   UNL     1       1.518   3.012   0.814  0.00  0.00    +0.000 A 
ATOM      4  C   UNL     1       1.629   2.979   2.193  0.00  0.00    +0.000 A 
ATOM      5  N   UNL     1       2.743   3.406   2.846  0.00  0.00    +0.000 NA
ATOM      6  C   UNL     1       3.753   3.876   2.085  0.00  0.00    +0.000 A 
ATOM      7  C   UNL     1       3.619   3.895   0.688  0.00  0.00    +0.000 A 
ATOM      8  N   UNL     1       2.521   3.461   0.013  0.00  0.00    +0.000 NA
BRANCH   3  10
ATOM      9  N   UNL     1       0.249   2.605  -1.206  0.00  0.00    +0.000 N 
ATOM     10  C   UNL     1       0.256   2.565   0.162  0.00  0.00    +0.000 C 
ATOM     11  O   UNL     1      -0.716   2.189   0.803  0.00  0.00    +0.000 OA
ATOM     12  H   UNL     1      -0.580   2.322  -1.708  0.00  0.00    +0.000 HD
ATOM     13  H   UNL     1       1.069   2.926  -1.708  0.00  0.00    +0.000 HD
ENDBRANCH   3  10
ENDBRANCH   1   6
BRANCH   1  14
ATOM     14  C   UNL     1       4.926   4.445   4.134  0.00  0.00    +0.000 C 
BRANCH  14  15
ATOM     15  C   UNL     1       5.738   5.631   4.611  0.00  0.00    +0.000 A 
ATOM     16  C   UNL     1       5.367   6.924   4.213  0.00  0.00    +0.000 A 
ATOM     17  C   UNL     1       6.049   8.036   4.692  0.00  0.00    +0.000 A 
ATOM     18  C   UNL     1       7.091   7.870   5.604  0.00  0.00    +0.000 A 
ATOM     19  C   UNL     1       7.469   6.594   6.065  0.00  0.00    +0.000 A 
ATOM     20  C   UNL     1       6.796   5.479   5.524  0.00  0.00    +0.000 A 
BRANCH  19  21
ATOM     21  C   UNL     1       8.487   6.433   7.124  0.00  0.00    +0.000 A 
ATOM     22  C   UNL     1       8.611   7.356   8.169  0.00  0.00    +0.000 A 
ATOM     23  C   UNL     1       9.567   7.151   9.162  0.00  0.00    +0.000 A 
ATOM     24  C   UNL     1      10.375   6.026   9.095  0.00  0.00    +0.000 A 
ATOM     25  C   UNL     1      10.193   5.153   8.036  0.00  0.00    +0.000 A 
ATOM     26  N   UNL     1       9.270   5.328   7.060  0.00  0.00    +0.000 NA
ENDBRANCH  19  21
ENDBRANCH  14  15
ENDBRANCH   1  14
TORSDOF 5
