REMARK  Name = 
REMARK  9 active torsions:
REMARK  status: ('A' for Active; 'I' for Inactive)
REMARK    1  A    between atoms: C_1  and  C_2
REMARK    2  A    between atoms: C_2  and  N_3
REMARK    3  A    between atoms: C_4  and  C_6
REMARK    4  A    between atoms: C_9  and  O_10
REMARK    5  A    between atoms: O_10  and  C_11
REMARK    6  A    between atoms: C_11  and  C_12
REMARK    7  A    between atoms: C_12  and  C_13
REMARK    8  A    between atoms: C_12  and  C_14
REMARK    9  A    between atoms: C_12  and  C_15
REMARK                            x       y       z     vdW  Elec       q    Type
REMARK                         _______ _______ _______ _____ _____    ______ ____
ROOT
ATOM      1  C   UNL     1       4.859  -0.068   2.978  0.00  0.00    +0.000 A 
ATOM      2  C   UNL     1       4.184  -0.829   3.939  0.00  0.00    +0.000 A 
ATOM      3  C   UNL     1       4.668  -0.899   5.252  0.00  0.00    +0.000 A 
ATOM      4  C   UNL     1       5.831  -0.218   5.615  0.00  0.00    +0.000 A 
ATOM      5  C   UNL     1       6.507   0.537   4.651  0.00  0.00    +0.000 A 
ATOM      6  C   UNL     1       6.029   0.610   3.339  0.00  0.00    +0.000 A 
ENDROOT
BRANCH   1   8
ATOM      7  N   UNL     1       3.054  -0.185   1.335  0.00  0.00    +0.000 N 
ATOM      8  C   UNL     1       4.405  -0.005   1.560  0.00  0.00    +0.000 C 
ATOM      9  O   UNL     1       5.217   0.206   0.668  0.00  0.00    +0.000 OA
ATOM     10  H   UNL     1       2.410  -0.168   2.112  0.00  0.00    +0.000 HD
BRANCH   7  12
ATOM     11  C   UNL     1       2.110   1.249  -0.426  0.00  0.00    +0.000 C 
ATOM     12  C   UNL     1       2.505  -0.155  -0.006  0.00  0.00    +0.000 C 
ENDBRANCH   7  12
ENDBRANCH   1   8
BRANCH   4  13
ATOM     13  O   UNL     1       6.403  -0.220   6.857  0.00  0.00    +0.000 OA
BRANCH  13  14
ATOM     14  C   UNL     1       5.753  -0.986   7.880  0.00  0.00    +0.000 C 
BRANCH  14  15
ATOM     15  C   UNL     1       6.529  -0.874   9.227  0.00  0.00    +0.000 C 
ATOM     16  C   UNL     1       7.962  -1.423   9.049  0.00  0.00    +0.000 C 
ATOM     17  C   UNL     1       6.669   0.628   9.583  0.00  0.00    +0.000 C 
BRANCH  15  18
ATOM     18  C   UNL     1       5.784  -1.674  10.315  0.00  0.00    +0.000 A 
ATOM     19  C   UNL     1       5.582  -3.060  10.189  0.00  0.00    +0.000 A 
ATOM     20  C   UNL     1       4.869  -3.740  11.172  0.00  0.00    +0.000 A 
ATOM     21  N   UNL     1       4.349  -3.155  12.267  0.00  0.00    +0.000 NA
ATOM     22  C   UNL     1       4.561  -1.831  12.392  0.00  0.00    +0.000 A 
ATOM     23  C   UNL     1       5.259  -1.068  11.465  0.00  0.00    +0.000 A 
ENDBRANCH  15  18
ENDBRANCH  14  15
ENDBRANCH  13  14
ENDBRANCH   4  13
TORSDOF 6
