REMARK  Name = 
REMARK  10 active torsions:
REMARK  status: ('A' for Active; 'I' for Inactive)
REMARK    1  A    between atoms: C_2  and  C_4
REMARK    2  A    between atoms: C_7  and  N_8
REMARK    3  A    between atoms: N_8  and  C_9
REMARK    4  A    between atoms: C_9  and  C_10
REMARK    5  A    between atoms: C_10  and  C_11
REMARK    6  A    between atoms: C_10  and  C_13
REMARK    7  A    between atoms: C_11  and  O_12
REMARK    8  A    between atoms: C_17  and  O_18
REMARK    9  A    between atoms: O_18  and  C_19
REMARK   10  A    between atoms: C_22  and  C_24
REMARK                            x       y       z     vdW  Elec       q    Type
REMARK                         _______ _______ _______ _____ _____    ______ ____
ROOT
ATOM      1  C   UNL     1       5.671   7.109  -1.586  0.00  0.00    +0.000 C 
ENDROOT
BRANCH   1   2
ATOM      2  C   UNL     1       5.292   8.434  -0.921  0.00  0.00    +0.000 A 
ATOM      3  C   UNL     1       4.003   8.973  -1.035  0.00  0.00    +0.000 A 
ATOM      4  C   UNL     1       3.650  10.139  -0.352  0.00  0.00    +0.000 A 
ATOM      5  C   UNL     1       4.583  10.799   0.451  0.00  0.00    +0.000 A 
ATOM      6  C   UNL     1       5.878  10.297   0.554  0.00  0.00    +0.000 A 
ATOM      7  C   UNL     1       6.224   9.118  -0.121  0.00  0.00    +0.000 A 
BRANCH   6   8
ATOM      8  O   UNL     1       6.875  10.847   1.324  0.00  0.00    +0.000 OA
BRANCH   8   9
ATOM      9  C   UNL     1       6.782  12.238   1.713  0.00  0.00    +0.000 C 
ATOM     10  C   UNL     1       6.955  13.299   0.605  0.00  0.00    +0.000 C 
ATOM     11  N   UNL     1       7.969  13.910   1.432  0.00  0.00    +0.000 N 
ATOM     12  C   UNL     1       8.607  15.127   1.444  0.00  0.00    +0.000 C 
ATOM     13  O   UNL     1       9.460  15.368   2.302  0.00  0.00    +0.000 OA
ATOM     14  C   UNL     1       8.054  12.815   2.375  0.00  0.00    +0.000 C 
BRANCH  12  15
ATOM     15  C   UNL     1       8.184  16.165   0.382  0.00  0.00    +0.000 C 
ATOM     16  F   UNL     1       7.221  15.723  -0.477  0.00  0.00    +0.000 F 
ATOM     17  F   UNL     1       7.677  17.294   0.953  0.00  0.00    +0.000 F 
ATOM     18  F   UNL     1       9.225  16.563  -0.401  0.00  0.00    +0.000 F 
ENDBRANCH  12  15
ENDBRANCH   8   9
ENDBRANCH   6   8
ENDBRANCH   1   2
BRANCH   1  19
ATOM     19  C   UNL     1       4.834   5.958  -0.979  0.00  0.00    +0.000 C 
BRANCH  19  20
ATOM     20  N   UNL     1       5.265   4.639  -1.468  0.00  0.00    +0.000 N 
ATOM     21  H   UNL     1       5.419   4.594  -2.470  0.00  0.00    +0.000 HD
BRANCH  20  25
ATOM     22  C   UNL     1       3.382   1.143  -0.202  0.00  0.00    +0.000 A 
ATOM     23  C   UNL     1       3.299   2.253   0.624  0.00  0.00    +0.000 A 
ATOM     24  C   UNL     1       3.916   3.436   0.211  0.00  0.00    +0.000 A 
ATOM     25  C   UNL     1       4.573   3.505  -1.018  0.00  0.00    +0.000 A 
ATOM     26  C   UNL     1       4.630   2.307  -1.746  0.00  0.00    +0.000 A 
ATOM     27  N   UNL     1       4.045   1.135  -1.388  0.00  0.00    +0.000 NA
BRANCH  22  29
ATOM     28  N   UNL     1       2.902  -1.194  -0.631  0.00  0.00    +0.000 N 
ATOM     29  C   UNL     1       2.724  -0.134   0.216  0.00  0.00    +0.000 C 
ATOM     30  O   UNL     1       2.079  -0.241   1.250  0.00  0.00    +0.000 OA
ATOM     31  H   UNL     1       2.521  -2.096  -0.383  0.00  0.00    +0.000 HD
ATOM     32  H   UNL     1       3.491  -1.088  -1.449  0.00  0.00    +0.000 HD
ENDBRANCH  22  29
ENDBRANCH  20  25
ENDBRANCH  19  20
ENDBRANCH   1  19
BRANCH   1  33
ATOM     33  C   UNL     1       5.590   7.174  -3.125  0.00  0.00    +0.000 C 
BRANCH  33  34
ATOM     34  O   UNL     1       4.260   7.258  -3.628  0.00  0.00    +0.000 OA
ATOM     35  H   UNL     1       3.801   6.422  -3.440  0.00  0.00    +0.000 HD
ENDBRANCH  33  34
ENDBRANCH   1  33
TORSDOF 10
