REMARK  Name = 
REMARK  5 active torsions:
REMARK  status: ('A' for Active; 'I' for Inactive)
REMARK    1  A    between atoms: C_2  and  C_3
REMARK    2  A    between atoms: N_7  and  C_8
REMARK    3  A    between atoms: C_8  and  C_9
REMARK    4  A    between atoms: C_9  and  C_12
REMARK    5  A    between atoms: C_14  and  C_15
REMARK                            x       y       z     vdW  Elec       q    Type
REMARK                         _______ _______ _______ _____ _____    ______ ____
ROOT
ATOM      1  C   UNL     1      -5.910   1.150  -0.249  0.00  0.00    +0.000 C 
ATOM      2  F   UNL     1      -6.186   0.399  -1.360  0.00  0.00    +0.000 F 
ATOM      3  F   UNL     1      -6.325   0.386   0.808  0.00  0.00    +0.000 F 
ENDROOT
BRANCH   1   4
ATOM      4  C   UNL     1      -6.625   2.497  -0.287  0.00  0.00    +0.000 A 
ATOM      5  C   UNL     1      -8.012   2.511  -0.376  0.00  0.00    +0.000 A 
ATOM      6  C   UNL     1      -8.694   3.733  -0.427  0.00  0.00    +0.000 A 
ATOM      7  C   UNL     1      -7.937   4.909  -0.381  0.00  0.00    +0.000 A 
ATOM      8  C   UNL     1      -6.564   4.819  -0.286  0.00  0.00    +0.000 A 
ATOM      9  N   UNL     1      -5.899   3.648  -0.240  0.00  0.00    +0.000 NA
BRANCH   6  10
ATOM     10  C   UNL     1     -10.160   3.776  -0.527  0.00  0.00    +0.000 A 
ATOM     11  C   UNL     1     -10.950   2.754   0.031  0.00  0.00    +0.000 A 
ATOM     12  C   UNL     1     -12.340   2.791  -0.063  0.00  0.00    +0.000 A 
ATOM     13  C   UNL     1     -12.954   3.850  -0.719  0.00  0.00    +0.000 A 
ATOM     14  F   UNL     1     -14.292   3.868  -0.798  0.00  0.00    +0.000 F 
ATOM     15  C   UNL     1     -12.197   4.872  -1.282  0.00  0.00    +0.000 A 
ATOM     16 CL   UNL     1     -12.951   6.182  -2.103  0.00  0.00    +0.000 Cl
ATOM     17  C   UNL     1     -10.806   4.835  -1.187  0.00  0.00    +0.000 A 
ENDBRANCH   6  10
ENDBRANCH   1   4
BRANCH   1  18
ATOM     18  C   UNL     1      -4.388   1.348  -0.154  0.00  0.00    +0.000 C 
BRANCH  18  23
ATOM     19  C   UNL     1       0.511  -0.011   0.216  0.00  0.00    +0.000 A 
ATOM     20  C   UNL     1      -0.101   1.230   0.124  0.00  0.00    +0.000 A 
ATOM     21  C   UNL     1      -1.490   1.292   0.049  0.00  0.00    +0.000 A 
ATOM     22  C   UNL     1      -2.243   0.119   0.050  0.00  0.00    +0.000 A 
ATOM     23  N   UNL     1      -3.609   0.118  -0.045  0.00  0.00    +0.000 N 
ATOM     24  N   UNL     1      -1.655  -1.088   0.148  0.00  0.00    +0.000 NA
ATOM     25  C   UNL     1      -0.301  -1.132   0.236  0.00  0.00    +0.000 A 
ATOM     26  H   UNL     1      -4.053  -0.791  -0.119  0.00  0.00    +0.000 HD
BRANCH  19  28
ATOM     27  N   UNL     1       3.087  -0.190   0.316  0.00  0.00    +0.000 NA
ATOM     28  C   UNL     1       1.934  -0.123   0.277  0.00  0.00    +0.000 C 
ENDBRANCH  19  28
ENDBRANCH  18  23
ENDBRANCH   1  18
TORSDOF 5
