REMARK  Name = 
REMARK  6 active torsions:
REMARK  status: ('A' for Active; 'I' for Inactive)
REMARK    1  A    between atoms: C_1  and  C_2
REMARK    2  A    between atoms: C_3  and  C_4
REMARK    3  A    between atoms: C_7  and  C_8
REMARK    4  A    between atoms: C_15  and  C_16
REMARK    5  A    between atoms: C_15  and  C_17
REMARK    6  A    between atoms: C_20  and  C_21
REMARK                            x       y       z     vdW  Elec       q    Type
REMARK                         _______ _______ _______ _____ _____    ______ ____
ROOT
ATOM      1  C   UNL     1       2.860   0.054  -1.367  0.00  0.00    +0.000 C 
ATOM      2  C   UNL     1       2.484   0.077   0.124  0.00  0.00    +0.000 C 
ATOM      3  C   UNL     1       3.065  -1.212   0.807  0.00  0.00    +0.000 C 
ATOM      4  C   UNL     1       4.402  -0.755   1.428  0.00  0.00    +0.000 C 
ATOM      5  C   UNL     1       4.500   0.754   1.248  0.00  0.00    +0.000 C 
ATOM      6  C   UNL     1       3.078   1.273   0.944  0.00  0.00    +0.000 C 
ATOM      7  C   UNL     1       2.304   1.414   2.283  0.00  0.00    +0.000 C 
ENDROOT
BRANCH   3   8
ATOM      8  C   UNL     1       2.062  -1.928   1.706  0.00  0.00    +0.000 A 
ATOM      9  C   UNL     1       0.861  -2.396   1.144  0.00  0.00    +0.000 A 
ATOM     10  C   UNL     1      -0.110  -3.025   1.928  0.00  0.00    +0.000 A 
ATOM     11  C   UNL     1       0.108  -3.228   3.294  0.00  0.00    +0.000 A 
ATOM     12  C   UNL     1       1.304  -2.800   3.863  0.00  0.00    +0.000 A 
ATOM     13  C   UNL     1       2.276  -2.163   3.074  0.00  0.00    +0.000 A 
BRANCH  11  14
ATOM     14  C   UNL     1      -0.964  -3.856   4.106  0.00  0.00    +0.000 C 
ATOM     15  N   UNL     1      -0.594  -4.525   5.241  0.00  0.00    +0.000 N 
ATOM     16  O   UNL     1      -2.140  -3.796   3.769  0.00  0.00    +0.000 OA
ATOM     17  H   UNL     1       0.363  -4.701   5.507  0.00  0.00    +0.000 HD
ATOM     18  H   UNL     1      -1.328  -4.990   5.756  0.00  0.00    +0.000 HD
ENDBRANCH  11  14
ENDBRANCH   3   8
BRANCH   6  19
ATOM     19  C   UNL     1       3.053   2.632   0.219  0.00  0.00    +0.000 A 
ATOM     20  C   UNL     1       4.232   3.337  -0.090  0.00  0.00    +0.000 A 
ATOM     21  C   UNL     1       4.208   4.538  -0.804  0.00  0.00    +0.000 A 
ATOM     22  C   UNL     1       2.994   5.092  -1.214  0.00  0.00    +0.000 A 
ATOM     23  C   UNL     1       1.807   4.441  -0.870  0.00  0.00    +0.000 A 
ATOM     24  C   UNL     1       1.837   3.229  -0.166  0.00  0.00    +0.000 A 
BRANCH  22  25
ATOM     25  C   UNL     1       3.032   6.363  -1.980  0.00  0.00    +0.000 C 
ATOM     26  N   UNL     1       1.988   6.626  -2.824  0.00  0.00    +0.000 N 
ATOM     27  O   UNL     1       3.976   7.142  -1.893  0.00  0.00    +0.000 OA
ATOM     28  H   UNL     1       1.252   5.970  -3.028  0.00  0.00    +0.000 HD
ATOM     29  H   UNL     1       2.062   7.460  -3.392  0.00  0.00    +0.000 HD
ENDBRANCH  22  25
ENDBRANCH   6  19
TORSDOF 4
