REMARK  Name = 
REMARK  6 active torsions:
REMARK  status: ('A' for Active; 'I' for Inactive)
REMARK    1  A    between atoms: C_2  and  C_25
REMARK    2  A    between atoms: N_3  and  C_4
REMARK    3  A    between atoms: C_4  and  C_5
REMARK    4  A    between atoms: C_8  and  C_9
REMARK    5  A    between atoms: C_9  and  N_10
REMARK    6  A    between atoms: C_11  and  C_13
REMARK                            x       y       z     vdW  Elec       q    Type
REMARK                         _______ _______ _______ _____ _____    ______ ____
ROOT
ATOM      1  C   UNL     1       3.187  -1.776  -3.171  0.00  0.00    +0.000 A 
ATOM      2  C   UNL     1       3.991  -0.896  -3.893  0.00  0.00    +0.000 A 
ATOM      3  C   UNL     1       4.838  -1.403  -4.878  0.00  0.00    +0.000 A 
ATOM      4  C   UNL     1       4.889  -2.779  -5.109  0.00  0.00    +0.000 A 
ATOM      5  C   UNL     1       4.049  -3.581  -4.344  0.00  0.00    +0.000 A 
ATOM      6  N   UNL     1       3.213  -3.116  -3.383  0.00  0.00    +0.000 NA
ENDROOT
BRANCH   1   7
ATOM      7  C   UNL     1       2.237  -1.246  -2.123  0.00  0.00    +0.000 C 
BRANCH   7  10
ATOM      8  O   UNL     1       1.500   0.667  -0.209  0.00  0.00    +0.000 OA
ATOM      9  C   UNL     1       2.383  -0.143   0.070  0.00  0.00    +0.000 C 
ATOM     10  N   UNL     1       2.859  -1.075  -0.827  0.00  0.00    +0.000 N 
ATOM     11  H   UNL     1       3.469  -1.802  -0.463  0.00  0.00    +0.000 HD
BRANCH   9  12
ATOM     12  C   UNL     1       3.004  -0.160   1.433  0.00  0.00    +0.000 A 
ATOM     13  C   UNL     1       2.564   0.755   2.387  0.00  0.00    +0.000 A 
ATOM     14  C   UNL     1       3.169   0.745   3.640  0.00  0.00    +0.000 A 
ATOM     15  C   UNL     1       4.184  -0.169   3.895  0.00  0.00    +0.000 A 
ATOM     16  C   UNL     1       4.553  -1.048   2.885  0.00  0.00    +0.000 A 
ATOM     17  N   UNL     1       3.987  -1.073   1.656  0.00  0.00    +0.000 NA
ENDBRANCH   9  12
ENDBRANCH   7  10
ENDBRANCH   1   7
BRANCH   4  18
ATOM     18  C   UNL     1       5.770  -3.368  -6.174  0.00  0.00    +0.000 C 
BRANCH  18  19
ATOM     19  N   UNL     1       5.079  -3.433  -7.437  0.00  0.00    +0.000 N 
ATOM     20  C   UNL     1       5.623  -4.052  -8.532  0.00  0.00    +0.000 C 
ATOM     21  O   UNL     1       6.707  -4.629  -8.487  0.00  0.00    +0.000 OA
ATOM     22  H   UNL     1       4.327  -2.766  -7.576  0.00  0.00    +0.000 HD
BRANCH  20  23
ATOM     23  C   UNL     1       4.801  -4.047  -9.751  0.00  0.00    +0.000 A 
ATOM     24  C   UNL     1       4.997  -5.018 -10.725  0.00  0.00    +0.000 A 
ATOM     25  S   UNL     1       3.897  -4.909 -12.026  0.00  0.00    +0.000 S 
ATOM     26  C   UNL     1       3.159  -3.528 -11.361  0.00  0.00    +0.000 A 
ATOM     27  N   UNL     1       2.128  -2.908 -11.996  0.00  0.00    +0.000 NA
ATOM     28  C   UNL     1       1.682  -1.857 -11.392  0.00  0.00    +0.000 A 
ATOM     29  N   UNL     1       2.176  -1.368 -10.211  0.00  0.00    +0.000 N 
ATOM     30  C   UNL     1       3.204  -1.969  -9.527  0.00  0.00    +0.000 A 
ATOM     31  O   UNL     1       3.607  -1.518  -8.459  0.00  0.00    +0.000 OA
ATOM     32  C   UNL     1       3.739  -3.160 -10.160  0.00  0.00    +0.000 A 
ATOM     33  H   UNL     1       1.783  -0.540  -9.788  0.00  0.00    +0.000 HD
ENDBRANCH  20  23
ENDBRANCH  18  19
ENDBRANCH   4  18
TORSDOF 6
