REMARK  Name = 
REMARK  7 active torsions:
REMARK  status: ('A' for Active; 'I' for Inactive)
REMARK    1  A    between atoms: C_2  and  C_20
REMARK    2  A    between atoms: N_3  and  C_4
REMARK    3  A    between atoms: C_4  and  C_5
REMARK    4  A    between atoms: C_8  and  C_9
REMARK    5  A    between atoms: C_9  and  C_10
REMARK    6  A    between atoms: C_10  and  O_11
REMARK    7  A    between atoms: C_10  and  C_12
REMARK                            x       y       z     vdW  Elec       q    Type
REMARK                         _______ _______ _______ _____ _____    ______ ____
ROOT
ATOM      1  C   UNL     1       2.274  -2.027   1.337  0.00  0.00    +0.000 C 
ENDROOT
BRANCH   1   2
ATOM      2  C   UNL     1       3.208  -2.993   2.022  0.00  0.00    +0.000 A 
ATOM      3  C   UNL     1       4.324  -2.516   2.702  0.00  0.00    +0.000 A 
ATOM      4  C   UNL     1       5.176  -3.425   3.321  0.00  0.00    +0.000 A 
ATOM      5  C   UNL     1       4.908  -4.794   3.242  0.00  0.00    +0.000 A 
ATOM      6  C   UNL     1       3.779  -5.178   2.527  0.00  0.00    +0.000 A 
ATOM      7  N   UNL     1       2.931  -4.318   1.918  0.00  0.00    +0.000 NA
BRANCH   5   8
ATOM      8  C   UNL     1       5.792  -5.800   3.937  0.00  0.00    +0.000 C 
BRANCH   8   9
ATOM      9  C   UNL     1       6.447  -6.826   2.994  0.00  0.00    +0.000 C 
BRANCH   9  10
ATOM     10  C   UNL     1       7.237  -7.847   3.785  0.00  0.00    +0.000 A 
ATOM     11  C   UNL     1       6.928  -9.202   3.720  0.00  0.00    +0.000 A 
ATOM     12  N   UNL     1       7.620 -10.148   4.400  0.00  0.00    +0.000 NA
ATOM     13  C   UNL     1       8.650  -9.688   5.143  0.00  0.00    +0.000 A 
ATOM     14  C   UNL     1       8.976  -8.346   5.206  0.00  0.00    +0.000 A 
ATOM     15  N   UNL     1       8.290  -7.398   4.526  0.00  0.00    +0.000 NA
ENDBRANCH   9  10
BRANCH   9  16
ATOM     16  O   UNL     1       7.346  -6.152   2.106  0.00  0.00    +0.000 OA
ATOM     17  H   UNL     1       8.169  -6.017   2.613  0.00  0.00    +0.000 HD
ENDBRANCH   9  16
ENDBRANCH   8   9
ENDBRANCH   5   8
ENDBRANCH   1   2
BRANCH   1  20
ATOM     18  O   UNL     1       3.963   0.109   0.547  0.00  0.00    +0.000 OA
ATOM     19  C   UNL     1       3.497  -0.639  -0.307  0.00  0.00    +0.000 C 
ATOM     20  N   UNL     1       2.708  -1.714  -0.003  0.00  0.00    +0.000 N 
ATOM     21  H   UNL     1       2.364  -2.322  -0.732  0.00  0.00    +0.000 HD
BRANCH  19  22
ATOM     22  C   UNL     1       3.796  -0.473  -1.731  0.00  0.00    +0.000 A 
ATOM     23  C   UNL     1       4.979   0.122  -2.142  0.00  0.00    +0.000 A 
ATOM     24  S   UNL     1       5.166   0.151  -3.839  0.00  0.00    +0.000 S 
ATOM     25  C   UNL     1       3.651  -0.588  -4.077  0.00  0.00    +0.000 A 
ATOM     26  N   UNL     1       3.193  -0.869  -5.327  0.00  0.00    +0.000 NA
ATOM     27  C   UNL     1       2.018  -1.405  -5.355  0.00  0.00    +0.000 A 
ATOM     28  N   UNL     1       1.253  -1.672  -4.249  0.00  0.00    +0.000 N 
ATOM     29  C   UNL     1       1.672  -1.406  -2.968  0.00  0.00    +0.000 A 
ATOM     30  O   UNL     1       0.960  -1.665  -2.005  0.00  0.00    +0.000 OA
ATOM     31  C   UNL     1       3.004  -0.836  -2.881  0.00  0.00    +0.000 A 
ATOM     32  H   UNL     1       0.336  -2.084  -4.338  0.00  0.00    +0.000 HD
ENDBRANCH  19  22
ENDBRANCH   1  20
TORSDOF 7
