REMARK  Name = 
REMARK  9 active torsions:
REMARK  status: ('A' for Active; 'I' for Inactive)
REMARK    1  A    between atoms: C_1  and  O_2
REMARK    2  A    between atoms: O_2  and  C_3
REMARK    3  A    between atoms: C_5  and  C_6
REMARK    4  A    between atoms: C_6  and  O_7
REMARK    5  A    between atoms: O_7  and  C_8
REMARK    6  A    between atoms: C_8  and  C_9
REMARK    7  A    between atoms: C_12  and  C_13
REMARK    8  A    between atoms: C_13  and  N_14
REMARK    9  A    between atoms: C_15  and  C_17
REMARK                            x       y       z     vdW  Elec       q    Type
REMARK                         _______ _______ _______ _____ _____    ______ ____
ROOT
ATOM      1  C   UNL     1       7.159  -6.687   1.033  0.00  0.00    +0.000 A 
ATOM      2  C   UNL     1       8.279  -7.053   0.274  0.00  0.00    +0.000 A 
ATOM      3  C   UNL     1       8.430  -8.365  -0.188  0.00  0.00    +0.000 A 
ATOM      4  C   UNL     1       7.458  -9.333   0.093  0.00  0.00    +0.000 A 
ATOM      5  C   UNL     1       6.354  -8.975   0.877  0.00  0.00    +0.000 A 
ATOM      6  C   UNL     1       6.203  -7.664   1.338  0.00  0.00    +0.000 A 
ENDROOT
BRANCH   1   7
ATOM      7  C   UNL     1       6.994  -5.271   1.524  0.00  0.00    +0.000 C 
BRANCH   7   8
ATOM      8  O   UNL     1       6.937  -4.395   0.401  0.00  0.00    +0.000 OA
BRANCH   8   9
ATOM      9  C   UNL     1       6.771  -3.041   0.800  0.00  0.00    +0.000 C 
BRANCH   9  12
ATOM     10  C   UNL     1       6.260  -1.390  -2.496  0.00  0.00    +0.000 C 
ATOM     11  C   UNL     1       6.165  -2.572  -1.704  0.00  0.00    +0.000 C 
ATOM     12  C   UNL     1       6.690  -2.132  -0.397  0.00  0.00    +0.000 C 
ATOM     13  N   UNL     1       7.031  -0.862  -0.400  0.00  0.00    +0.000 NA
ATOM     14  C   UNL     1       6.769  -0.438  -1.696  0.00  0.00    +0.000 C 
BRANCH  10  16
ATOM     15  C   UNL     1       6.026  -0.204  -4.505  0.00  0.00    +0.000 C 
ATOM     16  O   UNL     1       5.873  -1.425  -3.792  0.00  0.00    +0.000 OA
ENDBRANCH  10  16
ENDBRANCH   9  12
ENDBRANCH   8   9
ENDBRANCH   7   8
ENDBRANCH   1   7
BRANCH   4  17
ATOM     17  C   UNL     1       7.603 -10.746  -0.410  0.00  0.00    +0.000 C 
BRANCH  17  18
ATOM     18  N   UNL     1       8.300 -11.573   0.543  0.00  0.00    +0.000 N 
ATOM     19  C   UNL     1       8.607 -12.876   0.255  0.00  0.00    +0.000 C 
ATOM     20  O   UNL     1       8.344 -13.381  -0.834  0.00  0.00    +0.000 OA
ATOM     21  H   UNL     1       8.320 -11.251   1.506  0.00  0.00    +0.000 HD
BRANCH  19  22
ATOM     22  C   UNL     1       9.328 -13.627   1.290  0.00  0.00    +0.000 A 
ATOM     23  C   UNL     1      10.085 -14.735   0.932  0.00  0.00    +0.000 A 
ATOM     24  S   UNL     1      10.903 -15.458   2.241  0.00  0.00    +0.000 S 
ATOM     25  C   UNL     1      10.233 -14.348   3.342  0.00  0.00    +0.000 A 
ATOM     26  N   UNL     1      10.516 -14.425   4.670  0.00  0.00    +0.000 NA
ATOM     27  C   UNL     1       9.914 -13.544   5.396  0.00  0.00    +0.000 A 
ATOM     28  N   UNL     1       9.057 -12.589   4.914  0.00  0.00    +0.000 N 
ATOM     29  C   UNL     1       8.764 -12.453   3.577  0.00  0.00    +0.000 A 
ATOM     30  O   UNL     1       8.026 -11.562   3.172  0.00  0.00    +0.000 OA
ATOM     31  C   UNL     1       9.408 -13.429   2.718  0.00  0.00    +0.000 A 
ATOM     32  H   UNL     1       8.622 -11.924   5.535  0.00  0.00    +0.000 HD
ENDBRANCH  19  22
ENDBRANCH  17  18
ENDBRANCH   4  17
TORSDOF 8
