REMARK  Name = 
REMARK  9 active torsions:
REMARK  status: ('A' for Active; 'I' for Inactive)
REMARK    1  A    between atoms: C_1  and  C_2
REMARK    2  A    between atoms: C_2  and  N_3
REMARK    3  A    between atoms: C_2  and  C_17
REMARK    4  A    between atoms: C_4  and  C_6
REMARK    5  A    between atoms: N_12  and  C_13
REMARK    6  A    between atoms: C_20  and  C_21
REMARK    7  A    between atoms: C_21  and  N_22
REMARK    8  A    between atoms: N_22  and  C_23
REMARK    9  A    between atoms: C_23  and  C_24
REMARK                            x       y       z     vdW  Elec       q    Type
REMARK                         _______ _______ _______ _____ _____    ______ ____
ROOT
ATOM      1  C   UNL     1       1.950   0.989   1.199  0.00  0.00    +0.000 C 
ATOM      2  C   UNL     1       2.444   0.158   0.011  0.00  0.00    +0.000 C 
ENDROOT
BRANCH   2   3
ATOM      3  C   UNL     1       2.982  -1.191   0.460  0.00  0.00    +0.000 A 
ATOM      4  C   UNL     1       2.406  -2.363  -0.048  0.00  0.00    +0.000 A 
ATOM      5  C   UNL     1       2.829  -3.619   0.396  0.00  0.00    +0.000 A 
ATOM      6  C   UNL     1       3.851  -3.737   1.346  0.00  0.00    +0.000 A 
ATOM      7  C   UNL     1       4.464  -2.571   1.820  0.00  0.00    +0.000 A 
ATOM      8  C   UNL     1       4.037  -1.312   1.380  0.00  0.00    +0.000 A 
BRANCH   6   9
ATOM      9  C   UNL     1       4.257  -5.098   1.869  0.00  0.00    +0.000 C 
BRANCH   9  10
ATOM     10  N   UNL     1       4.737  -5.959   0.794  0.00  0.00    +0.000 NA
ATOM     11  H   UNL     1       5.531  -5.515   0.334  0.00  0.00    +0.000 HD
BRANCH  10  12
ATOM     12  C   UNL     1       5.146  -7.270   1.295  0.00  0.00    +0.000 C 
BRANCH  12  13
ATOM     13  C   UNL     1       5.612  -8.157   0.163  0.00  0.00    +0.000 A 
ATOM     14  C   UNL     1       6.905  -8.700   0.154  0.00  0.00    +0.000 A 
ATOM     15  C   UNL     1       7.319  -9.525  -0.895  0.00  0.00    +0.000 A 
ATOM     16  C   UNL     1       6.447  -9.817  -1.943  0.00  0.00    +0.000 A 
ATOM     17  C   UNL     1       5.159  -9.287  -1.943  0.00  0.00    +0.000 A 
ATOM     18  C   UNL     1       4.744  -8.465  -0.895  0.00  0.00    +0.000 A 
ENDBRANCH  12  13
ENDBRANCH  10  12
ENDBRANCH   9  10
ENDBRANCH   6   9
ENDBRANCH   2   3
BRANCH   2  19
ATOM     19  N   UNL     1       3.459   0.876  -0.728  0.00  0.00    +0.000 N 
ATOM     20  C   UNL     1       3.173   1.769  -1.729  0.00  0.00    +0.000 C 
ATOM     21  O   UNL     1       2.051   1.910  -2.199  0.00  0.00    +0.000 OA
ATOM     22  H   UNL     1       4.354   0.948  -0.262  0.00  0.00    +0.000 HD
BRANCH  20  23
ATOM     23  C   UNL     1       4.326   2.523  -2.240  0.00  0.00    +0.000 A 
ATOM     24  C   UNL     1       4.344   2.980  -3.550  0.00  0.00    +0.000 A 
ATOM     25  S   UNL     1       5.783   3.802  -3.960  0.00  0.00    +0.000 S 
ATOM     26  C   UNL     1       6.408   3.615  -2.387  0.00  0.00    +0.000 A 
ATOM     27  N   UNL     1       7.623   4.120  -2.049  0.00  0.00    +0.000 NA
ATOM     28  C   UNL     1       7.959   3.922  -0.814  0.00  0.00    +0.000 A 
ATOM     29  N   UNL     1       7.198   3.263   0.128  0.00  0.00    +0.000 N 
ATOM     30  C   UNL     1       7.671   3.082   1.484  0.00  0.00    +0.000 C 
ATOM     31  C   UNL     1       5.962   2.717  -0.193  0.00  0.00    +0.000 A 
ATOM     32  O   UNL     1       5.292   2.084   0.621  0.00  0.00    +0.000 OA
ATOM     33  C   UNL     1       5.540   2.922  -1.567  0.00  0.00    +0.000 A 
ENDBRANCH  20  23
ENDBRANCH   2  19
TORSDOF 7
