REMARK  Name = 
REMARK  7 active torsions:
REMARK  status: ('A' for Active; 'I' for Inactive)
REMARK    1  A    between atoms: N_1  and  C_2
REMARK    2  A    between atoms: C_2  and  C_3
REMARK    3  A    between atoms: C_6  and  O_7
REMARK    4  A    between atoms: O_7  and  C_8
REMARK    5  A    between atoms: C_8  and  C_9
REMARK    6  A    between atoms: CA_13  and  C_14
REMARK    7  A    between atoms: C_14  and  OXT_16
REMARK                            x       y       z     vdW  Elec       q    Type
REMARK                         _______ _______ _______ _____ _____    ______ ____
ROOT
ATOM      1  O   UNL     1       3.919   4.995  -2.180  0.00  0.00    +0.000 OA
ENDROOT
BRANCH   1   5
ATOM      2  C   UNL     1       2.672   1.721   0.134  0.00  0.00    +0.000 A 
ATOM      3  C   UNL     1       2.717   3.002   0.698  0.00  0.00    +0.000 A 
ATOM      4  C   UNL     1       3.154   4.097  -0.047  0.00  0.00    +0.000 A 
ATOM      5  C   UNL     1       3.534   3.942  -1.384  0.00  0.00    +0.000 A 
ATOM      6  C   UNL     1       3.531   2.654  -1.942  0.00  0.00    +0.000 A 
ATOM      7 CL   UNL     1       4.035   2.378  -3.572  0.00  0.00    +0.000 Cl
ATOM      8  C   UNL     1       3.099   1.554  -1.191  0.00  0.00    +0.000 A 
BRANCH   2   9
ATOM      9  C   UNL     1       2.180   0.560   0.957  0.00  0.00    +0.000 C 
BRANCH   9  10
ATOM     10  N   UNL     1       0.800   0.767   1.382  0.00  0.00    +0.000 NA
ATOM     11  H   UNL     1       0.479  -0.054   1.890  0.00  0.00    +0.000 HD
ATOM     12  H   UNL     1       0.208   0.844   0.556  0.00  0.00    +0.000 HD
ENDBRANCH   9  10
ENDBRANCH   2   9
ENDBRANCH   1   5
BRANCH   1  13
ATOM     13  C   UNL     1       3.441   6.274  -1.766  0.00  0.00    +0.000 C 
BRANCH  13  14
ATOM     14  C   UNL     1       3.494   7.279  -2.891  0.00  0.00    +0.000 A 
ATOM     15  C   UNL     1       3.496   8.650  -2.597  0.00  0.00    +0.000 A 
ATOM     16  C   UNL     1       3.472   9.565  -3.641  0.00  0.00    +0.000 A 
ATOM     17  N   UNL     1       3.440   9.217  -4.944  0.00  0.00    +0.000 NA
ATOM     18  CA  UNL     1       3.425   7.874  -5.201  0.00  0.00    +0.000 A 
ATOM     19  C   UNL     1       3.444   6.886  -4.229  0.00  0.00    +0.000 A 
BRANCH  18  20
ATOM     20  C   UNL     1       3.365   7.498  -6.643  0.00  0.00    +0.000 C 
ATOM     21  O   UNL     1       3.312   6.360  -7.071  0.00  0.00    +0.000 OA
BRANCH  20  22
ATOM     22  OXT UNL     1       3.371   8.610  -7.419  0.00  0.00    +0.000 OA
ATOM     23  HXT UNL     1       3.412   9.400  -6.827  0.00  0.00    +0.000 HD
ENDBRANCH  20  22
ENDBRANCH  18  20
ENDBRANCH  13  14
ENDBRANCH   1  13
TORSDOF 7
