REMARK  Name = 
REMARK  7 active torsions:
REMARK  status: ('A' for Active; 'I' for Inactive)
REMARK    1  A    between atoms: C_2  and  C_4
REMARK    2  A    between atoms: C_7  and  N_8
REMARK    3  A    between atoms: N_8  and  C_9
REMARK    4  A    between atoms: C_9  and  C_10
REMARK    5  A    between atoms: C_10  and  C_11
REMARK    6  A    between atoms: C_15  and  O_16
REMARK    7  A    between atoms: O_16  and  C_17
REMARK                            x       y       z     vdW  Elec       q    Type
REMARK                         _______ _______ _______ _____ _____    ______ ____
ROOT
ATOM      1  N   UNL     1       5.399  -4.483   1.425  0.00  0.00    +0.000 N 
ATOM      2  H   UNL     1       5.584  -4.442   2.425  0.00  0.00    +0.000 HD
ENDROOT
BRANCH   1   6
ATOM      3  C   UNL     1       3.350  -1.079   0.165  0.00  0.00    +0.000 A 
ATOM      4  C   UNL     1       3.290  -2.204  -0.644  0.00  0.00    +0.000 A 
ATOM      5  C   UNL     1       3.952  -3.362  -0.227  0.00  0.00    +0.000 A 
ATOM      6  C   UNL     1       4.637  -3.393   0.989  0.00  0.00    +0.000 A 
ATOM      7  C   UNL     1       4.654  -2.186   1.705  0.00  0.00    +0.000 A 
ATOM      8  N   UNL     1       4.025  -1.037   1.345  0.00  0.00    +0.000 NA
BRANCH   3  10
ATOM      9  N   UNL     1       2.832   1.258   0.560  0.00  0.00    +0.000 N 
ATOM     10  C   UNL     1       2.669   0.182  -0.271  0.00  0.00    +0.000 C 
ATOM     11  O   UNL     1       2.017   0.262  -1.306  0.00  0.00    +0.000 OA
ATOM     12  H   UNL     1       2.429   2.148   0.311  0.00  0.00    +0.000 HD
ATOM     13  H   UNL     1       3.402   1.164   1.395  0.00  0.00    +0.000 HD
ENDBRANCH   3  10
ENDBRANCH   1   6
BRANCH   1  14
ATOM     14  C   UNL     1       5.053  -5.837   0.972  0.00  0.00    +0.000 C 
BRANCH  14  15
ATOM     15  C   UNL     1       6.025  -6.858   1.583  0.00  0.00    +0.000 C 
BRANCH  15  16
ATOM     16  C   UNL     1       5.766  -8.271   1.117  0.00  0.00    +0.000 A 
ATOM     17  C   UNL     1       6.365  -8.748  -0.056  0.00  0.00    +0.000 A 
ATOM     18  C   UNL     1       6.141 -10.059  -0.481  0.00  0.00    +0.000 A 
ATOM     19  C   UNL     1       5.308 -10.906   0.252  0.00  0.00    +0.000 A 
ATOM     20  C   UNL     1       4.691 -10.439   1.410  0.00  0.00    +0.000 A 
ATOM     21  C   UNL     1       4.927  -9.129   1.843  0.00  0.00    +0.000 A 
BRANCH  20  22
ATOM     22  O   UNL     1       3.874 -11.194   2.215  0.00  0.00    +0.000 OA
BRANCH  22  23
ATOM     23  C   UNL     1       3.183 -12.326   1.639  0.00  0.00    +0.000 C 
ATOM     24  C   UNL     1       2.049 -12.014   0.629  0.00  0.00    +0.000 C 
ATOM     25  C   UNL     1       1.194 -13.089   1.317  0.00  0.00    +0.000 C 
ATOM     26  C   UNL     1       2.094 -12.943   2.553  0.00  0.00    +0.000 C 
ENDBRANCH  22  23
ENDBRANCH  20  22
ENDBRANCH  15  16
ENDBRANCH  14  15
ENDBRANCH   1  14
TORSDOF 7
