REMARK  Name = 
REMARK  5 active torsions:
REMARK  status: ('A' for Active; 'I' for Inactive)
REMARK    1  A    between atoms: N_1  and  C_2
REMARK    2  A    between atoms: C_2  and  C_3
REMARK    3  A    between atoms: C_3  and  C_4
REMARK    4  A    between atoms: C_7  and  C_8
REMARK    5  A    between atoms: C_8  and  N_9
REMARK                            x       y       z     vdW  Elec       q    Type
REMARK                         _______ _______ _______ _____ _____    ______ ____
ROOT
ATOM      1  C   UNL     1       4.692  -0.443  -1.329  0.00  0.00    +0.000 A 
ATOM      2  C   UNL     1       5.427  -0.572  -2.514  0.00  0.00    +0.000 A 
ATOM      3  C   UNL     1       6.823  -0.528  -2.494  0.00  0.00    +0.000 A 
ATOM      4  C   UNL     1       7.515  -0.354  -1.283  0.00  0.00    +0.000 A 
ATOM      5  C   UNL     1       6.779  -0.233  -0.096  0.00  0.00    +0.000 A 
ATOM      6  C   UNL     1       5.381  -0.289  -0.121  0.00  0.00    +0.000 A 
ENDROOT
BRANCH   1   7
ATOM      7  C   UNL     1       3.182  -0.456  -1.355  0.00  0.00    +0.000 C 
BRANCH   7   8
ATOM      8  C   UNL     1       2.586  -1.859  -1.202  0.00  0.00    +0.000 C 
BRANCH   8   9
ATOM      9  N   UNL     1       1.125  -1.803  -1.232  0.00  0.00    +0.000 NA
ATOM     10  H   UNL     1       0.748  -2.745  -1.135  0.00  0.00    +0.000 HD
ATOM     11  H   UNL     1       0.814  -1.465  -2.142  0.00  0.00    +0.000 HD
ENDBRANCH   8   9
ENDBRANCH   7   8
ENDBRANCH   1   7
BRANCH   4  12
ATOM     12  C   UNL     1       9.022  -0.361  -1.250  0.00  0.00    +0.000 C 
BRANCH  12  13
ATOM     13  N   UNL     1       9.663   0.942  -1.389  0.00  0.00    +0.000 N 
ATOM     14  C   UNL     1       9.389   1.867  -2.362  0.00  0.00    +0.000 A 
ATOM     15  N   UNL     1      10.409   2.669  -2.577  0.00  0.00    +0.000 NA
ATOM     16  C   UNL     1      11.373   2.271  -1.686  0.00  0.00    +0.000 A 
ATOM     17  C   UNL     1      12.698   2.711  -1.546  0.00  0.00    +0.000 A 
ATOM     18  C   UNL     1      13.500   2.138  -0.551  0.00  0.00    +0.000 A 
ATOM     19  C   UNL     1      12.979   1.178   0.318  0.00  0.00    +0.000 A 
ATOM     20  C   UNL     1      11.664   0.717   0.187  0.00  0.00    +0.000 A 
ATOM     21  C   UNL     1      10.899   1.257  -0.856  0.00  0.00    +0.000 A 
ENDBRANCH  12  13
ENDBRANCH   4  12
TORSDOF 5
