REMARK  Name = 
REMARK  4 active torsions:
REMARK  status: ('A' for Active; 'I' for Inactive)
REMARK    1  A    between atoms: C_2  and  C_4
REMARK    2  A    between atoms: N_8  and  C_9
REMARK    3  A    between atoms: C_9  and  C_10
REMARK    4  A    between atoms: C_12  and  C_13
REMARK                            x       y       z     vdW  Elec       q    Type
REMARK                         _______ _______ _______ _____ _____    ______ ____
ROOT
ATOM      1  C   UNL     1       6.047   4.613   2.626  0.00  0.00    +0.000 C 
ATOM      2  C   UNL     1       6.041   5.625   1.484  0.00  0.00    +0.000 C 
ATOM      3  C   UNL     1       6.905   4.411   1.389  0.00  0.00    +0.000 C 
ENDROOT
BRANCH   1   8
ATOM      4  C   UNL     1       4.176  -0.146   3.072  0.00  0.00    +0.000 A 
ATOM      5  C   UNL     1       3.437   0.770   3.779  0.00  0.00    +0.000 A 
ATOM      6  N   UNL     1       3.668   2.099   3.745  0.00  0.00    +0.000 NA
ATOM      7  C   UNL     1       4.699   2.526   2.996  0.00  0.00    +0.000 A 
ATOM      8  N   UNL     1       4.778   3.905   2.845  0.00  0.00    +0.000 N 
ATOM      9  N   UNL     1       5.538   1.698   2.350  0.00  0.00    +0.000 NA
ATOM     10  C   UNL     1       5.255   0.372   2.397  0.00  0.00    +0.000 A 
ATOM     11  H   UNL     1       4.148   4.314   3.526  0.00  0.00    +0.000 HD
BRANCH   4  13
ATOM     12  N   UNL     1       2.526  -1.922   3.138  0.00  0.00    +0.000 N 
ATOM     13  C   UNL     1       3.843  -1.578   3.009  0.00  0.00    +0.000 C 
ATOM     14  O   UNL     1       4.710  -2.415   2.792  0.00  0.00    +0.000 OA
ATOM     15  H   UNL     1       2.297  -2.895   2.962  0.00  0.00    +0.000 HD
ATOM     16  H   UNL     1       1.768  -1.255   3.057  0.00  0.00    +0.000 HD
ENDBRANCH   4  13
ENDBRANCH   1   8
BRANCH   1  17
ATOM     17  C   UNL     1       6.775   5.022   3.910  0.00  0.00    +0.000 A 
ATOM     18  C   UNL     1       7.660   4.134   4.527  0.00  0.00    +0.000 A 
ATOM     19  C   UNL     1       8.478   4.547   5.589  0.00  0.00    +0.000 A 
ATOM     20  C   UNL     1       8.314   5.866   6.026  0.00  0.00    +0.000 A 
ATOM     21  C   UNL     1       7.365   6.673   5.422  0.00  0.00    +0.000 A 
ATOM     22  N   UNL     1       6.598   6.280   4.388  0.00  0.00    +0.000 NA
BRANCH  19  23
ATOM     23  C   UNL     1       9.495   3.645   6.182  0.00  0.00    +0.000 A 
ATOM     24  C   UNL     1      10.114   2.632   5.419  0.00  0.00    +0.000 A 
ATOM     25  C   UNL     1      11.091   1.796   5.968  0.00  0.00    +0.000 A 
ATOM     26  C   UNL     1      11.474   1.968   7.288  0.00  0.00    +0.000 A 
ATOM     27  F   UNL     1      12.421   1.179   7.811  0.00  0.00    +0.000 F 
ATOM     28  C   UNL     1      10.891   2.951   8.072  0.00  0.00    +0.000 A 
ATOM     29  C   UNL     1       9.903   3.776   7.525  0.00  0.00    +0.000 A 
ENDBRANCH  19  23
ENDBRANCH   1  17
TORSDOF 4
