REMARK  Name = 
REMARK  3 active torsions:
REMARK  status: ('A' for Active; 'I' for Inactive)
REMARK    1  A    between atoms: C_2  and  C_4
REMARK    2  A    between atoms: N_8  and  C_9
REMARK    3  A    between atoms: C_9  and  C_10
REMARK                            x       y       z     vdW  Elec       q    Type
REMARK                         _______ _______ _______ _____ _____    ______ ____
ROOT
ATOM      1  C   UNL     1       3.069  -3.609  -0.207  0.00  0.00    +0.000 A 
ATOM      2  C   UNL     1       2.363  -3.503  -1.401  0.00  0.00    +0.000 A 
ATOM      3  C   UNL     1       3.063  -3.288  -2.591  0.00  0.00    +0.000 A 
ATOM      4  C   UNL     1       4.448  -3.174  -2.566  0.00  0.00    +0.000 A 
ATOM      5  N   UNL     1       5.220  -2.888  -3.694  0.00  0.00    +0.000 N 
ATOM      6  N   UNL     1       5.138  -3.252  -1.408  0.00  0.00    +0.000 NA
ATOM      7  C   UNL     1       4.445  -3.461  -0.259  0.00  0.00    +0.000 A 
ATOM      8  H   UNL     1       6.190  -2.929  -3.389  0.00  0.00    +0.000 HD
ENDROOT
BRANCH   1  10
ATOM      9  N   UNL     1       1.220  -4.507   1.086  0.00  0.00    +0.000 N 
ATOM     10  C   UNL     1       2.419  -3.849   1.100  0.00  0.00    +0.000 C 
ATOM     11  O   UNL     1       2.946  -3.512   2.148  0.00  0.00    +0.000 OA
ATOM     12  H   UNL     1       0.839  -4.762   1.990  0.00  0.00    +0.000 HD
ATOM     13  H   UNL     1       0.887  -5.018   0.281  0.00  0.00    +0.000 HD
ENDBRANCH   1  10
BRANCH   5  14
ATOM     14  C   UNL     1       4.938  -3.342  -5.063  0.00  0.00    +0.000 C 
ATOM     15  C   UNL     1       5.101  -2.261  -6.129  0.00  0.00    +0.000 C 
ATOM     16  C   UNL     1       3.755  -2.850  -5.881  0.00  0.00    +0.000 C 
BRANCH  14  17
ATOM     17  C   UNL     1       5.465  -4.741  -5.389  0.00  0.00    +0.000 A 
ATOM     18  C   UNL     1       4.669  -5.886  -5.186  0.00  0.00    +0.000 A 
ATOM     19  C   UNL     1       5.113  -7.159  -5.555  0.00  0.00    +0.000 A 
ATOM     20  C   UNL     1       6.369  -7.305  -6.127  0.00  0.00    +0.000 A 
ATOM     21  F   UNL     1       6.786  -8.520  -6.506  0.00  0.00    +0.000 F 
ATOM     22  C   UNL     1       7.195  -6.207  -6.316  0.00  0.00    +0.000 A 
ATOM     23  C   UNL     1       6.747  -4.937  -5.939  0.00  0.00    +0.000 A 
ENDBRANCH  14  17
ENDBRANCH   5  14
TORSDOF 3
