REMARK  Name = 
REMARK  7 active torsions:
REMARK  status: ('A' for Active; 'I' for Inactive)
REMARK    1  A    between atoms: C_1  and  C_2
REMARK    2  A    between atoms: C_2  and  N_3
REMARK    3  A    between atoms: C_2  and  C_16
REMARK    4  A    between atoms: C_4  and  C_6
REMARK    5  A    between atoms: C_19  and  O_20
REMARK    6  A    between atoms: O_20  and  C_21
REMARK    7  A    between atoms: C_21  and  C_22
REMARK                            x       y       z     vdW  Elec       q    Type
REMARK                         _______ _______ _______ _____ _____    ______ ____
ROOT
ATOM      1  C   UNL     1       3.547  -0.776   0.459  0.00  0.00    +0.000 C 
ATOM      2  C   UNL     1       2.439   0.169  -0.016  0.00  0.00    +0.000 C 
ENDROOT
BRANCH   2   3
ATOM      3  C   UNL     1       2.944   1.524  -0.478  0.00  0.00    +0.000 A 
ATOM      4  C   UNL     1       2.115   2.640  -0.295  0.00  0.00    +0.000 A 
ATOM      5  C   UNL     1       2.540   3.920  -0.656  0.00  0.00    +0.000 A 
ATOM      6  C   UNL     1       3.802   4.110  -1.210  0.00  0.00    +0.000 A 
ATOM      7  C   UNL     1       4.611   3.003  -1.463  0.00  0.00    +0.000 A 
ATOM      8  C   UNL     1       4.185   1.720  -1.101  0.00  0.00    +0.000 A 
BRANCH   6   9
ATOM      9  O   UNL     1       4.318   5.329  -1.573  0.00  0.00    +0.000 OA
BRANCH   9  10
ATOM     10  C   UNL     1       3.864   6.423  -0.764  0.00  0.00    +0.000 C 
BRANCH  10  11
ATOM     11  C   UNL     1       4.515   7.731  -1.153  0.00  0.00    +0.000 A 
ATOM     12  C   UNL     1       5.788   7.782  -1.713  0.00  0.00    +0.000 A 
ATOM     13  C   UNL     1       6.337   9.023  -2.026  0.00  0.00    +0.000 A 
ATOM     14  C   UNL     1       5.610  10.178  -1.761  0.00  0.00    +0.000 A 
ATOM     15  C   UNL     1       4.359  10.045  -1.188  0.00  0.00    +0.000 A 
ATOM     16  N   UNL     1       3.802   8.856  -0.875  0.00  0.00    +0.000 NA
ENDBRANCH  10  11
ENDBRANCH   9  10
ENDBRANCH   6   9
ENDBRANCH   2   3
BRANCH   2  17
ATOM     17  N   UNL     1       1.677  -0.468  -1.068  0.00  0.00    +0.000 N 
ATOM     18  C   UNL     1       0.319  -0.361  -1.206  0.00  0.00    +0.000 C 
ATOM     19  O   UNL     1      -0.378   0.347  -0.485  0.00  0.00    +0.000 OA
ATOM     20  H   UNL     1       2.189  -1.092  -1.678  0.00  0.00    +0.000 HD
BRANCH  18  21
ATOM     21  C   UNL     1      -0.258  -1.141  -2.307  0.00  0.00    +0.000 A 
ATOM     22  C   UNL     1      -1.432  -0.732  -2.921  0.00  0.00    +0.000 A 
ATOM     23  S   UNL     1      -1.931  -1.763  -4.187  0.00  0.00    +0.000 S 
ATOM     24  C   UNL     1      -0.625  -2.821  -3.918  0.00  0.00    +0.000 A 
ATOM     25  N   UNL     1      -0.473  -3.954  -4.656  0.00  0.00    +0.000 NA
ATOM     26  C   UNL     1       0.535  -4.684  -4.312  0.00  0.00    +0.000 A 
ATOM     27  N   UNL     1       1.412  -4.382  -3.303  0.00  0.00    +0.000 N 
ATOM     28  C   UNL     1       1.339  -3.217  -2.579  0.00  0.00    +0.000 A 
ATOM     29  O   UNL     1       2.214  -2.924  -1.772  0.00  0.00    +0.000 OA
ATOM     30  C   UNL     1       0.197  -2.379  -2.897  0.00  0.00    +0.000 A 
ATOM     31  H   UNL     1       2.199  -4.979  -3.102  0.00  0.00    +0.000 HD
ENDBRANCH  18  21
ENDBRANCH   2  17
TORSDOF 6
