REMARK  Name = 
REMARK  8 active torsions:
REMARK  status: ('A' for Active; 'I' for Inactive)
REMARK    1  A    between atoms: C_1  and  C_2
REMARK    2  A    between atoms: C_2  and  C_3
REMARK    3  A    between atoms: C_2  and  N_4
REMARK    4  A    between atoms: C_2  and  C_5
REMARK    5  A    between atoms: C_5  and  C_6
REMARK    6  A    between atoms: C_9  and  C_10
REMARK    7  A    between atoms: C_10  and  N_11
REMARK    8  A    between atoms: C_17  and  C_18
REMARK                            x       y       z     vdW  Elec       q    Type
REMARK                         _______ _______ _______ _____ _____    ______ ____
ROOT
ATOM      1  N   UNL     1       9.430   0.903   2.711  0.00  0.00    +0.000 N 
ATOM      2  C   UNL     1       9.736  -0.206   3.446  0.00  0.00    +0.000 A 
ATOM      3  N   UNL     1      10.345   0.106   4.564  0.00  0.00    +0.000 NA
ATOM      4  C   UNL     1      10.451   1.481   4.564  0.00  0.00    +0.000 A 
ATOM      5  C   UNL     1      11.043   2.357   5.489  0.00  0.00    +0.000 A 
ATOM      6 CL   UNL     1      11.762   1.607   6.841  0.00  0.00    +0.000 Cl
ATOM      7  C   UNL     1      10.994   3.710   5.178  0.00  0.00    +0.000 A 
ATOM      8  N   UNL     1      10.399   4.214   4.044  0.00  0.00    +0.000 NA
ATOM      9  C   UNL     1       9.830   3.368   3.156  0.00  0.00    +0.000 A 
ATOM     10  C   UNL     1       9.866   2.006   3.412  0.00  0.00    +0.000 A 
ENDROOT
BRANCH   7  11
ATOM     11  C   UNL     1      11.620   4.759   6.059  0.00  0.00    +0.000 C 
ATOM     12  N   UNL     1      11.505   6.051   5.620  0.00  0.00    +0.000 N 
ATOM     13  O   UNL     1      12.207   4.528   7.103  0.00  0.00    +0.000 OA
ATOM     14  H   UNL     1      11.018   6.254   4.755  0.00  0.00    +0.000 HD
ATOM     15  H   UNL     1      11.910   6.797   6.167  0.00  0.00    +0.000 HD
ENDBRANCH   7  11
BRANCH   1  16
ATOM     16  C   UNL     1       8.897   0.882   1.359  0.00  0.00    +0.000 C 
BRANCH  16  20
ATOM     17  C   UNL     1       4.573   0.673   1.216  0.00  0.00    +0.000 A 
ATOM     18  C   UNL     1       5.222   1.914   1.242  0.00  0.00    +0.000 A 
ATOM     19  C   UNL     1       6.618   1.990   1.298  0.00  0.00    +0.000 A 
ATOM     20  C   UNL     1       7.392   0.822   1.333  0.00  0.00    +0.000 A 
ATOM     21  C   UNL     1       6.738  -0.419   1.332  0.00  0.00    +0.000 A 
ATOM     22  C   UNL     1       5.345  -0.491   1.278  0.00  0.00    +0.000 A 
BRANCH  17  23
ATOM     23  C   UNL     1       3.063   0.598   1.119  0.00  0.00    +0.000 C 
BRANCH  23  25
ATOM     24  C   UNL     1       0.928   0.478  -0.206  0.00  0.00    +0.000 C 
ATOM     25  C   UNL     1       2.462   0.546  -0.319  0.00  0.00    +0.000 C 
ATOM     26  C   UNL     1       2.951  -0.677  -1.112  0.00  0.00    +0.000 C 
BRANCH  25  27
ATOM     27  N   UNL     1       2.788   1.767  -1.076  0.00  0.00    +0.000 NA
ATOM     28  H   UNL     1       2.479   1.666  -2.043  0.00  0.00    +0.000 HD
ATOM     29  H   UNL     1       3.803   1.869  -1.122  0.00  0.00    +0.000 HD
ENDBRANCH  25  27
ENDBRANCH  23  25
ENDBRANCH  17  23
ENDBRANCH  16  20
ENDBRANCH   1  16
TORSDOF 6
