REMARK  Name = 
REMARK  10 active torsions:
REMARK  status: ('A' for Active; 'I' for Inactive)
REMARK    1  A    between atoms: C_1  and  C_2
REMARK    2  A    between atoms: C_2  and  N_3
REMARK    3  A    between atoms: C_2  and  C_19
REMARK    4  A    between atoms: N_3  and  C_4
REMARK    5  A    between atoms: C_4  and  C_5
REMARK    6  A    between atoms: C_8  and  C_9
REMARK    7  A    between atoms: C_9  and  O_10
REMARK    8  A    between atoms: C_9  and  C_11
REMARK    9  A    between atoms: C_11  and  N_12
REMARK   10  A    between atoms: C_19  and  C_21
REMARK                            x       y       z     vdW  Elec       q    Type
REMARK                         _______ _______ _______ _____ _____    ______ ____
ROOT
ATOM      1  N   UNL     1      -0.377 -10.218  -6.823  0.00  0.00    +0.000 NA
ATOM      2  H   UNL     1       0.305  -9.893  -7.510  0.00  0.00    +0.000 HD
ENDROOT
BRANCH   1   4
ATOM      3  C   UNL     1      -2.133 -10.199  -8.620  0.00  0.00    +0.000 C 
ATOM      4  C   UNL     1      -1.416 -11.011  -7.538  0.00  0.00    +0.000 C 
BRANCH   4   5
ATOM      5  C   UNL     1      -2.433 -11.730  -6.609  0.00  0.00    +0.000 C 
ATOM      6  O   UNL     1      -3.630 -11.439  -6.647  0.00  0.00    +0.000 OA
BRANCH   5   7
ATOM      7  C   UNL     1      -1.972 -12.775  -5.673  0.00  0.00    +0.000 A 
ATOM      8  C   UNL     1      -0.714 -12.799  -5.099  0.00  0.00    +0.000 A 
ATOM      9  S   UNL     1      -0.553 -13.978  -3.870  0.00  0.00    +0.000 S 
ATOM     10  C   UNL     1      -2.144 -14.523  -4.106  0.00  0.00    +0.000 A 
ATOM     11  N   UNL     1      -2.693 -15.491  -3.322  0.00  0.00    +0.000 NA
ATOM     12  C   UNL     1      -3.921 -15.776  -3.612  0.00  0.00    +0.000 A 
ATOM     13  N   UNL     1      -4.636 -15.212  -4.637  0.00  0.00    +0.000 N 
ATOM     14  C   UNL     1      -4.044 -14.384  -5.580  0.00  0.00    +0.000 A 
ATOM     15  O   UNL     1      -4.531 -14.245  -6.696  0.00  0.00    +0.000 OA
ATOM     16  C   UNL     1      -2.757 -13.879  -5.170  0.00  0.00    +0.000 A 
ATOM     17  H   UNL     1      -5.543 -15.577  -4.885  0.00  0.00    +0.000 HD
ENDBRANCH   5   7
ENDBRANCH   4   5
ENDBRANCH   1   4
BRANCH   1  18
ATOM     18  C   UNL     1      -0.860  -9.043  -6.086  0.00  0.00    +0.000 C 
BRANCH  18  19
ATOM     19  C   UNL     1       0.289  -8.323  -5.392  0.00  0.00    +0.000 A 
ATOM     20  C   UNL     1       1.007  -7.303  -6.035  0.00  0.00    +0.000 A 
ATOM     21  C   UNL     1       2.116  -6.693  -5.419  0.00  0.00    +0.000 A 
ATOM     22  C   UNL     1       2.569  -7.116  -4.158  0.00  0.00    +0.000 A 
ATOM     23  C   UNL     1       1.812  -8.098  -3.498  0.00  0.00    +0.000 A 
ATOM     24  C   UNL     1       0.689  -8.687  -4.102  0.00  0.00    +0.000 A 
BRANCH  22  25
ATOM     25  C   UNL     1       3.938  -6.657  -3.642  0.00  0.00    +0.000 C 
BRANCH  25  26
ATOM     26  O   UNL     1       4.894  -7.557  -4.216  0.00  0.00    +0.000 OA
ATOM     27  H   UNL     1       4.474  -8.434  -4.265  0.00  0.00    +0.000 HD
ENDBRANCH  25  26
BRANCH  25  28
ATOM     28  C   UNL     1       4.078  -6.647  -2.082  0.00  0.00    +0.000 C 
BRANCH  28  29
ATOM     29  N   UNL     1       5.326  -6.118  -1.470  0.00  0.00    +0.000 NA
ATOM     30  C   UNL     1       5.222  -6.172   0.003  0.00  0.00    +0.000 C 
ATOM     31  C   UNL     1       5.683  -7.571   0.391  0.00  0.00    +0.000 C 
ATOM     32  O   UNL     1       6.450  -8.056  -0.716  0.00  0.00    +0.000 OA
ATOM     33  C   UNL     1       6.489  -6.989  -1.668  0.00  0.00    +0.000 C 
ENDBRANCH  28  29
ENDBRANCH  25  28
ENDBRANCH  22  25
ENDBRANCH  18  19
ENDBRANCH   1  18
TORSDOF 9
