REMARK  Name = 
REMARK  5 active torsions:
REMARK  status: ('A' for Active; 'I' for Inactive)
REMARK    1  A    between atoms: C_2  and  O_3
REMARK    2  A    between atoms: C_2  and  C_4
REMARK    3  A    between atoms: C_7  and  O_8
REMARK    4  A    between atoms: O_8  and  C_9
REMARK    5  A    between atoms: C_9  and  C_10
REMARK                            x       y       z     vdW  Elec       q    Type
REMARK                         _______ _______ _______ _____ _____    ______ ____
ROOT
ATOM      1  C   UNL     1       2.801  -1.411   0.296  0.00  0.00    +0.000 A 
ATOM      2  C   UNL     1       3.405  -0.951   1.471  0.00  0.00    +0.000 A 
ATOM      3  C   UNL     1       4.312  -1.779   2.136  0.00  0.00    +0.000 A 
ATOM      4  C   UNL     1       4.553  -3.045   1.623  0.00  0.00    +0.000 A 
ATOM      5  N   UNL     1       3.982  -3.515   0.494  0.00  0.00    +0.000 NA
ATOM      6  C   UNL     1       3.114  -2.691  -0.142  0.00  0.00    +0.000 A 
ENDROOT
BRANCH   1   8
ATOM      7  O   UNL     1       0.902  -1.164  -1.090  0.00  0.00    +0.000 OA
ATOM      8  C   UNL     1       1.808  -0.637  -0.471  0.00  0.00    +0.000 C 
BRANCH   8   9
ATOM      9  O   UNL     1       2.021   0.695  -0.453  0.00  0.00    +0.000 OA
ATOM     10  H   UNL     1       2.872   0.986  -0.078  0.00  0.00    +0.000 HD
ENDBRANCH   8   9
ENDBRANCH   1   8
BRANCH   4  11
ATOM     11  O   UNL     1       5.446  -3.838   2.312  0.00  0.00    +0.000 OA
BRANCH  11  12
ATOM     12  C   UNL     1       5.244  -5.229   2.037  0.00  0.00    +0.000 C 
BRANCH  12  13
ATOM     13  C   UNL     1       6.255  -6.063   2.780  0.00  0.00    +0.000 A 
ATOM     14  C   UNL     1       7.583  -5.662   2.949  0.00  0.00    +0.000 A 
ATOM     15  C   UNL     1       8.484  -6.505   3.595  0.00  0.00    +0.000 A 
ATOM     16  C   UNL     1       8.028  -7.734   4.042  0.00  0.00    +0.000 A 
ATOM     17  N   UNL     1       6.760  -8.167   3.881  0.00  0.00    +0.000 NA
ATOM     18  C   UNL     1       5.908  -7.327   3.250  0.00  0.00    +0.000 A 
ENDBRANCH  12  13
ENDBRANCH  11  12
ENDBRANCH   4  11
TORSDOF 5
