REMARK  Name = 
REMARK  5 active torsions:
REMARK  status: ('A' for Active; 'I' for Inactive)
REMARK    1  A    between atoms: C_2  and  C_4
REMARK    2  A    between atoms: C_7  and  N_8
REMARK    3  A    between atoms: N_8  and  C_9
REMARK    4  A    between atoms: C_9  and  C_10
REMARK    5  A    between atoms: C_14  and  C_15
REMARK                            x       y       z     vdW  Elec       q    Type
REMARK                         _______ _______ _______ _____ _____    ______ ____
ROOT
ATOM      1  N   UNL     1       5.603   2.530   3.913  0.00  0.00    +0.000 N 
ATOM      2  H   UNL     1       6.072   3.316   3.473  0.00  0.00    +0.000 HD
ENDROOT
BRANCH   1   6
ATOM      3  C   UNL     1       3.566  -0.037   1.247  0.00  0.00    +0.000 A 
ATOM      4  C   UNL     1       2.972   0.306   2.461  0.00  0.00    +0.000 A 
ATOM      5  C   UNL     1       3.626   1.175   3.335  0.00  0.00    +0.000 A 
ATOM      6  C   UNL     1       4.866   1.748   3.018  0.00  0.00    +0.000 A 
ATOM      7  C   UNL     1       5.445   1.397   1.791  0.00  0.00    +0.000 A 
ATOM      8  C   UNL     1       4.808   0.508   0.914  0.00  0.00    +0.000 A 
BRANCH   3  10
ATOM      9  N   UNL     1       1.573  -1.131   0.369  0.00  0.00    +0.000 N 
ATOM     10  C   UNL     1       2.935  -1.022   0.334  0.00  0.00    +0.000 C 
ATOM     11  O   UNL     1       3.600  -1.700  -0.440  0.00  0.00    +0.000 OA
ATOM     12  H   UNL     1       1.151  -1.754  -0.308  0.00  0.00    +0.000 HD
ATOM     13  H   UNL     1       0.984  -0.433   0.802  0.00  0.00    +0.000 HD
ENDBRANCH   3  10
ENDBRANCH   1   6
BRANCH   1  14
ATOM     14  C   UNL     1       5.028   2.825   5.217  0.00  0.00    +0.000 C 
BRANCH  14  15
ATOM     15  C   UNL     1       5.935   3.671   6.071  0.00  0.00    +0.000 A 
ATOM     16  C   UNL     1       5.500   4.910   6.548  0.00  0.00    +0.000 A 
ATOM     17  C   UNL     1       6.281   5.628   7.446  0.00  0.00    +0.000 A 
ATOM     18  C   UNL     1       7.502   5.108   7.884  0.00  0.00    +0.000 A 
ATOM     19  C   UNL     1       7.975   3.862   7.430  0.00  0.00    +0.000 A 
ATOM     20  C   UNL     1       7.178   3.171   6.498  0.00  0.00    +0.000 A 
BRANCH  19  21
ATOM     21  C   UNL     1       9.233   3.285   7.947  0.00  0.00    +0.000 A 
ATOM     22  C   UNL     1      10.069   2.477   7.164  0.00  0.00    +0.000 A 
ATOM     23  C   UNL     1      11.243   1.942   7.692  0.00  0.00    +0.000 A 
ATOM     24  C   UNL     1      11.564   2.228   9.003  0.00  0.00    +0.000 A 
ATOM     25  N   UNL     1      10.797   2.991   9.809  0.00  0.00    +0.000 NA
ATOM     26  C   UNL     1       9.657   3.486   9.265  0.00  0.00    +0.000 A 
ENDBRANCH  19  21
ENDBRANCH  14  15
ENDBRANCH   1  14
TORSDOF 5
