REMARK  Name = 
REMARK  6 active torsions:
REMARK  status: ('A' for Active; 'I' for Inactive)
REMARK    1  A    between atoms: C_2  and  C_4
REMARK    2  A    between atoms: C_7  and  N_8
REMARK    3  A    between atoms: N_8  and  CA_9
REMARK    4  A    between atoms: CA_9  and  C_10
REMARK    5  A    between atoms: CA_9  and  C_12
REMARK    6  A    between atoms: C_10  and  O_11
REMARK                            x       y       z     vdW  Elec       q    Type
REMARK                         _______ _______ _______ _____ _____    ______ ____
ROOT
ATOM      1  N   UNL     1       5.483   3.135   3.592  0.00  0.00    +0.000 N 
ATOM      2  H   UNL     1       6.479   3.060   3.416  0.00  0.00    +0.000 HD
ENDROOT
BRANCH   1   6
ATOM      3  C   UNL     1       2.920   3.851   0.322  0.00  0.00    +0.000 A 
ATOM      4  C   UNL     1       2.887   4.709   1.422  0.00  0.00    +0.000 A 
ATOM      5  C   UNL     1       3.770   4.511   2.493  0.00  0.00    +0.000 A 
ATOM      6  C   UNL     1       4.692   3.457   2.498  0.00  0.00    +0.000 A 
ATOM      7  C   UNL     1       4.753   2.644   1.358  0.00  0.00    +0.000 A 
ATOM      8  C   UNL     1       3.865   2.823   0.287  0.00  0.00    +0.000 A 
BRANCH   3  10
ATOM      9  N   UNL     1       1.366   5.180  -1.015  0.00  0.00    +0.000 N 
ATOM     10  C   UNL     1       1.937   3.957  -0.790  0.00  0.00    +0.000 C 
ATOM     11  O   UNL     1       1.653   2.995  -1.490  0.00  0.00    +0.000 OA
ATOM     12  H   UNL     1       0.755   5.249  -1.818  0.00  0.00    +0.000 HD
ATOM     13  H   UNL     1       1.734   6.036  -0.626  0.00  0.00    +0.000 HD
ENDBRANCH   3  10
ENDBRANCH   1   6
BRANCH   1  14
ATOM     14  CA  UNL     1       5.066   3.420   4.970  0.00  0.00    +0.000 C 
BRANCH  14  15
ATOM     15  C   UNL     1       5.988   4.416   5.656  0.00  0.00    +0.000 A 
ATOM     16  C   UNL     1       5.460   5.624   6.144  0.00  0.00    +0.000 A 
ATOM     17  C   UNL     1       6.244   6.497   6.902  0.00  0.00    +0.000 A 
ATOM     18  C   UNL     1       7.571   6.181   7.176  0.00  0.00    +0.000 A 
ATOM     19  C   UNL     1       8.123   5.007   6.671  0.00  0.00    +0.000 A 
ATOM     20  C   UNL     1       7.340   4.134   5.910  0.00  0.00    +0.000 A 
ENDBRANCH  14  15
BRANCH  14  21
ATOM     21  C   UNL     1       4.930   2.089   5.763  0.00  0.00    +0.000 C 
BRANCH  21  22
ATOM     22  O   UNL     1       6.120   1.300   5.769  0.00  0.00    +0.000 OA
ATOM     23  H   UNL     1       6.317   1.118   4.833  0.00  0.00    +0.000 HD
ENDBRANCH  21  22
ENDBRANCH  14  21
ENDBRANCH   1  14
TORSDOF 6
