REMARK  Name = 
REMARK  5 active torsions:
REMARK  status: ('A' for Active; 'I' for Inactive)
REMARK    1  A    between atoms: C_2  and  C_4
REMARK    2  A    between atoms: C_7  and  O_8
REMARK    3  A    between atoms: O_8  and  C_9
REMARK    4  A    between atoms: C_9  and  C_10
REMARK    5  A    between atoms: C_12  and  C_13
REMARK                            x       y       z     vdW  Elec       q    Type
REMARK                         _______ _______ _______ _____ _____    ______ ____
ROOT
ATOM      1  C   UNL     1       4.464   5.329  -3.158  0.00  0.00    +0.000 C 
ENDROOT
BRANCH   1   2
ATOM      2  C   UNL     1       5.222   6.208  -4.128  0.00  0.00    +0.000 A 
ATOM      3  C   UNL     1       6.589   6.035  -4.341  0.00  0.00    +0.000 A 
ATOM      4  C   UNL     1       7.288   6.892  -5.205  0.00  0.00    +0.000 A 
ATOM      5  C   UNL     1       6.550   7.919  -5.808  0.00  0.00    +0.000 A 
ATOM      6  C   UNL     1       5.199   8.042  -5.528  0.00  0.00    +0.000 A 
ATOM      7  N   UNL     1       4.524   7.216  -4.704  0.00  0.00    +0.000 NA
BRANCH   4   8
ATOM      8  C   UNL     1       8.735   6.716  -5.454  0.00  0.00    +0.000 A 
ATOM      9  C   UNL     1       9.346   5.453  -5.452  0.00  0.00    +0.000 A 
ATOM     10  C   UNL     1      10.717   5.321  -5.674  0.00  0.00    +0.000 A 
ATOM     11  C   UNL     1      11.456   6.465  -5.909  0.00  0.00    +0.000 A 
ATOM     12  N   UNL     1      10.924   7.703  -5.929  0.00  0.00    +0.000 NA
ATOM     13  C   UNL     1       9.590   7.795  -5.698  0.00  0.00    +0.000 A 
ENDBRANCH   4   8
ENDBRANCH   1   2
BRANCH   1  14
ATOM     14  O   UNL     1       5.012   4.007  -3.094  0.00  0.00    +0.000 OA
BRANCH  14  18
ATOM     15  C   UNL     1       3.342   1.204  -0.494  0.00  0.00    +0.000 A 
ATOM     16  C   UNL     1       2.783   2.485  -0.545  0.00  0.00    +0.000 A 
ATOM     17  C   UNL     1       3.316   3.451  -1.403  0.00  0.00    +0.000 A 
ATOM     18  C   UNL     1       4.414   3.149  -2.211  0.00  0.00    +0.000 A 
ATOM     19  C   UNL     1       4.985   1.874  -2.142  0.00  0.00    +0.000 A 
ATOM     20  C   UNL     1       4.457   0.905  -1.282  0.00  0.00    +0.000 A 
BRANCH  15  22
ATOM     21  N   UNL     1       1.455   0.239   0.700  0.00  0.00    +0.000 N 
ATOM     22  C   UNL     1       2.787   0.155   0.398  0.00  0.00    +0.000 C 
ATOM     23  O   UNL     1       3.475  -0.765   0.819  0.00  0.00    +0.000 OA
ATOM     24  H   UNL     1       1.063  -0.533   1.222  0.00  0.00    +0.000 HD
ATOM     25  H   UNL     1       0.817   0.819   0.174  0.00  0.00    +0.000 HD
ENDBRANCH  15  22
ENDBRANCH  14  18
ENDBRANCH   1  14
TORSDOF 5
