REMARK  Name = 
REMARK  5 active torsions:
REMARK  status: ('A' for Active; 'I' for Inactive)
REMARK    1  A    between atoms: C_2  and  C_4
REMARK    2  A    between atoms: C_7  and  N_8
REMARK    3  A    between atoms: N_8  and  C_9
REMARK    4  A    between atoms: C_9  and  C_10
REMARK    5  A    between atoms: C_15  and  N_16
REMARK                            x       y       z     vdW  Elec       q    Type
REMARK                         _______ _______ _______ _____ _____    ______ ____
ROOT
ATOM      1  C   UNL     1       5.049  -4.310  -4.294  0.00  0.00    +0.000 C 
ATOM      2  C   UNL     1       4.960  -3.546  -5.608  0.00  0.00    +0.000 C 
ATOM      3  C   UNL     1       3.716  -4.089  -4.997  0.00  0.00    +0.000 C 
ENDROOT
BRANCH   1   4
ATOM      4  C   UNL     1       5.527  -5.760  -4.286  0.00  0.00    +0.000 A 
ATOM      5  C   UNL     1       4.791  -6.771  -3.646  0.00  0.00    +0.000 A 
ATOM      6  C   UNL     1       5.159  -8.111  -3.763  0.00  0.00    +0.000 A 
ATOM      7  C   UNL     1       6.265  -8.455  -4.534  0.00  0.00    +0.000 A 
ATOM      8  F   UNL     1       6.576  -9.758  -4.638  0.00  0.00    +0.000 F 
ATOM      9  C   UNL     1       7.057  -7.487  -5.168  0.00  0.00    +0.000 A 
ATOM     10  C   UNL     1       6.680  -6.147  -4.991  0.00  0.00    +0.000 A 
BRANCH   9  11
ATOM     11  N   UNL     1       8.123  -7.783  -5.993  0.00  0.00    +0.000 N 
ATOM     12  C   UNL     1       8.109  -8.929  -6.904  0.00  0.00    +0.000 C 
ATOM     13  C   UNL     1       9.256  -9.888  -6.568  0.00  0.00    +0.000 C 
ATOM     14  O   UNL     1      10.522  -9.203  -6.548  0.00  0.00    +0.000 OA
ATOM     15  C   UNL     1      10.508  -8.163  -5.554  0.00  0.00    +0.000 C 
ATOM     16  C   UNL     1       9.420  -7.114  -5.839  0.00  0.00    +0.000 C 
ENDBRANCH   9  11
ENDBRANCH   1   4
BRANCH   1  17
ATOM     17  N   UNL     1       5.342  -3.573  -3.057  0.00  0.00    +0.000 N 
ATOM     18  H   UNL     1       4.561  -3.297  -2.469  0.00  0.00    +0.000 HD
BRANCH  17  22
ATOM     19  C   UNL     1       8.869  -1.356  -2.289  0.00  0.00    +0.000 A 
ATOM     20  C   UNL     1       8.682  -1.943  -3.541  0.00  0.00    +0.000 A 
ATOM     21  C   UNL     1       7.525  -2.685  -3.798  0.00  0.00    +0.000 A 
ATOM     22  C   UNL     1       6.516  -2.825  -2.838  0.00  0.00    +0.000 A 
ATOM     23  C   UNL     1       6.747  -2.279  -1.567  0.00  0.00    +0.000 A 
ATOM     24  C   UNL     1       7.911  -1.551  -1.290  0.00  0.00    +0.000 A 
BRANCH  19  26
ATOM     25  N   UNL     1      10.652   0.115  -3.037  0.00  0.00    +0.000 N 
ATOM     26  C   UNL     1      10.068  -0.540  -1.989  0.00  0.00    +0.000 C 
ATOM     27  O   UNL     1      10.503  -0.426  -0.848  0.00  0.00    +0.000 OA
ATOM     28  H   UNL     1      11.390   0.765  -2.796  0.00  0.00    +0.000 HD
ATOM     29  H   UNL     1      10.179   0.263  -3.919  0.00  0.00    +0.000 HD
ENDBRANCH  19  26
ENDBRANCH  17  22
ENDBRANCH   1  17
TORSDOF 5
