REMARK  Name = 
REMARK  8 active torsions:
REMARK  status: ('A' for Active; 'I' for Inactive)
REMARK    1  A    between atoms: C_2  and  C_3
REMARK    2  A    between atoms: C_3  and  N_4
REMARK    3  A    between atoms: C_5  and  C_7
REMARK    4  A    between atoms: N_17  and  C_18
REMARK    5  A    between atoms: C_18  and  C_19
REMARK    6  A    between atoms: C_22  and  C_23
REMARK    7  A    between atoms: C_23  and  N_24
REMARK    8  A    between atoms: C_25  and  C_27
REMARK                            x       y       z     vdW  Elec       q    Type
REMARK                         _______ _______ _______ _____ _____    ______ ____
ROOT
ATOM      1  O   UNL     1       5.937  -1.545   0.786  0.00  0.00    +0.000 OA
ATOM      2  C   UNL     1       6.304  -0.712  -0.027  0.00  0.00    +0.000 C 
ATOM      3  N   UNL     1       5.690   0.511  -0.184  0.00  0.00    +0.000 N 
ATOM      4  H   UNL     1       6.033   1.135  -0.911  0.00  0.00    +0.000 HD
ENDROOT
BRANCH   2   5
ATOM      5  C   UNL     1       7.441  -0.979  -1.024  0.00  0.00    +0.000 C 
BRANCH   5   6
ATOM      6  N   UNL     1       6.973  -1.601  -2.241  0.00  0.00    +0.000 N 
ATOM      7  C   UNL     1       6.585  -0.848  -3.319  0.00  0.00    +0.000 C 
ATOM      8  O   UNL     1       6.644   0.380  -3.312  0.00  0.00    +0.000 OA
ATOM      9  H   UNL     1       6.665  -2.566  -2.169  0.00  0.00    +0.000 HD
BRANCH   7  10
ATOM     10  C   UNL     1       6.151  -1.593  -4.499  0.00  0.00    +0.000 A 
ATOM     11  C   UNL     1       6.336  -1.081  -5.776  0.00  0.00    +0.000 A 
ATOM     12  S   UNL     1       5.771  -2.126  -7.005  0.00  0.00    +0.000 S 
ATOM     13  C   UNL     1       5.234  -3.271  -5.864  0.00  0.00    +0.000 A 
ATOM     14  N   UNL     1       4.614  -4.421  -6.246  0.00  0.00    +0.000 NA
ATOM     15  C   UNL     1       4.246  -5.176  -5.269  0.00  0.00    +0.000 A 
ATOM     16  N   UNL     1       4.436  -4.898  -3.942  0.00  0.00    +0.000 N 
ATOM     17  C   UNL     1       5.046  -3.743  -3.505  0.00  0.00    +0.000 A 
ATOM     18  O   UNL     1       5.210  -3.531  -2.308  0.00  0.00    +0.000 OA
ATOM     19  C   UNL     1       5.489  -2.867  -4.571  0.00  0.00    +0.000 A 
ATOM     20  H   UNL     1       4.131  -5.530  -3.220  0.00  0.00    +0.000 HD
ENDBRANCH   7  10
ENDBRANCH   5   6
ENDBRANCH   2   5
BRANCH   3  21
ATOM     21  C   UNL     1       4.599   0.965   0.645  0.00  0.00    +0.000 C 
BRANCH  21  22
ATOM     22  C   UNL     1       4.956   2.239   1.369  0.00  0.00    +0.000 A 
ATOM     23  C   UNL     1       4.760   3.478   0.747  0.00  0.00    +0.000 A 
ATOM     24  C   UNL     1       5.004   4.672   1.435  0.00  0.00    +0.000 A 
ATOM     25  C   UNL     1       5.474   4.659   2.758  0.00  0.00    +0.000 A 
ATOM     26  C   UNL     1       5.696   3.414   3.367  0.00  0.00    +0.000 A 
ATOM     27  C   UNL     1       5.456   2.218   2.676  0.00  0.00    +0.000 A 
BRANCH  25  28
ATOM     28  C   UNL     1       5.776   5.935   3.515  0.00  0.00    +0.000 C 
BRANCH  28  29
ATOM     29  N   UNL     1       4.662   6.449   4.287  0.00  0.00    +0.000 N 
ATOM     30  C   UNL     1       4.782   7.605   5.021  0.00  0.00    +0.000 C 
ATOM     31  O   UNL     1       5.835   8.236   5.115  0.00  0.00    +0.000 OA
ATOM     32  H   UNL     1       3.796   5.928   4.320  0.00  0.00    +0.000 HD
BRANCH  30  33
ATOM     33  C   UNL     1       3.499   8.028   5.733  0.00  0.00    +0.000 C 
ATOM     34  C   UNL     1       2.364   8.306   4.748  0.00  0.00    +0.000 C 
ATOM     35  C   UNL     1       1.433   9.286   5.457  0.00  0.00    +0.000 C 
ATOM     36  C   UNL     1       2.218   9.863   6.631  0.00  0.00    +0.000 C 
ATOM     37  C   UNL     1       3.644   9.361   6.465  0.00  0.00    +0.000 C 
ENDBRANCH  30  33
ENDBRANCH  28  29
ENDBRANCH  25  28
ENDBRANCH  21  22
ENDBRANCH   3  21
TORSDOF 8
