REMARK  Name = 
REMARK  10 active torsions:
REMARK  status: ('A' for Active; 'I' for Inactive)
REMARK    1  A    between atoms: N_1  and  C_2
REMARK    2  A    between atoms: C_2  and  C_3
REMARK    3  A    between atoms: C_3  and  N_4
REMARK    4  A    between atoms: N_4  and  C_5
REMARK    5  A    between atoms: C_5  and  C_6
REMARK    6  A    between atoms: C_8  and  C_9
REMARK    7  A    between atoms: C_9  and  N_10
REMARK    8  A    between atoms: C_11  and  C_13
REMARK    9  A    between atoms: C_25  and  C_26
REMARK   10  A    between atoms: C_26  and  N_27
REMARK                            x       y       z     vdW  Elec       q    Type
REMARK                         _______ _______ _______ _____ _____    ______ ____
ROOT
ATOM      1  C   UNL     1       6.327   2.680   0.545  0.00  0.00    +0.000 A 
ATOM      2  C   UNL     1       7.048   1.545   0.108  0.00  0.00    +0.000 A 
ATOM      3  C   UNL     1       8.432   1.579  -0.098  0.00  0.00    +0.000 A 
ATOM      4  C   UNL     1       9.115   2.762   0.189  0.00  0.00    +0.000 A 
ATOM      5  C   UNL     1       8.425   3.882   0.669  0.00  0.00    +0.000 A 
ATOM      6  C   UNL     1       7.028   3.867   0.852  0.00  0.00    +0.000 A 
ENDROOT
BRANCH   1   7
ATOM      7  C   UNL     1       4.817   2.565   0.599  0.00  0.00    +0.000 C 
BRANCH   7   8
ATOM      8  N   UNL     1       4.112   3.444  -0.342  0.00  0.00    +0.000 NA
ATOM      9  H   UNL     1       3.115   3.245  -0.259  0.00  0.00    +0.000 HD
BRANCH   8  10
ATOM     10  C   UNL     1       4.489   3.195  -1.744  0.00  0.00    +0.000 C 
BRANCH  10  11
ATOM     11  C   UNL     1       3.694   4.106  -2.701  0.00  0.00    +0.000 C 
BRANCH  11  12
ATOM     12  N   UNL     1       2.246   3.898  -2.594  0.00  0.00    +0.000 NA
ATOM     13  H   UNL     1       1.781   4.538  -3.239  0.00  0.00    +0.000 HD
ATOM     14  H   UNL     1       1.949   4.192  -1.665  0.00  0.00    +0.000 HD
ENDBRANCH  11  12
ENDBRANCH  10  11
ENDBRANCH   8  10
ENDBRANCH   7   8
ENDBRANCH   1   7
BRANCH   3  15
ATOM     15  C   UNL     1       9.158   0.352  -0.591  0.00  0.00    +0.000 C 
BRANCH  15  16
ATOM     16  N   UNL     1       9.618  -0.459   0.509  0.00  0.00    +0.000 N 
ATOM     17  C   UNL     1      10.376  -1.586   0.306  0.00  0.00    +0.000 C 
ATOM     18  O   UNL     1      10.745  -1.933  -0.812  0.00  0.00    +0.000 OA
ATOM     19  H   UNL     1       9.152  -0.323   1.400  0.00  0.00    +0.000 HD
BRANCH  17  20
ATOM     20  C   UNL     1      10.775  -2.325   1.512  0.00  0.00    +0.000 A 
ATOM     21  C   UNL     1      11.902  -3.135   1.484  0.00  0.00    +0.000 A 
ATOM     22  S   UNL     1      12.249  -3.881   2.978  0.00  0.00    +0.000 S 
ATOM     23  C   UNL     1      10.870  -3.195   3.702  0.00  0.00    +0.000 A 
ATOM     24  N   UNL     1      10.557  -3.462   4.998  0.00  0.00    +0.000 NA
ATOM     25  C   UNL     1       9.476  -2.891   5.414  0.00  0.00    +0.000 A 
ATOM     26  N   UNL     1       8.682  -2.075   4.652  0.00  0.00    +0.000 N 
ATOM     27  C   UNL     1       8.968  -1.757   3.344  0.00  0.00    +0.000 A 
ATOM     28  O   UNL     1       8.255  -0.996   2.706  0.00  0.00    +0.000 OA
ATOM     29  C   UNL     1      10.171  -2.384   2.824  0.00  0.00    +0.000 A 
ATOM     30  H   UNL     1       7.854  -1.646   5.042  0.00  0.00    +0.000 HD
ENDBRANCH  17  20
ENDBRANCH  15  16
ENDBRANCH   3  15
BRANCH   6  31
ATOM     31  C   UNL     1       6.355   5.123   1.389  0.00  0.00    +0.000 C 
BRANCH  31  32
ATOM     32  N   UNL     1       6.326   5.080   2.839  0.00  0.00    +0.000 N 
ATOM     33  C   UNL     1       5.667   6.133   3.456  0.00  0.00    +0.000 A 
ATOM     34  N   UNL     1       5.154   5.862   4.665  0.00  0.00    +0.000 NA
ATOM     35  C   UNL     1       4.475   6.849   5.282  0.00  0.00    +0.000 A 
ATOM     36  C   UNL     1       4.266   8.086   4.730  0.00  0.00    +0.000 A 
ATOM     37  C   UNL     1       4.834   8.271   3.496  0.00  0.00    +0.000 A 
ATOM     38  N   UNL     1       5.539   7.322   2.848  0.00  0.00    +0.000 NA
ATOM     39  H   UNL     1       5.932   4.235   3.234  0.00  0.00    +0.000 HD
ENDBRANCH  31  32
ENDBRANCH   6  31
TORSDOF 10
