REMARK  Name = 
REMARK  8 active torsions:
REMARK  status: ('A' for Active; 'I' for Inactive)
REMARK    1  A    between atoms: C_1  and  C_2
REMARK    2  A    between atoms: C_2  and  O_3
REMARK    3  A    between atoms: O_3  and  C_4
REMARK    4  A    between atoms: C_8  and  C_9
REMARK    5  A    between atoms: C_9  and  C_10
REMARK    6  A    between atoms: C_13  and  C_14
REMARK    7  A    between atoms: C_14  and  N_15
REMARK    8  A    between atoms: C_16  and  C_18
REMARK                            x       y       z     vdW  Elec       q    Type
REMARK                         _______ _______ _______ _____ _____    ______ ____
ROOT
ATOM      1  C   UNL     1       8.184  -3.225  -3.194  0.00  0.00    +0.000 A 
ATOM      2  C   UNL     1       8.431  -4.146  -2.182  0.00  0.00    +0.000 A 
ATOM      3  C   UNL     1       9.752  -4.501  -1.897  0.00  0.00    +0.000 A 
ATOM      4  C   UNL     1      10.799  -3.980  -2.666  0.00  0.00    +0.000 A 
ATOM      5  C   UNL     1      10.448  -3.111  -3.687  0.00  0.00    +0.000 A 
ATOM      6  N   UNL     1       9.179  -2.717  -3.965  0.00  0.00    +0.000 NA
ENDROOT
BRANCH   1   7
ATOM      7  C   UNL     1       6.796  -2.655  -3.371  0.00  0.00    +0.000 C 
BRANCH   7  12
ATOM      8  C   UNL     1       3.663  -4.399  -4.684  0.00  0.00    +0.000 A 
ATOM      9  C   UNL     1       3.953  -4.474  -6.046  0.00  0.00    +0.000 A 
ATOM     10  C   UNL     1       5.202  -4.084  -6.519  0.00  0.00    +0.000 A 
ATOM     11  C   UNL     1       6.158  -3.579  -5.641  0.00  0.00    +0.000 A 
ATOM     12  C   UNL     1       5.862  -3.418  -4.282  0.00  0.00    +0.000 A 
ATOM     13  C   UNL     1       4.617  -3.871  -3.806  0.00  0.00    +0.000 A 
BRANCH   8  14
ATOM     14  O   UNL     1       2.475  -4.781  -4.115  0.00  0.00    +0.000 OA
BRANCH  14  16
ATOM     15  C   UNL     1       0.238  -5.618  -4.248  0.00  0.00    +0.000 C 
ATOM     16  C   UNL     1       1.484  -5.257  -5.028  0.00  0.00    +0.000 C 
ENDBRANCH  14  16
ENDBRANCH   8  14
ENDBRANCH   7  12
ENDBRANCH   1   7
BRANCH   4  17
ATOM     17  C   UNL     1      12.242  -4.332  -2.413  0.00  0.00    +0.000 C 
BRANCH  17  18
ATOM     18  N   UNL     1      12.889  -3.435  -1.483  0.00  0.00    +0.000 N 
ATOM     19  C   UNL     1      14.225  -3.573  -1.167  0.00  0.00    +0.000 C 
ATOM     20  O   UNL     1      14.936  -4.435  -1.667  0.00  0.00    +0.000 OA
ATOM     21  H   UNL     1      12.295  -2.959  -0.815  0.00  0.00    +0.000 HD
BRANCH  19  22
ATOM     22  C   UNL     1      14.762  -2.573  -0.227  0.00  0.00    +0.000 A 
ATOM     23  C   UNL     1      16.103  -2.217  -0.281  0.00  0.00    +0.000 A 
ATOM     24  S   UNL     1      16.544  -1.045   0.879  0.00  0.00    +0.000 S 
ATOM     25  C   UNL     1      14.968  -1.000   1.518  0.00  0.00    +0.000 A 
ATOM     26  N   UNL     1      14.667  -0.213   2.586  0.00  0.00    +0.000 NA
ATOM     27  C   UNL     1      13.438  -0.299   2.984  0.00  0.00    +0.000 A 
ATOM     28  N   UNL     1      12.484  -1.093   2.399  0.00  0.00    +0.000 N 
ATOM     29  C   UNL     1      12.731  -1.857   1.286  0.00  0.00    +0.000 A 
ATOM     30  O   UNL     1      11.833  -2.483   0.727  0.00  0.00    +0.000 OA
ATOM     31  C   UNL     1      14.106  -1.835   0.829  0.00  0.00    +0.000 A 
ATOM     32  H   UNL     1      11.532  -1.090   2.739  0.00  0.00    +0.000 HD
ENDBRANCH  19  22
ENDBRANCH  17  18
ENDBRANCH   4  17
TORSDOF 7
