REMARK  Name = 
REMARK  8 active torsions:
REMARK  status: ('A' for Active; 'I' for Inactive)
REMARK    1  A    between atoms: C_1  and  N_2
REMARK    2  A    between atoms: C_8  and  C_9
REMARK    3  A    between atoms: N_11  and  C_12
REMARK    4  A    between atoms: C_12  and  C_13
REMARK    5  A    between atoms: C_16  and  C_17
REMARK    6  A    between atoms: C_17  and  O_18
REMARK    7  A    between atoms: O_18  and  C_19
REMARK    8  A    between atoms: C_19  and  C_20
REMARK                            x       y       z     vdW  Elec       q    Type
REMARK                         _______ _______ _______ _____ _____    ______ ____
ROOT
ATOM      1  C   UNL     1       6.106  -6.000  -0.071  0.00  0.00    +0.000 C 
ENDROOT
BRANCH   1   2
ATOM      2  C   UNL     1       7.427  -6.727  -0.054  0.00  0.00    +0.000 A 
ATOM      3  C   UNL     1       7.473  -8.128  -0.025  0.00  0.00    +0.000 A 
ATOM      4  C   UNL     1       8.699  -8.801  -0.000  0.00  0.00    +0.000 A 
ATOM      5  C   UNL     1       9.905  -8.088   0.012  0.00  0.00    +0.000 A 
ATOM      6  C   UNL     1       9.858  -6.688   0.009  0.00  0.00    +0.000 A 
ATOM      7  C   UNL     1       8.632  -6.015  -0.019  0.00  0.00    +0.000 A 
BRANCH   5   8
ATOM      8  C   UNL     1      11.227  -8.811   0.057  0.00  0.00    +0.000 C 
BRANCH   8   9
ATOM      9  O   UNL     1      11.361  -9.634  -1.099  0.00  0.00    +0.000 OA
BRANCH   9  10
ATOM     10  C   UNL     1      12.638 -10.270  -1.139  0.00  0.00    +0.000 C 
BRANCH  10  11
ATOM     11  C   UNL     1      12.754 -11.144  -2.361  0.00  0.00    +0.000 A 
ATOM     12  C   UNL     1      12.126 -10.809  -3.564  0.00  0.00    +0.000 A 
ATOM     13  C   UNL     1      12.300 -11.637  -4.661  0.00  0.00    +0.000 A 
ATOM     14  N   UNL     1      13.059 -12.754  -4.649  0.00  0.00    +0.000 NA
ATOM     15  C   UNL     1      13.669 -13.055  -3.484  0.00  0.00    +0.000 A 
ATOM     16  C   UNL     1      13.555 -12.290  -2.332  0.00  0.00    +0.000 A 
ENDBRANCH  10  11
ENDBRANCH   9  10
ENDBRANCH   8   9
ENDBRANCH   5   8
ENDBRANCH   1   2
BRANCH   1  19
ATOM     17  C   UNL     1       4.474  -5.080   1.519  0.00  0.00    +0.000 C 
ATOM     18  O   UNL     1       3.775  -4.613   0.624  0.00  0.00    +0.000 OA
ATOM     19  N   UNL     1       5.676  -5.692   1.269  0.00  0.00    +0.000 N 
ATOM     20  H   UNL     1       6.096  -6.249   2.005  0.00  0.00    +0.000 HD
BRANCH  17  28
ATOM     21  C   UNL     1       6.114  -8.810   5.495  0.00  0.00    +0.000 C 
ATOM     22  N   UNL     1       5.331  -7.598   5.373  0.00  0.00    +0.000 N 
ATOM     23  C   UNL     1       4.745  -7.016   6.478  0.00  0.00    +0.000 A 
ATOM     24  N   UNL     1       4.037  -5.934   6.470  0.00  0.00    +0.000 NA
ATOM     25  C   UNL     1       3.890  -5.366   5.245  0.00  0.00    +0.000 A 
ATOM     26  S   UNL     1       2.960  -3.956   5.035  0.00  0.00    +0.000 S 
ATOM     27  C   UNL     1       3.257  -3.942   3.354  0.00  0.00    +0.000 A 
ATOM     28  C   UNL     1       4.090  -4.971   2.932  0.00  0.00    +0.000 A 
ATOM     29  C   UNL     1       4.426  -5.814   4.055  0.00  0.00    +0.000 A 
ATOM     30  C   UNL     1       5.210  -7.036   4.108  0.00  0.00    +0.000 A 
ATOM     31  O   UNL     1       5.740  -7.523   3.113  0.00  0.00    +0.000 OA
ENDBRANCH  17  28
ENDBRANCH   1  19
TORSDOF 7
