REMARK  Name = 
REMARK  5 active torsions:
REMARK  status: ('A' for Active; 'I' for Inactive)
REMARK    1  A    between atoms: N_1  and  C_2
REMARK    2  A    between atoms: C_2  and  C_3
REMARK    3  A    between atoms: C_6  and  C_7
REMARK    4  A    between atoms: C_7  and  N_8
REMARK    5  A    between atoms: C_12  and  C_13
REMARK                            x       y       z     vdW  Elec       q    Type
REMARK                         _______ _______ _______ _____ _____    ______ ____
ROOT
ATOM      1  N   UNL     1       4.266  -2.240   5.945  0.00  0.00    +0.000 N 
ATOM      2  C   UNL     1       4.492  -2.973   7.123  0.00  0.00    +0.000 A 
ATOM      3  C   UNL     1       4.988  -2.330   8.267  0.00  0.00    +0.000 A 
ATOM      4  N   UNL     1       5.239  -2.954   9.451  0.00  0.00    +0.000 NA
ATOM      5  C   UNL     1       4.976  -4.290   9.444  0.00  0.00    +0.000 A 
ATOM      6  C   UNL     1       4.499  -4.945   8.322  0.00  0.00    +0.000 A 
ATOM      7  N   UNL     1       4.257  -4.303   7.151  0.00  0.00    +0.000 NA
ATOM      8  H   UNL     1       3.632  -1.470   6.136  0.00  0.00    +0.000 HD
ENDROOT
BRANCH   5   9
ATOM      9  C   UNL     1       5.209  -5.061  10.695  0.00  0.00    +0.000 C 
ATOM     10  N   UNL     1       5.697  -4.351  11.756  0.00  0.00    +0.000 N 
ATOM     11  O   UNL     1       4.974  -6.260  10.776  0.00  0.00    +0.000 OA
ATOM     12  H   UNL     1       5.890  -3.360  11.663  0.00  0.00    +0.000 HD
ATOM     13  H   UNL     1       5.875  -4.828  12.628  0.00  0.00    +0.000 HD
ENDBRANCH   5   9
BRANCH   1  14
ATOM     14  C   UNL     1       3.776  -3.064   4.838  0.00  0.00    +0.000 C 
BRANCH  14  18
ATOM     15  C   UNL     1       2.828  -0.752   1.286  0.00  0.00    +0.000 A 
ATOM     16  C   UNL     1       3.877  -0.354   2.126  0.00  0.00    +0.000 A 
ATOM     17  C   UNL     1       4.197  -1.091   3.271  0.00  0.00    +0.000 A 
ATOM     18  C   UNL     1       3.455  -2.228   3.617  0.00  0.00    +0.000 A 
ATOM     19  C   UNL     1       2.427  -2.643   2.756  0.00  0.00    +0.000 A 
ATOM     20  C   UNL     1       2.113  -1.912   1.607  0.00  0.00    +0.000 A 
BRANCH  15  21
ATOM     21  C   UNL     1       2.455   0.069   0.077  0.00  0.00    +0.000 C 
BRANCH  21  22
ATOM     22  N   UNL     1       3.578   0.230  -0.840  0.00  0.00    +0.000 NA
ATOM     23  H   UNL     1       3.246   0.671  -1.695  0.00  0.00    +0.000 HD
ATOM     24  H   UNL     1       3.918  -0.693  -1.104  0.00  0.00    +0.000 HD
ENDBRANCH  21  22
ENDBRANCH  15  21
ENDBRANCH  14  18
ENDBRANCH   1  14
TORSDOF 5
