REMARK  Name = 
REMARK  9 active torsions:
REMARK  status: ('A' for Active; 'I' for Inactive)
REMARK    1  A    between atoms: C_1  and  C_2
REMARK    2  A    between atoms: C_2  and  C_3
REMARK    3  A    between atoms: C_2  and  C_4
REMARK    4  A    between atoms: C_2  and  N_5
REMARK    5  A    between atoms: C_8  and  N_9
REMARK    6  A    between atoms: C_8  and  C_19
REMARK    7  A    between atoms: N_9  and  C_10
REMARK    8  A    between atoms: C_13  and  C_14
REMARK    9  A    between atoms: C_23  and  C_24
REMARK                            x       y       z     vdW  Elec       q    Type
REMARK                         _______ _______ _______ _____ _____    ______ ____
ROOT
ATOM      1  N   UNL     1       3.007  -0.838  -0.830  0.00  0.00    +0.000 NA
ATOM      2  C   UNL     1       2.134  -1.980  -1.105  0.00  0.00    +0.000 C 
ATOM      3  C   UNL     1       2.641  -3.119  -0.232  0.00  0.00    +0.000 C 
ATOM      4  C   UNL     1       4.172  -2.974  -0.241  0.00  0.00    +0.000 C 
ATOM      5  C   UNL     1       4.341  -1.434  -0.575  0.00  0.00    +0.000 C 
ENDROOT
BRANCH   4   6
ATOM      6  C   UNL     1       4.880  -3.829  -1.303  0.00  0.00    +0.000 A 
ATOM      7  C   UNL     1       4.239  -4.251  -2.470  0.00  0.00    +0.000 A 
ATOM      8  N   UNL     1       4.800  -5.003  -3.444  0.00  0.00    +0.000 NA
ATOM      9  C   UNL     1       6.084  -5.366  -3.271  0.00  0.00    +0.000 A 
ATOM     10  C   UNL     1       6.839  -5.008  -2.167  0.00  0.00    +0.000 A 
ATOM     11  C   UNL     1       6.222  -4.227  -1.177  0.00  0.00    +0.000 A 
BRANCH  10  12
ATOM     12  C   UNL     1       8.264  -5.453  -2.058  0.00  0.00    +0.000 C 
ATOM     13  F   UNL     1       8.708  -6.129  -3.154  0.00  0.00    +0.000 F 
ATOM     14  F   UNL     1       9.122  -4.408  -1.895  0.00  0.00    +0.000 F 
ATOM     15  F   UNL     1       8.475  -6.282  -1.000  0.00  0.00    +0.000 F 
ENDBRANCH  10  12
ENDBRANCH   4   6
BRANCH   1  17
ATOM     16  C   UNL     1       2.174  -0.385   1.524  0.00  0.00    +0.000 C 
ATOM     17  C   UNL     1       2.477   0.170   0.121  0.00  0.00    +0.000 C 
ATOM     18  C   UNL     1       1.169   0.773  -0.458  0.00  0.00    +0.000 C 
ATOM     19  C   UNL     1       3.447   1.365   0.276  0.00  0.00    +0.000 C 
ENDBRANCH   1  17
BRANCH   4  20
ATOM     20  N   UNL     1       4.736  -3.216   1.115  0.00  0.00    +0.000 N 
ATOM     21  H   UNL     1       4.676  -2.392   1.711  0.00  0.00    +0.000 HD
BRANCH  20  22
ATOM     22  C   UNL     1       4.671  -4.376   1.871  0.00  0.00    +0.000 A 
ATOM     23  C   UNL     1       4.102  -5.577   1.449  0.00  0.00    +0.000 A 
ATOM     24  C   UNL     1       4.115  -6.706   2.275  0.00  0.00    +0.000 A 
ATOM     25  C   UNL     1       4.744  -6.620   3.509  0.00  0.00    +0.000 A 
ATOM     26  N   UNL     1       5.366  -5.498   3.954  0.00  0.00    +0.000 NA
ATOM     27  C   UNL     1       5.317  -4.429   3.119  0.00  0.00    +0.000 A 
BRANCH  25  28
ATOM     28  C   UNL     1       4.757  -7.812   4.420  0.00  0.00    +0.000 C 
ATOM     29  N   UNL     1       5.421  -7.641   5.609  0.00  0.00    +0.000 N 
ATOM     30  O   UNL     1       4.201  -8.864   4.140  0.00  0.00    +0.000 OA
ATOM     31  H   UNL     1       5.873  -6.756   5.806  0.00  0.00    +0.000 HD
ATOM     32  H   UNL     1       5.468  -8.405   6.265  0.00  0.00    +0.000 HD
ENDBRANCH  25  28
ENDBRANCH  20  22
ENDBRANCH   4  20
TORSDOF 6
