REMARK  Name = 
REMARK  5 active torsions:
REMARK  status: ('A' for Active; 'I' for Inactive)
REMARK    1  A    between atoms: C_2  and  C_4
REMARK    2  A    between atoms: C_7  and  O_8
REMARK    3  A    between atoms: O_8  and  C_9
REMARK    4  A    between atoms: C_9  and  C_10
REMARK    5  A    between atoms: C_14  and  C_15
REMARK                            x       y       z     vdW  Elec       q    Type
REMARK                         _______ _______ _______ _____ _____    ______ ____
ROOT
ATOM      1  C   UNL     1       6.015   0.291   7.001  0.00  0.00    +0.000 A 
ATOM      2  C   UNL     1       6.265   1.624   7.344  0.00  0.00    +0.000 A 
ATOM      3  C   UNL     1       7.033   1.927   8.464  0.00  0.00    +0.000 A 
ATOM      4  C   UNL     1       7.533   0.900   9.271  0.00  0.00    +0.000 A 
ATOM      5  C   UNL     1       7.257  -0.449   8.990  0.00  0.00    +0.000 A 
ATOM      6  C   UNL     1       6.511  -0.726   7.830  0.00  0.00    +0.000 A 
ENDROOT
BRANCH   5   7
ATOM      7  C   UNL     1       7.621  -1.542   9.921  0.00  0.00    +0.000 A 
ATOM      8  C   UNL     1       7.591  -1.345  11.313  0.00  0.00    +0.000 A 
ATOM      9  C   UNL     1       7.776  -2.410  12.191  0.00  0.00    +0.000 A 
ATOM     10  F   UNL     1       7.705  -2.190  13.510  0.00  0.00    +0.000 F 
ATOM     11  C   UNL     1       7.995  -3.696  11.726  0.00  0.00    +0.000 A 
ATOM     12  C   UNL     1       8.063  -3.899  10.359  0.00  0.00    +0.000 A 
ATOM     13  F   UNL     1       8.261  -5.136   9.885  0.00  0.00    +0.000 F 
ATOM     14  C   UNL     1       7.896  -2.844   9.463  0.00  0.00    +0.000 A 
ENDBRANCH   5   7
BRANCH   1  15
ATOM     15  C   UNL     1       5.100  -0.034   5.843  0.00  0.00    +0.000 C 
BRANCH  15  16
ATOM     16  O   UNL     1       5.514  -1.236   5.183  0.00  0.00    +0.000 OA
BRANCH  16  20
ATOM     17  C   UNL     1       2.947  -2.308   2.148  0.00  0.00    +0.000 A 
ATOM     18  C   UNL     1       4.049  -3.116   2.434  0.00  0.00    +0.000 A 
ATOM     19  C   UNL     1       4.916  -2.745   3.466  0.00  0.00    +0.000 A 
ATOM     20  C   UNL     1       4.643  -1.582   4.170  0.00  0.00    +0.000 A 
ATOM     21  N   UNL     1       3.586  -0.783   3.910  0.00  0.00    +0.000 NA
ATOM     22  C   UNL     1       2.767  -1.157   2.901  0.00  0.00    +0.000 A 
BRANCH  17  24
ATOM     23  N   UNL     1       1.796  -3.896   0.713  0.00  0.00    +0.000 N 
ATOM     24  C   UNL     1       1.974  -2.591   1.075  0.00  0.00    +0.000 C 
ATOM     25  O   UNL     1       1.319  -1.697   0.557  0.00  0.00    +0.000 OA
ATOM     26  H   UNL     1       1.041  -4.073   0.061  0.00  0.00    +0.000 HD
ATOM     27  H   UNL     1       2.113  -4.668   1.281  0.00  0.00    +0.000 HD
ENDBRANCH  17  24
ENDBRANCH  16  20
ENDBRANCH  15  16
ENDBRANCH   1  15
TORSDOF 5
