REMARK  Name = 
REMARK  9 active torsions:
REMARK  status: ('A' for Active; 'I' for Inactive)
REMARK    1  A    between atoms: C_1  and  O_2
REMARK    2  A    between atoms: O_2  and  C_3
REMARK    3  A    between atoms: C_5  and  C_6
REMARK    4  A    between atoms: C_6  and  N_7
REMARK    5  A    between atoms: C_13  and  C_14
REMARK    6  A    between atoms: C_21  and  O_22
REMARK    7  A    between atoms: O_22  and  C_23
REMARK    8  A    between atoms: C_24  and  O_25
REMARK    9  A    between atoms: O_25  and  C_26
REMARK                            x       y       z     vdW  Elec       q    Type
REMARK                         _______ _______ _______ _____ _____    ______ ____
ROOT
ATOM      1  N   UNL     1       3.496   5.226  -1.223  0.00  0.00    +0.000 N 
ATOM      2  C   UNL     1       4.318   4.760  -0.217  0.00  0.00    +0.000 A 
ATOM      3  C   UNL     1       4.970   5.825   0.347  0.00  0.00    +0.000 A 
ATOM      4  C   UNL     1       4.497   6.986  -0.290  0.00  0.00    +0.000 A 
ATOM      5  N   UNL     1       4.869   8.260  -0.044  0.00  0.00    +0.000 NA
ATOM      6  C   UNL     1       4.243   9.193  -0.787  0.00  0.00    +0.000 A 
ATOM      7  C   UNL     1       3.261   8.952  -1.741  0.00  0.00    +0.000 A 
ATOM      8  C   UNL     1       2.861   7.625  -1.962  0.00  0.00    +0.000 A 
ATOM      9 CL   UNL     1       1.550   7.220  -3.009  0.00  0.00    +0.000 Cl
ATOM     10  C   UNL     1       3.535   6.618  -1.236  0.00  0.00    +0.000 A 
ENDROOT
BRANCH   7  11
ATOM     11  C   UNL     1       2.752  10.157  -2.442  0.00  0.00    +0.000 C 
ATOM     12  N   UNL     1       2.292  10.022  -3.718  0.00  0.00    +0.000 N 
ATOM     13  O   UNL     1       2.795  11.259  -1.914  0.00  0.00    +0.000 OA
ATOM     14  H   UNL     1       2.180   9.131  -4.185  0.00  0.00    +0.000 HD
ATOM     15  H   UNL     1       1.952  10.855  -4.183  0.00  0.00    +0.000 HD
ENDBRANCH   7  11
BRANCH   1  16
ATOM     16  C   UNL     1       2.761   4.376  -2.174  0.00  0.00    +0.000 C 
BRANCH  16  19
ATOM     17  C   UNL     1       2.900   0.727  -1.049  0.00  0.00    +0.000 A 
ATOM     18  C   UNL     1       2.447   2.034  -1.272  0.00  0.00    +0.000 A 
ATOM     19  C   UNL     1       3.152   2.915  -2.107  0.00  0.00    +0.000 A 
ATOM     20  C   UNL     1       4.304   2.461  -2.763  0.00  0.00    +0.000 A 
ATOM     21  C   UNL     1       4.776   1.164  -2.546  0.00  0.00    +0.000 A 
ATOM     22  C   UNL     1       4.071   0.284  -1.697  0.00  0.00    +0.000 A 
BRANCH  17  24
ATOM     23  C   UNL     1       0.958   0.147   0.220  0.00  0.00    +0.000 C 
ATOM     24  O   UNL     1       2.311  -0.108  -0.134  0.00  0.00    +0.000 OA
ENDBRANCH  17  24
BRANCH  21  25
ATOM     25  O   UNL     1       5.905   0.671  -3.157  0.00  0.00    +0.000 OA
ATOM     26  C   UNL     1       6.944   1.614  -3.395  0.00  0.00    +0.000 C 
ENDBRANCH  21  25
BRANCH  22  27
ATOM     27  O   UNL     1       4.671  -0.941  -1.508  0.00  0.00    +0.000 OA
ATOM     28  C   UNL     1       3.815  -2.053  -1.285  0.00  0.00    +0.000 C 
ENDBRANCH  22  27
ENDBRANCH  16  19
ENDBRANCH   1  16
TORSDOF 6
