REMARK  Name = 
REMARK  7 active torsions:
REMARK  status: ('A' for Active; 'I' for Inactive)
REMARK    1  A    between atoms: N_1  and  C_2
REMARK    2  A    between atoms: C_2  and  C_3
REMARK    3  A    between atoms: C_7  and  C_8
REMARK    4  A    between atoms: C_8  and  C_20
REMARK    5  A    between atoms: C_9  and  S_10
REMARK    6  A    between atoms: S_10  and  C_11
REMARK    7  A    between atoms: C_14  and  C_15
REMARK                            x       y       z     vdW  Elec       q    Type
REMARK                         _______ _______ _______ _____ _____    ______ ____
ROOT
ATOM      1  C   UNL     1       3.511   1.284   4.836  0.00  0.00    +0.000 C 
ATOM      2  C   UNL     1       3.574   0.003   5.255  0.00  0.00    +0.000 C 
ENDROOT
BRANCH   1   7
ATOM      3  C   UNL     1       4.476   1.699   1.189  0.00  0.00    +0.000 A 
ATOM      4  C   UNL     1       3.215   1.910   0.613  0.00  0.00    +0.000 A 
ATOM      5  C   UNL     1       2.073   1.943   1.411  0.00  0.00    +0.000 A 
ATOM      6  C   UNL     1       2.176   1.751   2.789  0.00  0.00    +0.000 A 
ATOM      7  C   UNL     1       3.425   1.538   3.385  0.00  0.00    +0.000 A 
ATOM      8  C   UNL     1       4.573   1.525   2.580  0.00  0.00    +0.000 A 
BRANCH   3   9
ATOM      9  C   UNL     1       5.693   1.555   0.314  0.00  0.00    +0.000 C 
BRANCH   9  10
ATOM     10  N   UNL     1       5.968   0.144   0.072  0.00  0.00    +0.000 NA
ATOM     11  H   UNL     1       6.694   0.056  -0.634  0.00  0.00    +0.000 HD
ATOM     12  H   UNL     1       5.132  -0.292  -0.315  0.00  0.00    +0.000 HD
ENDBRANCH   9  10
ENDBRANCH   3   9
ENDBRANCH   1   7
BRANCH   1  13
ATOM     13  C   UNL     1       3.469   2.501   5.719  0.00  0.00    +0.000 C 
ATOM     14  F   UNL     1       3.395   3.671   5.029  0.00  0.00    +0.000 F 
ATOM     15  F   UNL     1       2.392   2.489   6.549  0.00  0.00    +0.000 F 
ATOM     16  F   UNL     1       4.575   2.600   6.504  0.00  0.00    +0.000 F 
ENDBRANCH   1  13
BRANCH   2  17
ATOM     17  S   UNL     1       3.609  -0.417   6.937  0.00  0.00    +0.000 S 
BRANCH  17  18
ATOM     18  C   UNL     1       3.692  -2.192   6.982  0.00  0.00    +0.000 A 
ATOM     19  N   UNL     1       3.693  -2.920   5.851  0.00  0.00    +0.000 NA
ATOM     20  C   UNL     1       3.791  -4.267   6.003  0.00  0.00    +0.000 A 
ATOM     21  C   UNL     1       3.903  -4.897   7.224  0.00  0.00    +0.000 A 
ATOM     22  C   UNL     1       3.861  -4.064   8.315  0.00  0.00    +0.000 A 
ATOM     23  N   UNL     1       3.765  -2.721   8.221  0.00  0.00    +0.000 NA
BRANCH  21  24
ATOM     24  C   UNL     1       4.029  -6.361   7.315  0.00  0.00    +0.000 C 
ATOM     25  N   UNL     1       4.600  -6.886   8.440  0.00  0.00    +0.000 N 
ATOM     26  O   UNL     1       3.663  -7.080   6.395  0.00  0.00    +0.000 OA
ATOM     27  H   UNL     1       5.117  -6.348   9.122  0.00  0.00    +0.000 HD
ATOM     28  H   UNL     1       4.756  -7.889   8.438  0.00  0.00    +0.000 HD
ENDBRANCH  21  24
ENDBRANCH  17  18
ENDBRANCH   2  17
TORSDOF 7
