REMARK  Name = 
REMARK  7 active torsions:
REMARK  status: ('A' for Active; 'I' for Inactive)
REMARK    1  A    between atoms: N_1  and  C_2
REMARK    2  A    between atoms: C_2  and  N_3
REMARK    3  A    between atoms: C_2  and  C_16
REMARK    4  A    between atoms: C_4  and  C_6
REMARK    5  A    between atoms: C_19  and  C_20
REMARK    6  A    between atoms: C_20  and  N_21
REMARK    7  A    between atoms: C_22  and  C_24
REMARK                            x       y       z     vdW  Elec       q    Type
REMARK                         _______ _______ _______ _____ _____    ______ ____
ROOT
ATOM      1  C   UNL     1       2.485   0.014   0.024  0.00  0.00    +0.000 C 
ENDROOT
BRANCH   1   2
ATOM      2  C   UNL     1       3.007  -0.867  -1.097  0.00  0.00    +0.000 A 
ATOM      3  C   UNL     1       3.807  -0.328  -2.118  0.00  0.00    +0.000 A 
ATOM      4  C   UNL     1       4.223  -1.118  -3.197  0.00  0.00    +0.000 A 
ATOM      5  C   UNL     1       3.838  -2.464  -3.290  0.00  0.00    +0.000 A 
ATOM      6  C   UNL     1       3.077  -3.016  -2.254  0.00  0.00    +0.000 A 
ATOM      7  C   UNL     1       2.669  -2.228  -1.174  0.00  0.00    +0.000 A 
BRANCH   5   8
ATOM      8  C   UNL     1       4.203  -3.305  -4.484  0.00  0.00    +0.000 C 
BRANCH   8   9
ATOM      9  N   UNL     1       5.439  -4.023  -4.290  0.00  0.00    +0.000 N 
ATOM     10  C   UNL     1       5.947  -4.828  -5.282  0.00  0.00    +0.000 C 
ATOM     11  O   UNL     1       5.375  -4.980  -6.360  0.00  0.00    +0.000 OA
ATOM     12  H   UNL     1       5.826  -4.069  -3.352  0.00  0.00    +0.000 HD
BRANCH  10  13
ATOM     13  C   UNL     1       7.214  -5.613  -4.959  0.00  0.00    +0.000 C 
ATOM     14  C   UNL     1       6.897  -6.937  -4.302  0.00  0.00    +0.000 C 
ATOM     15  C   UNL     1       6.796  -6.568  -2.837  0.00  0.00    +0.000 C 
ATOM     16  O   UNL     1       7.593  -5.387  -2.640  0.00  0.00    +0.000 OA
ATOM     17  C   UNL     1       8.099  -4.961  -3.920  0.00  0.00    +0.000 C 
ENDBRANCH  10  13
ENDBRANCH   8   9
ENDBRANCH   5   8
ENDBRANCH   1   2
BRANCH   1  18
ATOM     18  N   UNL     1       2.884  -0.478   1.312  0.00  0.00    +0.000 N 
ATOM     19  C   UNL     1       2.567   0.186   2.473  0.00  0.00    +0.000 C 
ATOM     20  O   UNL     1       1.841   1.178   2.481  0.00  0.00    +0.000 OA
ATOM     21  H   UNL     1       3.747  -1.014   1.317  0.00  0.00    +0.000 HD
BRANCH  19  22
ATOM     22  C   UNL     1       3.031  -0.413   3.728  0.00  0.00    +0.000 A 
ATOM     23  C   UNL     1       2.282  -0.235   4.883  0.00  0.00    +0.000 A 
ATOM     24  S   UNL     1       2.952  -0.992   6.256  0.00  0.00    +0.000 S 
ATOM     25  C   UNL     1       4.287  -1.552   5.361  0.00  0.00    +0.000 A 
ATOM     26  N   UNL     1       5.289  -2.246   5.962  0.00  0.00    +0.000 NA
ATOM     27  C   UNL     1       6.251  -2.583   5.168  0.00  0.00    +0.000 A 
ATOM     28  N   UNL     1       6.291  -2.309   3.825  0.00  0.00    +0.000 N 
ATOM     29  C   UNL     1       5.281  -1.639   3.166  0.00  0.00    +0.000 A 
ATOM     30  O   UNL     1       5.304  -1.454   1.956  0.00  0.00    +0.000 OA
ATOM     31  C   UNL     1       4.198  -1.203   4.025  0.00  0.00    +0.000 A 
ATOM     32  H   UNL     1       7.063  -2.619   3.257  0.00  0.00    +0.000 HD
ENDBRANCH  19  22
ENDBRANCH   1  18
BRANCH   1  33
ATOM     33  N   UNL     1       1.034   0.026   0.013  0.00  0.00    +0.000 NA
ATOM     34  H   UNL     1       0.751   0.659   0.767  0.00  0.00    +0.000 HD
ATOM     35  H   UNL     1       0.714  -0.891   0.310  0.00  0.00    +0.000 HD
ENDBRANCH   1  33
TORSDOF 7
