REMARK  Name = 
REMARK  7 active torsions:
REMARK  status: ('A' for Active; 'I' for Inactive)
REMARK    1  A    between atoms: C_2  and  C_27
REMARK    2  A    between atoms: N_3  and  C_4
REMARK    3  A    between atoms: C_4  and  C_5
REMARK    4  A    between atoms: C_8  and  C_9
REMARK    5  A    between atoms: C_9  and  C_10
REMARK    6  A    between atoms: C_10  and  N_11
REMARK    7  A    between atoms: C_12  and  C_14
REMARK                            x       y       z     vdW  Elec       q    Type
REMARK                         _______ _______ _______ _____ _____    ______ ____
ROOT
ATOM      1  C   UNL     1       3.286   1.626  -3.204  0.00  0.00    +0.000 A 
ATOM      2  C   UNL     1       3.352   2.990  -3.504  0.00  0.00    +0.000 A 
ATOM      3  C   UNL     1       4.193   3.454  -4.516  0.00  0.00    +0.000 A 
ATOM      4  C   UNL     1       5.017   2.573  -5.230  0.00  0.00    +0.000 A 
ATOM      5  C   UNL     1       4.950   1.213  -4.911  0.00  0.00    +0.000 A 
ATOM      6  F   UNL     1       5.701   0.330  -5.587  0.00  0.00    +0.000 F 
ATOM      7  C   UNL     1       4.106   0.739  -3.909  0.00  0.00    +0.000 A 
ENDROOT
BRANCH   1   8
ATOM      8  C   UNL     1       2.336   1.133  -2.152  0.00  0.00    +0.000 C 
BRANCH   8  11
ATOM      9  O   UNL     1       1.040   0.297   0.164  0.00  0.00    +0.000 OA
ATOM     10  C   UNL     1       2.206   0.671   0.240  0.00  0.00    +0.000 C 
ATOM     11  N   UNL     1       2.931   1.113  -0.845  0.00  0.00    +0.000 N 
ATOM     12  H   UNL     1       3.890   1.408  -0.687  0.00  0.00    +0.000 HD
BRANCH  10  13
ATOM     13  C   UNL     1       2.938   0.666   1.544  0.00  0.00    +0.000 A 
ATOM     14  C   UNL     1       2.289   0.200   2.682  0.00  0.00    +0.000 A 
ATOM     15  C   UNL     1       2.992   0.187   3.881  0.00  0.00    +0.000 A 
ATOM     16  C   UNL     1       4.308   0.639   3.901  0.00  0.00    +0.000 A 
ATOM     17  C   UNL     1       4.873   1.090   2.716  0.00  0.00    +0.000 A 
ATOM     18  N   UNL     1       4.225   1.116   1.531  0.00  0.00    +0.000 NA
ENDBRANCH  10  13
ENDBRANCH   8  11
ENDBRANCH   1   8
BRANCH   4  19
ATOM     19  C   UNL     1       5.899   3.036  -6.366  0.00  0.00    +0.000 C 
BRANCH  19  20
ATOM     20  C   UNL     1       6.462   4.447  -6.183  0.00  0.00    +0.000 C 
BRANCH  20  21
ATOM     21  N   UNL     1       7.255   4.872  -7.312  0.00  0.00    +0.000 N 
ATOM     22  C   UNL     1       6.713   5.594  -8.346  0.00  0.00    +0.000 C 
ATOM     23  O   UNL     1       5.525   5.907  -8.377  0.00  0.00    +0.000 OA
ATOM     24  H   UNL     1       8.185   4.476  -7.405  0.00  0.00    +0.000 HD
BRANCH  22  25
ATOM     25  C   UNL     1       7.647   6.043  -9.379  0.00  0.00    +0.000 A 
ATOM     26  C   UNL     1       7.345   7.167 -10.136  0.00  0.00    +0.000 A 
ATOM     27  S   UNL     1       8.560   7.577 -11.259  0.00  0.00    +0.000 S 
ATOM     28  C   UNL     1       9.508   6.239 -10.804  0.00  0.00    +0.000 A 
ATOM     29  N   UNL     1      10.697   5.986 -11.413  0.00  0.00    +0.000 NA
ATOM     30  C   UNL     1      11.289   4.915 -10.998  0.00  0.00    +0.000 A 
ATOM     31  N   UNL     1      10.808   4.081 -10.024  0.00  0.00    +0.000 N 
ATOM     32  C   UNL     1       9.640   4.329  -9.341  0.00  0.00    +0.000 A 
ATOM     33  O   UNL     1       9.285   3.615  -8.408  0.00  0.00    +0.000 OA
ATOM     34  C   UNL     1       8.917   5.501  -9.795  0.00  0.00    +0.000 A 
ATOM     35  H   UNL     1      11.331   3.270  -9.731  0.00  0.00    +0.000 HD
ENDBRANCH  22  25
ENDBRANCH  20  21
ENDBRANCH  19  20
ENDBRANCH   4  19
TORSDOF 7
