REMARK  Name = 
REMARK  8 active torsions:
REMARK  status: ('A' for Active; 'I' for Inactive)
REMARK    1  A    between atoms: C_2  and  C_20
REMARK    2  A    between atoms: N_3  and  C_4
REMARK    3  A    between atoms: C_4  and  C_5
REMARK    4  A    between atoms: C_8  and  C_9
REMARK    5  A    between atoms: C_9  and  O_10
REMARK    6  A    between atoms: C_9  and  C_11
REMARK    7  A    between atoms: C_11  and  N_12
REMARK    8  A    between atoms: C_15  and  O_16
REMARK                            x       y       z     vdW  Elec       q    Type
REMARK                         _______ _______ _______ _____ _____    ______ ____
ROOT
ATOM      1  C   UNL     1       5.872   3.435  -8.966  0.00  0.00    +0.000 A 
ATOM      2  C   UNL     1       7.029   3.973  -8.396  0.00  0.00    +0.000 A 
ATOM      3  C   UNL     1       7.010   4.488  -7.099  0.00  0.00    +0.000 A 
ATOM      4  C   UNL     1       5.833   4.474  -6.336  0.00  0.00    +0.000 A 
ATOM      5  C   UNL     1       4.683   3.895  -6.893  0.00  0.00    +0.000 A 
ATOM      6  C   UNL     1       4.704   3.374  -8.192  0.00  0.00    +0.000 A 
ENDROOT
BRANCH   1   7
ATOM      7  C   UNL     1       5.909   2.894 -10.371  0.00  0.00    +0.000 C 
BRANCH   7  10
ATOM      8  O   UNL     1       8.491   1.816 -10.739  0.00  0.00    +0.000 OA
ATOM      9  C   UNL     1       7.552   1.057 -10.506  0.00  0.00    +0.000 C 
ATOM     10  N   UNL     1       6.260   1.499 -10.383  0.00  0.00    +0.000 N 
ATOM     11  H   UNL     1       5.561   0.869 -10.006  0.00  0.00    +0.000 HD
BRANCH   9  12
ATOM     12  C   UNL     1       7.748  -0.394 -10.405  0.00  0.00    +0.000 A 
ATOM     13  C   UNL     1       8.865  -0.984 -10.978  0.00  0.00    +0.000 A 
ATOM     14  S   UNL     1       8.910  -2.680 -10.800  0.00  0.00    +0.000 S 
ATOM     15  C   UNL     1       7.462  -2.680  -9.906  0.00  0.00    +0.000 A 
ATOM     16  N   UNL     1       6.941  -3.839  -9.419  0.00  0.00    +0.000 NA
ATOM     17  C   UNL     1       5.868  -3.687  -8.717  0.00  0.00    +0.000 A 
ATOM     18  N   UNL     1       5.261  -2.485  -8.467  0.00  0.00    +0.000 N 
ATOM     19  C   UNL     1       5.706  -1.301  -9.006  0.00  0.00    +0.000 A 
ATOM     20  O   UNL     1       5.058  -0.265  -8.874  0.00  0.00    +0.000 OA
ATOM     21  C   UNL     1       6.939  -1.407  -9.764  0.00  0.00    +0.000 A 
ATOM     22  H   UNL     1       4.408  -2.438  -7.933  0.00  0.00    +0.000 HD
ENDBRANCH   9  12
ENDBRANCH   7  10
ENDBRANCH   1   7
BRANCH   4  23
ATOM     23  C   UNL     1       5.847   5.078  -4.943  0.00  0.00    +0.000 C 
BRANCH  23  24
ATOM     24  O   UNL     1       5.575   4.049  -3.992  0.00  0.00    +0.000 OA
ATOM     25  H   UNL     1       4.626   3.856  -4.036  0.00  0.00    +0.000 HD
ENDBRANCH  23  24
BRANCH  23  26
ATOM     26  C   UNL     1       4.863   6.279  -4.803  0.00  0.00    +0.000 C 
BRANCH  26  27
ATOM     27  N   UNL     1       4.938   7.009  -3.519  0.00  0.00    +0.000 NA
ATOM     28  C   UNL     1       3.962   8.109  -3.456  0.00  0.00    +0.000 C 
ATOM     29  C   UNL     1       4.581   9.182  -2.559  0.00  0.00    +0.000 C 
ATOM     30  C   UNL     1       5.945   8.632  -2.177  0.00  0.00    +0.000 C 
ATOM     31  C   UNL     1       6.254   7.632  -3.287  0.00  0.00    +0.000 C 
BRANCH  30  32
ATOM     32  O   UNL     1       5.851   7.968  -0.917  0.00  0.00    +0.000 OA
ATOM     33  H   UNL     1       5.331   7.158  -1.089  0.00  0.00    +0.000 HD
ENDBRANCH  30  32
ENDBRANCH  26  27
ENDBRANCH  23  26
ENDBRANCH   4  23
TORSDOF 8
