REMARK  Name = 
REMARK  7 active torsions:
REMARK  status: ('A' for Active; 'I' for Inactive)
REMARK    1  A    between atoms: C_2  and  C_20
REMARK    2  A    between atoms: N_3  and  C_4
REMARK    3  A    between atoms: C_4  and  C_5
REMARK    4  A    between atoms: C_8  and  C_9
REMARK    5  A    between atoms: C_9  and  N_10
REMARK    6  A    between atoms: N_10  and  C_11
REMARK    7  A    between atoms: C_11  and  C_12
REMARK                            x       y       z     vdW  Elec       q    Type
REMARK                         _______ _______ _______ _____ _____    ______ ____
ROOT
ATOM      1  C   UNL     1       2.132  -1.659   1.866  0.00  0.00    +0.000 C 
ENDROOT
BRANCH   1   2
ATOM      2  C   UNL     1       3.062  -2.604   2.583  0.00  0.00    +0.000 A 
ATOM      3  C   UNL     1       4.103  -2.100   3.369  0.00  0.00    +0.000 A 
ATOM      4  C   UNL     1       4.960  -2.966   4.051  0.00  0.00    +0.000 A 
ATOM      5  C   UNL     1       4.804  -4.357   3.955  0.00  0.00    +0.000 A 
ATOM      6  C   UNL     1       3.804  -4.863   3.114  0.00  0.00    +0.000 A 
ATOM      7  C   UNL     1       2.944  -3.995   2.430  0.00  0.00    +0.000 A 
BRANCH   5   8
ATOM      8  C   UNL     1       5.682  -5.277   4.774  0.00  0.00    +0.000 C 
BRANCH   8   9
ATOM      9  N   UNL     1       5.502  -5.004   6.200  0.00  0.00    +0.000 NA
ATOM     10  H   UNL     1       4.514  -5.120   6.430  0.00  0.00    +0.000 HD
BRANCH   9  11
ATOM     11  C   UNL     1       6.312  -5.878   7.041  0.00  0.00    +0.000 C 
BRANCH  11  12
ATOM     12  C   UNL     1       6.084  -5.586   8.493  0.00  0.00    +0.000 A 
ATOM     13  C   UNL     1       5.604  -6.530   9.379  0.00  0.00    +0.000 A 
ATOM     14  N   UNL     1       5.385  -6.296  10.688  0.00  0.00    +0.000 NA
ATOM     15  C   UNL     1       5.668  -5.054  11.110  0.00  0.00    +0.000 A 
ATOM     16  N   UNL     1       6.147  -4.055  10.354  0.00  0.00    +0.000 NA
ATOM     17  C   UNL     1       6.342  -4.350   9.053  0.00  0.00    +0.000 A 
ENDBRANCH  11  12
ENDBRANCH   9  11
ENDBRANCH   8   9
ENDBRANCH   5   8
ENDBRANCH   1   2
BRANCH   1  20
ATOM     18  O   UNL     1       1.166   0.286  -0.007  0.00  0.00    +0.000 OA
ATOM     19  C   UNL     1       2.059  -0.493  -0.312  0.00  0.00    +0.000 C 
ATOM     20  N   UNL     1       2.645  -1.389   0.552  0.00  0.00    +0.000 N 
ATOM     21  H   UNL     1       3.216  -2.121   0.158  0.00  0.00    +0.000 HD
BRANCH  19  22
ATOM     22  C   UNL     1       2.477  -0.748  -1.685  0.00  0.00    +0.000 A 
ATOM     23  C   UNL     1       1.589  -0.800  -2.743  0.00  0.00    +0.000 A 
ATOM     24  S   UNL     1       2.232  -1.702  -4.056  0.00  0.00    +0.000 S 
ATOM     25  C   UNL     1       3.735  -1.886  -3.268  0.00  0.00    +0.000 A 
ATOM     26  N   UNL     1       4.723  -2.692  -3.743  0.00  0.00    +0.000 NA
ATOM     27  C   UNL     1       5.809  -2.667  -3.041  0.00  0.00    +0.000 A 
ATOM     28  N   UNL     1       6.024  -1.874  -1.943  0.00  0.00    +0.000 N 
ATOM     29  C   UNL     1       5.059  -1.027  -1.432  0.00  0.00    +0.000 A 
ATOM     30  O   UNL     1       5.286  -0.267  -0.503  0.00  0.00    +0.000 OA
ATOM     31  C   UNL     1       3.786  -1.136  -2.114  0.00  0.00    +0.000 A 
ATOM     32  H   UNL     1       6.922  -1.830  -1.491  0.00  0.00    +0.000 HD
ENDBRANCH  19  22
ENDBRANCH   1  20
TORSDOF 7
