REMARK  Name = 
REMARK  4 active torsions:
REMARK  status: ('A' for Active; 'I' for Inactive)
REMARK    1  A    between atoms: N_1  and  C_2
REMARK    2  A    between atoms: C_2  and  C_3
REMARK    3  A    between atoms: C_6  and  C_7
REMARK    4  A    between atoms: C_7  and  N_8
REMARK                            x       y       z     vdW  Elec       q    Type
REMARK                         _______ _______ _______ _____ _____    ______ ____
ROOT
ATOM      1  C   UNL     1       3.913  -1.137   1.490  0.00  0.00    +0.000 A 
ATOM      2  C   UNL     1       4.163  -2.340   0.811  0.00  0.00    +0.000 A 
ATOM      3  C   UNL     1       3.998  -3.569   1.452  0.00  0.00    +0.000 A 
ATOM      4  C   UNL     1       3.583  -3.623   2.791  0.00  0.00    +0.000 A 
ATOM      5  C   UNL     1       3.322  -2.424   3.469  0.00  0.00    +0.000 A 
ATOM      6  C   UNL     1       3.477  -1.196   2.819  0.00  0.00    +0.000 A 
ENDROOT
BRANCH   1   7
ATOM      7  C   UNL     1       4.147   0.188   0.813  0.00  0.00    +0.000 C 
BRANCH   7   8
ATOM      8  N   UNL     1       3.324   0.354  -0.383  0.00  0.00    +0.000 NA
ATOM      9  H   UNL     1       3.457   1.298  -0.742  0.00  0.00    +0.000 HD
ATOM     10  H   UNL     1       2.345   0.282  -0.117  0.00  0.00    +0.000 HD
ENDBRANCH   7   8
ENDBRANCH   1   7
BRANCH   4  11
ATOM     11  C   UNL     1       3.419  -4.947   3.492  0.00  0.00    +0.000 C 
BRANCH  11  12
ATOM     12  N   UNL     1       4.608  -5.353   4.238  0.00  0.00    +0.000 N 
ATOM     13  C   UNL     1       5.777  -5.775   3.647  0.00  0.00    +0.000 A 
ATOM     14  C   UNL     1       6.575  -6.326   4.619  0.00  0.00    +0.000 A 
ATOM     15  C   UNL     1       5.844  -6.309   5.835  0.00  0.00    +0.000 A 
ATOM     16  C   UNL     1       6.083  -6.843   7.116  0.00  0.00    +0.000 A 
ATOM     17  C   UNL     1       5.147  -6.636   8.133  0.00  0.00    +0.000 A 
ATOM     18  C   UNL     1       4.016  -5.858   7.903  0.00  0.00    +0.000 A 
ATOM     19  C   UNL     1       3.754  -5.322   6.637  0.00  0.00    +0.000 A 
ATOM     20  C   UNL     1       4.658  -5.604   5.600  0.00  0.00    +0.000 A 
ENDBRANCH  11  12
ENDBRANCH   4  11
TORSDOF 4
