REMARK  Name = 
REMARK  8 active torsions:
REMARK  status: ('A' for Active; 'I' for Inactive)
REMARK    1  A    between atoms: C_1  and  N_2
REMARK    2  A    between atoms: N_2  and  C_3
REMARK    3  A    between atoms: N_2  and  C_17
REMARK    4  A    between atoms: C_3  and  N_4
REMARK    5  A    between atoms: C_5  and  C_7
REMARK    6  A    between atoms: C_20  and  C_21
REMARK    7  A    between atoms: C_21  and  N_22
REMARK    8  A    between atoms: C_23  and  C_25
REMARK                            x       y       z     vdW  Elec       q    Type
REMARK                         _______ _______ _______ _____ _____    ______ ____
ROOT
ATOM      1  C   UNL     1       1.026  -0.080   0.122  0.00  0.00    +0.000 C 
ATOM      2  N   UNL     1       2.478   0.068   0.177  0.00  0.00    +0.000 N 
ENDROOT
BRANCH   2   3
ATOM      3  C   UNL     1       3.241  -0.913   0.815  0.00  0.00    +0.000 A 
ATOM      4  C   UNL     1       2.670  -2.031   1.453  0.00  0.00    +0.000 A 
ATOM      5  C   UNL     1       3.446  -3.008   2.105  0.00  0.00    +0.000 A 
ATOM      6  C   UNL     1       4.835  -2.895   2.154  0.00  0.00    +0.000 A 
ATOM      7  C   UNL     1       5.426  -1.803   1.518  0.00  0.00    +0.000 A 
ATOM      8  C   UNL     1       4.639  -0.827   0.887  0.00  0.00    +0.000 A 
BRANCH   6   9
ATOM      9  C   UNL     1       5.691  -3.888   2.891  0.00  0.00    +0.000 C 
BRANCH   9  10
ATOM     10  N   UNL     1       6.094  -4.996   2.060  0.00  0.00    +0.000 N 
ATOM     11  C   UNL     1       6.939  -5.972   2.535  0.00  0.00    +0.000 C 
ATOM     12  O   UNL     1       7.411  -5.943   3.670  0.00  0.00    +0.000 OA
ATOM     13  H   UNL     1       5.672  -5.089   1.148  0.00  0.00    +0.000 HD
BRANCH  11  14
ATOM     14  C   UNL     1       7.231  -7.038   1.614  0.00  0.00    +0.000 A 
ATOM     15  C   UNL     1       6.846  -7.279   0.309  0.00  0.00    +0.000 A 
ATOM     16  N   UNL     1       7.376  -8.454  -0.161  0.00  0.00    +0.000 NA
ATOM     17  C   UNL     1       8.088  -8.932   0.831  0.00  0.00    +0.000 A 
ATOM     18  N   UNL     1       8.043  -8.109   1.918  0.00  0.00    +0.000 N 
ATOM     19  H   UNL     1       8.518  -8.249   2.801  0.00  0.00    +0.000 HD
ENDBRANCH  11  14
ENDBRANCH   9  10
ENDBRANCH   6   9
ENDBRANCH   2   3
BRANCH   2  20
ATOM     20  C   UNL     1       3.096   0.941  -0.816  0.00  0.00    +0.000 C 
BRANCH  20  21
ATOM     21  N   UNL     1       3.272   2.221  -0.205  0.00  0.00    +0.000 N 
ATOM     22  C   UNL     1       3.878   3.235  -0.905  0.00  0.00    +0.000 C 
ATOM     23  O   UNL     1       4.263   3.082  -2.062  0.00  0.00    +0.000 OA
ATOM     24  H   UNL     1       3.283   2.226   0.809  0.00  0.00    +0.000 HD
BRANCH  22  25
ATOM     25  C   UNL     1       3.978   4.542  -0.241  0.00  0.00    +0.000 A 
ATOM     26  C   UNL     1       4.039   5.700  -1.006  0.00  0.00    +0.000 A 
ATOM     27  S   UNL     1       4.080   7.132  -0.080  0.00  0.00    +0.000 S 
ATOM     28  C   UNL     1       4.088   6.253   1.376  0.00  0.00    +0.000 A 
ATOM     29  N   UNL     1       4.151   6.887   2.578  0.00  0.00    +0.000 NA
ATOM     30  C   UNL     1       4.192   6.094   3.595  0.00  0.00    +0.000 A 
ATOM     31  N   UNL     1       4.166   4.721   3.523  0.00  0.00    +0.000 N 
ATOM     32  C   UNL     1       4.065   4.040   2.335  0.00  0.00    +0.000 A 
ATOM     33  O   UNL     1       4.003   2.822   2.299  0.00  0.00    +0.000 OA
ATOM     34  C   UNL     1       4.034   4.887   1.156  0.00  0.00    +0.000 A 
ATOM     35  H   UNL     1       4.198   4.159   4.357  0.00  0.00    +0.000 HD
ENDBRANCH  22  25
ENDBRANCH  20  21
ENDBRANCH   2  20
TORSDOF 7
