REMARK  Name = 
REMARK  10 active torsions:
REMARK  status: ('A' for Active; 'I' for Inactive)
REMARK    1  A    between atoms: C_2  and  C_3
REMARK    2  A    between atoms: C_3  and  C_4
REMARK    3  A    between atoms: C_4  and  N_5
REMARK    4  A    between atoms: C_4  and  C_21
REMARK    5  A    between atoms: N_5  and  C_6
REMARK    6  A    between atoms: C_6  and  C_7
REMARK    7  A    between atoms: C_10  and  C_11
REMARK    8  A    between atoms: C_11  and  O_12
REMARK    9  A    between atoms: O_12  and  C_13
REMARK   10  A    between atoms: C_13  and  C_14
REMARK                            x       y       z     vdW  Elec       q    Type
REMARK                         _______ _______ _______ _____ _____    ______ ____
ROOT
ATOM      1  N   UNL     1       3.935  -0.014  -0.079  0.00  0.00    +0.000 NA
ATOM      2  H   UNL     1       4.208   0.379   0.822  0.00  0.00    +0.000 HD
ENDROOT
BRANCH   1   3
ATOM      3  C   UNL     1       4.248   0.929  -1.158  0.00  0.00    +0.000 C 
BRANCH   3   4
ATOM      4  C   UNL     1       3.545   2.239  -0.870  0.00  0.00    +0.000 A 
ATOM      5  C   UNL     1       2.167   2.381  -0.762  0.00  0.00    +0.000 A 
ATOM      6  S   UNL     1       1.670   4.001  -0.570  0.00  0.00    +0.000 S 
ATOM      7  C   UNL     1       3.278   4.570  -0.626  0.00  0.00    +0.000 A 
ATOM      8  N   UNL     1       3.562   5.895  -0.539  0.00  0.00    +0.000 NA
ATOM      9  C   UNL     1       4.820   6.172  -0.606  0.00  0.00    +0.000 A 
ATOM     10  N   UNL     1       5.824   5.247  -0.742  0.00  0.00    +0.000 N 
ATOM     11  C   UNL     1       5.585   3.896  -0.877  0.00  0.00    +0.000 A 
ATOM     12  O   UNL     1       6.494   3.100  -1.043  0.00  0.00    +0.000 OA
ATOM     13  C   UNL     1       4.178   3.535  -0.786  0.00  0.00    +0.000 A 
ATOM     14  H   UNL     1       6.790   5.533  -0.803  0.00  0.00    +0.000 HD
ENDBRANCH   3   4
BRANCH   3  15
ATOM     15  C   UNL     1       3.797   0.369  -2.502  0.00  0.00    +0.000 C 
BRANCH  15  17
ATOM     16  N   UNL     1       4.395   2.104  -4.591  0.00  0.00    +0.000 NA
ATOM     17  C   UNL     1       4.124   1.317  -3.644  0.00  0.00    +0.000 C 
ENDBRANCH  15  17
ENDBRANCH   3  15
ENDBRANCH   1   3
BRANCH   1  18
ATOM     18  C   UNL     1       4.590  -1.320  -0.246  0.00  0.00    +0.000 C 
BRANCH  18  19
ATOM     19  C   UNL     1       4.264  -2.282   0.873  0.00  0.00    +0.000 A 
ATOM     20  C   UNL     1       5.294  -2.809   1.644  0.00  0.00    +0.000 A 
ATOM     21  C   UNL     1       4.987  -3.708   2.659  0.00  0.00    +0.000 A 
ATOM     22  C   UNL     1       3.658  -4.062   2.881  0.00  0.00    +0.000 A 
ATOM     23  C   UNL     1       2.693  -3.488   2.057  0.00  0.00    +0.000 A 
ATOM     24  N   UNL     1       2.964  -2.624   1.058  0.00  0.00    +0.000 NA
BRANCH  22  25
ATOM     25  C   UNL     1       3.251  -5.052   3.929  0.00  0.00    +0.000 C 
BRANCH  25  26
ATOM     26  O   UNL     1       3.642  -4.592   5.221  0.00  0.00    +0.000 OA
BRANCH  26  27
ATOM     27  C   UNL     1       3.232  -5.539   6.217  0.00  0.00    +0.000 C 
BRANCH  27  28
ATOM     28  C   UNL     1       3.651  -5.033   7.551  0.00  0.00    +0.000 A 
ATOM     29  N   UNL     1       3.455  -5.629   8.713  0.00  0.00    +0.000 NA
ATOM     30  C   UNL     1       4.002  -4.798   9.652  0.00  0.00    +0.000 A 
ATOM     31  C   UNL     1       4.541  -3.679   9.061  0.00  0.00    +0.000 A 
ATOM     32  N   UNL     1       4.313  -3.843   7.724  0.00  0.00    +0.000 N 
ATOM     33  H   UNL     1       4.570  -3.218   6.971  0.00  0.00    +0.000 HD
ENDBRANCH  27  28
ENDBRANCH  26  27
ENDBRANCH  25  26
ENDBRANCH  22  25
ENDBRANCH  18  19
ENDBRANCH   1  18
TORSDOF 10
