REMARK  Name = 
REMARK  6 active torsions:
REMARK  status: ('A' for Active; 'I' for Inactive)
REMARK    1  A    between atoms: N_1  and  C_2
REMARK    2  A    between atoms: C_2  and  C_3
REMARK    3  A    between atoms: C_6  and  C_7
REMARK    4  A    between atoms: C_7  and  N_8
REMARK    5  A    between atoms: CA_13  and  C_14
REMARK    6  A    between atoms: C_14  and  OXT_16
REMARK                            x       y       z     vdW  Elec       q    Type
REMARK                         _______ _______ _______ _____ _____    ______ ____
ROOT
ATOM      1  N   UNL     1       3.237   5.172  -3.788  0.00  0.00    +0.000 N 
ATOM      2  C   UNL     1       3.545   6.070  -4.823  0.00  0.00    +0.000 A 
ATOM      3  C   UNL     1       3.111   7.391  -4.714  0.00  0.00    +0.000 A 
ATOM      4  C   UNL     1       3.383   8.297  -5.741  0.00  0.00    +0.000 A 
ATOM      5  C   UNL     1       4.082   7.867  -6.860  0.00  0.00    +0.000 A 
ATOM      6  CA  UNL     1       4.469   6.539  -6.895  0.00  0.00    +0.000 A 
ATOM      7  N   UNL     1       4.212   5.633  -5.910  0.00  0.00    +0.000 NA
ATOM      8  H   UNL     1       3.547   5.552  -2.898  0.00  0.00    +0.000 HD
ENDROOT
BRANCH   6   9
ATOM      9  C   UNL     1       5.234   6.002  -8.055  0.00  0.00    +0.000 C 
ATOM     10  O   UNL     1       5.571   6.647  -9.029  0.00  0.00    +0.000 OA
BRANCH   9  11
ATOM     11  OXT UNL     1       5.514   4.686  -7.872  0.00  0.00    +0.000 OA
ATOM     12  HXT UNL     1       5.127   4.403  -7.011  0.00  0.00    +0.000 HD
ENDBRANCH   9  11
ENDBRANCH   6   9
BRANCH   1  13
ATOM     13  C   UNL     1       3.738   3.826  -4.030  0.00  0.00    +0.000 C 
BRANCH  13  17
ATOM     14  C   UNL     1       3.085   1.136  -0.804  0.00  0.00    +0.000 A 
ATOM     15  C   UNL     1       2.082   1.275  -1.761  0.00  0.00    +0.000 A 
ATOM     16  C   UNL     1       2.264   2.180  -2.802  0.00  0.00    +0.000 A 
ATOM     17  C   UNL     1       3.445   2.920  -2.872  0.00  0.00    +0.000 A 
ATOM     18  C   UNL     1       4.373   2.744  -1.852  0.00  0.00    +0.000 A 
ATOM     19  N   UNL     1       4.224   1.873  -0.830  0.00  0.00    +0.000 NA
BRANCH  14  20
ATOM     20  C   UNL     1       2.955   0.090   0.282  0.00  0.00    +0.000 C 
BRANCH  20  21
ATOM     21  N   UNL     1       2.906  -1.271  -0.263  0.00  0.00    +0.000 NA
ATOM     22  H   UNL     1       2.942  -1.934   0.508  0.00  0.00    +0.000 HD
ATOM     23  H   UNL     1       3.760  -1.420  -0.802  0.00  0.00    +0.000 HD
ENDBRANCH  20  21
ENDBRANCH  14  20
ENDBRANCH  13  17
ENDBRANCH   1  13
TORSDOF 6
