REMARK  Name = 
REMARK  5 active torsions:
REMARK  status: ('A' for Active; 'I' for Inactive)
REMARK    1  A    between atoms: C_1  and  C_2
REMARK    2  A    between atoms: C_2  and  C_3
REMARK    3  A    between atoms: C_2  and  C_14
REMARK    4  A    between atoms: C_3  and  N_4
REMARK    5  A    between atoms: C_8  and  C_9
REMARK                            x       y       z     vdW  Elec       q    Type
REMARK                         _______ _______ _______ _____ _____    ______ ____
ROOT
ATOM      1  N   UNL     1       2.783   0.362   2.485  0.00  0.00    +0.000 N 
ATOM      2  C   UNL     1       3.412   0.002   3.666  0.00  0.00    +0.000 A 
ATOM      3  N   UNL     1       4.604  -0.611   3.628  0.00  0.00    +0.000 NA
ATOM      4  C   UNL     1       5.157  -0.964   4.804  0.00  0.00    +0.000 A 
ATOM      5  C   UNL     1       4.578  -0.708   6.022  0.00  0.00    +0.000 A 
ATOM      6  C   UNL     1       3.356  -0.078   5.962  0.00  0.00    +0.000 A 
ATOM      7  N   UNL     1       2.756   0.283   4.803  0.00  0.00    +0.000 NA
ATOM      8  H   UNL     1       1.795   0.422   2.699  0.00  0.00    +0.000 HD
ENDROOT
BRANCH   5   9
ATOM      9  C   UNL     1       5.245  -1.141   7.255  0.00  0.00    +0.000 C 
ATOM     10  N   UNL     1       4.945  -0.488   8.416  0.00  0.00    +0.000 N 
ATOM     11  O   UNL     1       6.072  -2.043   7.235  0.00  0.00    +0.000 OA
ATOM     12  H   UNL     1       4.469   0.402   8.454  0.00  0.00    +0.000 HD
ATOM     13  H   UNL     1       5.507  -0.745   9.220  0.00  0.00    +0.000 HD
ENDBRANCH   5   9
BRANCH   1  14
ATOM     14  C   UNL     1       3.109  -0.506   1.369  0.00  0.00    +0.000 C 
BRANCH  14  16
ATOM     15  C   UNL     1       2.802   1.268  -0.478  0.00  0.00    +0.000 C 
ATOM     16  C   UNL     1       2.370  -0.012   0.163  0.00  0.00    +0.000 C 
BRANCH  16  17
ATOM     17  C   UNL     1       0.985  -0.446  -0.023  0.00  0.00    +0.000 A 
ATOM     18  C   UNL     1       0.694  -1.634  -0.699  0.00  0.00    +0.000 A 
ATOM     19  C   UNL     1      -0.634  -2.035  -0.860  0.00  0.00    +0.000 A 
ATOM     20  C   UNL     1      -1.668  -1.259  -0.336  0.00  0.00    +0.000 A 
ATOM     21  C   UNL     1      -1.380  -0.076   0.342  0.00  0.00    +0.000 A 
ATOM     22  C   UNL     1      -0.057   0.333   0.489  0.00  0.00    +0.000 A 
ENDBRANCH  16  17
ENDBRANCH  14  16
ENDBRANCH   1  14
TORSDOF 4
