REMARK  Name = 
REMARK  7 active torsions:
REMARK  status: ('A' for Active; 'I' for Inactive)
REMARK    1  A    between atoms: N_1  and  C_2
REMARK    2  A    between atoms: C_2  and  C_3
REMARK    3  A    between atoms: C_6  and  C_7
REMARK    4  A    between atoms: C_7  and  C_8
REMARK    5  A    between atoms: C_11  and  C_12
REMARK    6  A    between atoms: C_12  and  N_13
REMARK    7  A    between atoms: C_14  and  C_16
REMARK                            x       y       z     vdW  Elec       q    Type
REMARK                         _______ _______ _______ _____ _____    ______ ____
ROOT
ATOM      1  C   UNL     1       4.089   2.998   5.527  0.00  0.00    +0.000 A 
ATOM      2  N   UNL     1       5.228   3.710   5.649  0.00  0.00    +0.000 NA
ATOM      3  C   UNL     1       5.098   5.050   5.727  0.00  0.00    +0.000 A 
ATOM      4  C   UNL     1       3.888   5.713   5.690  0.00  0.00    +0.000 A 
ATOM      5  C   UNL     1       2.787   4.892   5.580  0.00  0.00    +0.000 A 
ATOM      6  N   UNL     1       2.855   3.544   5.501  0.00  0.00    +0.000 NA
ENDROOT
BRANCH   1   7
ATOM      7  C   UNL     1       4.210   1.517   5.265  0.00  0.00    +0.000 C 
BRANCH   7  11
ATOM      8  C   UNL     1       4.313  -1.153   8.595  0.00  0.00    +0.000 A 
ATOM      9  C   UNL     1       5.405  -1.120   7.734  0.00  0.00    +0.000 A 
ATOM     10  C   UNL     1       5.399  -0.220   6.669  0.00  0.00    +0.000 A 
ATOM     11  C   UNL     1       4.306   0.625   6.475  0.00  0.00    +0.000 A 
ATOM     12  C   UNL     1       3.268   0.537   7.396  0.00  0.00    +0.000 A 
ATOM     13  N   UNL     1       3.252  -0.329   8.448  0.00  0.00    +0.000 NA
BRANCH   8  14
ATOM     14  C   UNL     1       4.263  -2.159   9.726  0.00  0.00    +0.000 C 
BRANCH  14  15
ATOM     15  N   UNL     1       5.384  -2.028  10.662  0.00  0.00    +0.000 NA
ATOM     16  H   UNL     1       5.221  -2.654  11.448  0.00  0.00    +0.000 HD
ATOM     17  H   UNL     1       5.356  -1.083  11.047  0.00  0.00    +0.000 HD
ENDBRANCH  14  15
ENDBRANCH   8  14
ENDBRANCH   7  11
ENDBRANCH   1   7
BRANCH   4  18
ATOM     18  C   UNL     1       3.796   7.202   5.752  0.00  0.00    +0.000 C 
BRANCH  18  19
ATOM     19  N   UNL     1       3.883   7.820   4.451  0.00  0.00    +0.000 N 
ATOM     20  C   UNL     1       3.769   9.187   4.329  0.00  0.00    +0.000 C 
ATOM     21  O   UNL     1       3.530   9.898   5.302  0.00  0.00    +0.000 OA
ATOM     22  H   UNL     1       4.353   7.304   3.711  0.00  0.00    +0.000 HD
BRANCH  20  23
ATOM     23  C   UNL     1       3.856   9.746   2.975  0.00  0.00    +0.000 A 
ATOM     24  C   UNL     1       3.683  11.109   2.760  0.00  0.00    +0.000 A 
ATOM     25  S   UNL     1       3.451  11.502   1.112  0.00  0.00    +0.000 S 
ATOM     26  C   UNL     1       3.668   9.880   0.643  0.00  0.00    +0.000 A 
ATOM     27  N   UNL     1       3.476   9.471  -0.639  0.00  0.00    +0.000 NA
ATOM     28  C   UNL     1       3.739   8.222  -0.844  0.00  0.00    +0.000 A 
ATOM     29  N   UNL     1       4.233   7.360   0.104  0.00  0.00    +0.000 N 
ATOM     30  C   UNL     1       4.473   7.743   1.397  0.00  0.00    +0.000 A 
ATOM     31  O   UNL     1       5.027   7.002   2.205  0.00  0.00    +0.000 OA
ATOM     32  C   UNL     1       4.053   9.092   1.710  0.00  0.00    +0.000 A 
ATOM     33  H   UNL     1       4.507   6.421  -0.145  0.00  0.00    +0.000 HD
ENDBRANCH  20  23
ENDBRANCH  18  19
ENDBRANCH   4  18
TORSDOF 7
