REMARK  Name = 
REMARK  4 active torsions:
REMARK  status: ('A' for Active; 'I' for Inactive)
REMARK    1  A    between atoms: C_2  and  C_4
REMARK    2  A    between atoms: C_7  and  C_8
REMARK    3  A    between atoms: C_8  and  S_9
REMARK    4  A    between atoms: S_9  and  C_10
REMARK                            x       y       z     vdW  Elec       q    Type
REMARK                         _______ _______ _______ _____ _____    ______ ____
ROOT
ATOM      1  C   UNL     1       3.240   0.526  -1.230  0.00  0.00    +0.000 A 
ATOM      2  C   UNL     1       2.771   1.724  -1.774  0.00  0.00    +0.000 A 
ATOM      3  C   UNL     1       3.411   2.291  -2.879  0.00  0.00    +0.000 A 
ATOM      4  C   UNL     1       4.556   1.700  -3.439  0.00  0.00    +0.000 A 
ATOM      5  C   UNL     1       5.020   0.497  -2.882  0.00  0.00    +0.000 A 
ATOM      6  C   UNL     1       4.372  -0.082  -1.785  0.00  0.00    +0.000 A 
ENDROOT
BRANCH   1   8
ATOM      7  N   UNL     1       1.234   0.128   0.089  0.00  0.00    +0.000 N 
ATOM      8  C   UNL     1       2.569  -0.123  -0.075  0.00  0.00    +0.000 C 
ATOM      9  O   UNL     1       3.165  -0.883   0.676  0.00  0.00    +0.000 OA
ATOM     10  H   UNL     1       0.762  -0.401   0.812  0.00  0.00    +0.000 HD
ATOM     11  H   UNL     1       0.666   0.537  -0.639  0.00  0.00    +0.000 HD
ENDBRANCH   1   8
BRANCH   4  12
ATOM     12  C   UNL     1       5.247   2.278  -4.663  0.00  0.00    +0.000 C 
BRANCH  12  13
ATOM     13  S   UNL     1       5.338   4.105  -4.651  0.00  0.00    +0.000 S 
BRANCH  13  14
ATOM     14  C   UNL     1       5.989   4.535  -6.257  0.00  0.00    +0.000 A 
ATOM     15  C   UNL     1       6.580   3.648  -7.154  0.00  0.00    +0.000 A 
ATOM     16  C   UNL     1       7.085   4.151  -8.344  0.00  0.00    +0.000 A 
ATOM     17  N   UNL     1       7.039   5.453  -8.697  0.00  0.00    +0.000 NA
ATOM     18  C   UNL     1       6.463   6.295  -7.817  0.00  0.00    +0.000 A 
ATOM     19  C   UNL     1       5.930   5.888  -6.606  0.00  0.00    +0.000 A 
ENDBRANCH  13  14
ENDBRANCH  12  13
ENDBRANCH   4  12
TORSDOF 4
