REMARK  Name = 
REMARK  5 active torsions:
REMARK  status: ('A' for Active; 'I' for Inactive)
REMARK    1  A    between atoms: C_2  and  C_4
REMARK    2  A    between atoms: C_7  and  N_8
REMARK    3  A    between atoms: N_8  and  C_9
REMARK    4  A    between atoms: C_9  and  C_10
REMARK    5  A    between atoms: C_12  and  N_13
REMARK                            x       y       z     vdW  Elec       q    Type
REMARK                         _______ _______ _______ _____ _____    ______ ____
ROOT
ATOM      1  C   UNL     1       5.082  -4.128  -4.574  0.00  0.00    +0.000 C 
ENDROOT
BRANCH   1   2
ATOM      2  C   UNL     1       5.957  -5.257  -5.094  0.00  0.00    +0.000 A 
ATOM      3  C   UNL     1       7.141  -4.996  -5.779  0.00  0.00    +0.000 A 
ATOM      4  C   UNL     1       7.871  -6.047  -6.351  0.00  0.00    +0.000 A 
ATOM      5  C   UNL     1       7.363  -7.336  -6.179  0.00  0.00    +0.000 A 
ATOM      6  C   UNL     1       6.210  -7.522  -5.450  0.00  0.00    +0.000 A 
ATOM      7  N   UNL     1       5.492  -6.517  -4.908  0.00  0.00    +0.000 NA
BRANCH   4   8
ATOM      8  N   UNL     1       9.037  -5.842  -7.054  0.00  0.00    +0.000 N 
ATOM      9  C   UNL     1       9.945  -4.730  -6.758  0.00  0.00    +0.000 C 
ATOM     10  C   UNL     1      10.171  -3.856  -8.008  0.00  0.00    +0.000 C 
ATOM     11  N   UNL     1      10.585  -4.623  -9.204  0.00  0.00    +0.000 NA
ATOM     12  C   UNL     1       9.584  -5.682  -9.462  0.00  0.00    +0.000 C 
ATOM     13  C   UNL     1       9.348  -6.625  -8.258  0.00  0.00    +0.000 C 
ATOM     14  H   UNL     1      11.474  -5.077  -8.994  0.00  0.00    +0.000 HD
ENDBRANCH   4   8
ENDBRANCH   1   2
BRANCH   1  15
ATOM     15  N   UNL     1       5.790  -3.282  -3.613  0.00  0.00    +0.000 N 
ATOM     16  H   UNL     1       6.275  -3.834  -2.907  0.00  0.00    +0.000 HD
BRANCH  15  20
ATOM     17  C   UNL     1       3.967   0.157  -1.950  0.00  0.00    +0.000 A 
ATOM     18  C   UNL     1       3.216  -0.689  -2.767  0.00  0.00    +0.000 A 
ATOM     19  C   UNL     1       3.803  -1.836  -3.319  0.00  0.00    +0.000 A 
ATOM     20  C   UNL     1       5.134  -2.182  -3.046  0.00  0.00    +0.000 A 
ATOM     21  C   UNL     1       5.873  -1.315  -2.228  0.00  0.00    +0.000 A 
ATOM     22  C   UNL     1       5.303  -0.153  -1.691  0.00  0.00    +0.000 A 
BRANCH  17  24
ATOM     23  N   UNL     1       2.058   1.435  -1.140  0.00  0.00    +0.000 N 
ATOM     24  C   UNL     1       3.402   1.408  -1.384  0.00  0.00    +0.000 C 
ATOM     25  O   UNL     1       4.111   2.370  -1.109  0.00  0.00    +0.000 OA
ATOM     26  H   UNL     1       1.710   2.244  -0.645  0.00  0.00    +0.000 HD
ATOM     27  H   UNL     1       1.506   0.587  -1.099  0.00  0.00    +0.000 HD
ENDBRANCH  17  24
ENDBRANCH  15  20
ENDBRANCH   1  15
TORSDOF 5
