REMARK  Name = 
REMARK  5 active torsions:
REMARK  status: ('A' for Active; 'I' for Inactive)
REMARK    1  A    between atoms: N_1  and  C_2
REMARK    2  A    between atoms: C_2  and  C_3
REMARK    3  A    between atoms: C_6  and  C_7
REMARK    4  A    between atoms: C_7  and  N_8
REMARK    5  A    between atoms: C_13  and  C_14
REMARK                            x       y       z     vdW  Elec       q    Type
REMARK                         _______ _______ _______ _____ _____    ______ ____
ROOT
ATOM      1  N   UNL     1       0.305  -0.962   5.277  0.00  0.00    +0.000 N 
ATOM      2  C   UNL     1       0.710  -1.131   6.583  0.00  0.00    +0.000 A 
ATOM      3  C   UNL     1       0.198  -2.326   7.036  0.00  0.00    +0.000 A 
ATOM      4  C   UNL     1      -0.611  -2.862   6.003  0.00  0.00    +0.000 A 
ATOM      5  C   UNL     1      -1.406  -4.014   5.872  0.00  0.00    +0.000 A 
ATOM      6  C   UNL     1      -2.118  -4.186   4.682  0.00  0.00    +0.000 A 
ATOM      7  C   UNL     1      -1.969  -3.224   3.682  0.00  0.00    +0.000 A 
ATOM      8  N   UNL     1      -1.188  -2.110   3.744  0.00  0.00    +0.000 NA
ATOM      9  C   UNL     1      -0.547  -1.982   4.924  0.00  0.00    +0.000 A 
ENDROOT
BRANCH   6  10
ATOM     10  C   UNL     1      -3.034  -5.326   4.437  0.00  0.00    +0.000 C 
ATOM     11  N   UNL     1      -3.213  -6.253   5.430  0.00  0.00    +0.000 N 
ATOM     12  O   UNL     1      -3.638  -5.442   3.377  0.00  0.00    +0.000 OA
ATOM     13  H   UNL     1      -2.786  -6.224   6.342  0.00  0.00    +0.000 HD
ATOM     14  H   UNL     1      -3.862  -7.004   5.240  0.00  0.00    +0.000 HD
ENDBRANCH   6  10
BRANCH   1  15
ATOM     15  C   UNL     1       0.756   0.121   4.409  0.00  0.00    +0.000 C 
BRANCH  15  19
ATOM     16  C   UNL     1       3.129   0.129   1.331  0.00  0.00    +0.000 C 
ATOM     17  C   UNL     1       2.592  -1.127   2.036  0.00  0.00    +0.000 C 
ATOM     18  C   UNL     1       2.838  -1.112   3.544  0.00  0.00    +0.000 C 
ATOM     19  C   UNL     1       2.293   0.150   4.236  0.00  0.00    +0.000 C 
ATOM     20  C   UNL     1       2.769   1.421   3.513  0.00  0.00    +0.000 C 
ATOM     21  C   UNL     1       2.550   1.387   2.001  0.00  0.00    +0.000 C 
BRANCH  16  22
ATOM     22  C   UNL     1       4.670   0.187   1.269  0.00  0.00    +0.000 C 
BRANCH  22  23
ATOM     23  N   UNL     1       5.228  -0.928   0.508  0.00  0.00    +0.000 NA
ATOM     24  H   UNL     1       6.243  -0.846   0.479  0.00  0.00    +0.000 HD
ATOM     25  H   UNL     1       4.910  -0.875  -0.459  0.00  0.00    +0.000 HD
ENDBRANCH  22  23
ENDBRANCH  16  22
ENDBRANCH  15  19
ENDBRANCH   1  15
TORSDOF 5
