REMARK  Name = 
REMARK  4 active torsions:
REMARK  status: ('A' for Active; 'I' for Inactive)
REMARK    1  A    between atoms: C_2  and  C_4
REMARK    2  A    between atoms: N_8  and  C_9
REMARK    3  A    between atoms: C_9  and  C_10
REMARK    4  A    between atoms: C_14  and  C_15
REMARK                            x       y       z     vdW  Elec       q    Type
REMARK                         _______ _______ _______ _____ _____    ______ ____
ROOT
ATOM      1  C   UNL     1       6.062   5.026   1.207  0.00  0.00    +0.000 C 
ATOM      2  C   UNL     1       6.101   5.733  -0.142  0.00  0.00    +0.000 C 
ATOM      3  C   UNL     1       6.945   4.523   0.089  0.00  0.00    +0.000 C 
ENDROOT
BRANCH   1   8
ATOM      4  C   UNL     1       4.119   0.646   3.013  0.00  0.00    +0.000 A 
ATOM      5  C   UNL     1       3.428   1.750   3.447  0.00  0.00    +0.000 A 
ATOM      6  N   UNL     1       3.675   3.000   2.997  0.00  0.00    +0.000 NA
ATOM      7  C   UNL     1       4.669   3.149   2.104  0.00  0.00    +0.000 A 
ATOM      8  N   UNL     1       4.760   4.421   1.540  0.00  0.00    +0.000 N 
ATOM      9  N   UNL     1       5.458   2.143   1.692  0.00  0.00    +0.000 NA
ATOM     10  C   UNL     1       5.162   0.904   2.155  0.00  0.00    +0.000 A 
ATOM     11  H   UNL     1       4.162   4.995   2.129  0.00  0.00    +0.000 HD
BRANCH   4  13
ATOM     12  N   UNL     1       2.459  -0.991   3.683  0.00  0.00    +0.000 N 
ATOM     13  C   UNL     1       3.772  -0.727   3.395  0.00  0.00    +0.000 C 
ATOM     14  O   UNL     1       4.614  -1.613   3.396  0.00  0.00    +0.000 OA
ATOM     15  H   UNL     1       2.225  -1.968   3.809  0.00  0.00    +0.000 HD
ATOM     16  H   UNL     1       1.706  -0.371   3.443  0.00  0.00    +0.000 HD
ENDBRANCH   4  13
ENDBRANCH   1   8
BRANCH   1  17
ATOM     17  C   UNL     1       6.673   5.714   2.422  0.00  0.00    +0.000 A 
ATOM     18  C   UNL     1       6.418   7.069   2.684  0.00  0.00    +0.000 A 
ATOM     19  C   UNL     1       6.732   7.638   3.912  0.00  0.00    +0.000 A 
ATOM     20  C   UNL     1       7.294   6.851   4.914  0.00  0.00    +0.000 A 
ATOM     21  C   UNL     1       7.579   5.490   4.706  0.00  0.00    +0.000 A 
ATOM     22  C   UNL     1       7.311   4.959   3.431  0.00  0.00    +0.000 A 
BRANCH  21  23
ATOM     23  C   UNL     1       8.018   4.630   5.829  0.00  0.00    +0.000 A 
ATOM     24  C   UNL     1       7.478   4.811   7.112  0.00  0.00    +0.000 A 
ATOM     25  C   UNL     1       7.878   3.985   8.151  0.00  0.00    +0.000 A 
ATOM     26  N   UNL     1       8.767   2.985   8.008  0.00  0.00    +0.000 NA
ATOM     27  C   UNL     1       9.272   2.806   6.770  0.00  0.00    +0.000 A 
ATOM     28  C   UNL     1       8.938   3.587   5.670  0.00  0.00    +0.000 A 
ENDBRANCH  21  23
ENDBRANCH   1  17
TORSDOF 4
