REMARK  Name = 
REMARK  7 active torsions:
REMARK  status: ('A' for Active; 'I' for Inactive)
REMARK    1  A    between atoms: C_1  and  O_2
REMARK    2  A    between atoms: O_2  and  C_3
REMARK    3  A    between atoms: C_5  and  C_6
REMARK    4  A    between atoms: C_6  and  N_7
REMARK    5  A    between atoms: N_7  and  C_8
REMARK    6  A    between atoms: C_11  and  C_12
REMARK    7  A    between atoms: C_21  and  C_22
REMARK                            x       y       z     vdW  Elec       q    Type
REMARK                         _______ _______ _______ _____ _____    ______ ____
ROOT
ATOM      1  C   UNL     1       3.189  -4.312  -1.988  0.00  0.00    +0.000 C 
ATOM      2  C   UNL     1       3.204  -4.119  -3.492  0.00  0.00    +0.000 C 
ATOM      3  C   UNL     1       1.892  -4.227  -2.792  0.00  0.00    +0.000 C 
ENDROOT
BRANCH   1   6
ATOM      4  C   UNL     1       5.197  -1.399  -0.423  0.00  0.00    +0.000 A 
ATOM      5  C   UNL     1       4.851  -2.554  -1.147  0.00  0.00    +0.000 A 
ATOM      6  C   UNL     1       3.557  -3.112  -1.116  0.00  0.00    +0.000 A 
ATOM      7  C   UNL     1       2.617  -2.493  -0.282  0.00  0.00    +0.000 A 
ATOM      8  C   UNL     1       2.929  -1.330   0.425  0.00  0.00    +0.000 A 
ATOM      9  C   UNL     1       4.208  -0.756   0.344  0.00  0.00    +0.000 A 
BRANCH   9  10
ATOM     10  C   UNL     1       4.395   0.537   1.078  0.00  0.00    +0.000 C 
ATOM     11  N   UNL     1       5.605   1.160   1.000  0.00  0.00    +0.000 N 
ATOM     12  O   UNL     1       3.486   1.050   1.722  0.00  0.00    +0.000 OA
ATOM     13  H   UNL     1       6.368   0.763   0.463  0.00  0.00    +0.000 HD
ATOM     14  H   UNL     1       5.726   2.048   1.463  0.00  0.00    +0.000 HD
ENDBRANCH   9  10
BRANCH   4  16
ATOM     15  C   UNL     1       7.496  -1.599  -1.065  0.00  0.00    +0.000 C 
ATOM     16  O   UNL     1       6.455  -0.849  -0.448  0.00  0.00    +0.000 OA
ENDBRANCH   4  16
ENDBRANCH   1   6
BRANCH   1  17
ATOM     17  N   UNL     1       3.395  -5.621  -1.355  0.00  0.00    +0.000 N 
ATOM     18  H   UNL     1       2.749  -5.850  -0.607  0.00  0.00    +0.000 HD
BRANCH  17  19
ATOM     19  C   UNL     1       4.579  -6.378  -1.316  0.00  0.00    +0.000 A 
ATOM     20  C   UNL     1       5.722  -6.104  -2.071  0.00  0.00    +0.000 A 
ATOM     21  C   UNL     1       6.828  -6.967  -2.039  0.00  0.00    +0.000 A 
ATOM     22  C   UNL     1       6.803  -8.135  -1.265  0.00  0.00    +0.000 A 
ATOM     23  C   UNL     1       5.659  -8.432  -0.524  0.00  0.00    +0.000 A 
ATOM     24  C   UNL     1       4.565  -7.560  -0.557  0.00  0.00    +0.000 A 
BRANCH  22  25
ATOM     25  C   UNL     1       7.968  -9.061  -1.304  0.00  0.00    +0.000 C 
ATOM     26  N   UNL     1       8.131  -9.915  -0.247  0.00  0.00    +0.000 N 
ATOM     27  O   UNL     1       8.765  -9.055  -2.233  0.00  0.00    +0.000 OA
ATOM     28  H   UNL     1       7.635  -9.819   0.626  0.00  0.00    +0.000 HD
ATOM     29  H   UNL     1       8.957 -10.501  -0.258  0.00  0.00    +0.000 HD
ENDBRANCH  22  25
ENDBRANCH  17  19
ENDBRANCH   1  17
TORSDOF 6
