REMARK  Name = 
REMARK  8 active torsions:
REMARK  status: ('A' for Active; 'I' for Inactive)
REMARK    1  A    between atoms: N_1  and  C_2
REMARK    2  A    between atoms: C_2  and  C_3
REMARK    3  A    between atoms: C_3  and  N_4
REMARK    4  A    between atoms: C_3  and  C_17
REMARK    5  A    between atoms: C_5  and  C_7
REMARK    6  A    between atoms: C_20  and  C_21
REMARK    7  A    between atoms: C_21  and  N_22
REMARK    8  A    between atoms: C_23  and  C_25
REMARK                            x       y       z     vdW  Elec       q    Type
REMARK                         _______ _______ _______ _____ _____    ______ ____
ROOT
ATOM      1  C   UNL     1       3.030  -1.106  -0.911  0.00  0.00    +0.000 C 
ENDROOT
BRANCH   1   2
ATOM      2  C   UNL     1       4.553  -1.207  -0.785  0.00  0.00    +0.000 A 
ATOM      3  C   UNL     1       5.106  -1.967   0.261  0.00  0.00    +0.000 A 
ATOM      4  C   UNL     1       6.493  -2.047   0.459  0.00  0.00    +0.000 A 
ATOM      5  C   UNL     1       7.380  -1.383  -0.396  0.00  0.00    +0.000 A 
ATOM      6  C   UNL     1       6.840  -0.678  -1.480  0.00  0.00    +0.000 A 
ATOM      7  C   UNL     1       5.449  -0.581  -1.665  0.00  0.00    +0.000 A 
BRANCH   5   8
ATOM      8  C   UNL     1       8.868  -1.381  -0.138  0.00  0.00    +0.000 C 
BRANCH   8   9
ATOM      9  N   UNL     1       9.585  -2.459  -0.767  0.00  0.00    +0.000 N 
ATOM     10  C   UNL     1      10.950  -2.589  -0.627  0.00  0.00    +0.000 C 
ATOM     11  O   UNL     1      11.643  -1.804   0.011  0.00  0.00    +0.000 OA
ATOM     12  H   UNL     1       9.111  -3.167  -1.321  0.00  0.00    +0.000 HD
BRANCH  10  13
ATOM     13  C   UNL     1      11.496  -3.756  -1.323  0.00  0.00    +0.000 A 
ATOM     14  C   UNL     1      12.827  -4.137  -1.368  0.00  0.00    +0.000 A 
ATOM     15  N   UNL     1      12.867  -5.246  -2.164  0.00  0.00    +0.000 N 
ATOM     16  C   UNL     1      11.589  -5.506  -2.576  0.00  0.00    +0.000 A 
ATOM     17  N   UNL     1      10.736  -4.642  -2.071  0.00  0.00    +0.000 NA
ATOM     18  H   UNL     1      13.691  -5.773  -2.418  0.00  0.00    +0.000 HD
ENDBRANCH  10  13
ENDBRANCH   8   9
ENDBRANCH   5   8
ENDBRANCH   1   2
BRANCH   1  19
ATOM     19  N   UNL     1       2.510   0.026  -0.133  0.00  0.00    +0.000 N 
ATOM     20  C   UNL     1       1.226   0.031   0.380  0.00  0.00    +0.000 C 
ATOM     21  O   UNL     1       0.467  -0.922   0.260  0.00  0.00    +0.000 OA
ATOM     22  H   UNL     1       3.049   0.882  -0.129  0.00  0.00    +0.000 HD
BRANCH  20  23
ATOM     23  C   UNL     1       0.834   1.226   1.140  0.00  0.00    +0.000 A 
ATOM     24  C   UNL     1      -0.075   1.120   2.185  0.00  0.00    +0.000 A 
ATOM     25  S   UNL     1      -0.413   2.604   2.957  0.00  0.00    +0.000 S 
ATOM     26  C   UNL     1       0.608   3.451   1.892  0.00  0.00    +0.000 A 
ATOM     27  N   UNL     1       0.749   4.802   1.980  0.00  0.00    +0.000 NA
ATOM     28  C   UNL     1       1.521   5.315   1.084  0.00  0.00    +0.000 A 
ATOM     29  N   UNL     1       2.175   4.599   0.112  0.00  0.00    +0.000 N 
ATOM     30  C   UNL     1       2.095   3.232   0.010  0.00  0.00    +0.000 A 
ATOM     31  O   UNL     1       2.743   2.611  -0.830  0.00  0.00    +0.000 OA
ATOM     32  C   UNL     1       1.218   2.607   0.979  0.00  0.00    +0.000 A 
ATOM     33  H   UNL     1       2.771   5.064  -0.556  0.00  0.00    +0.000 HD
ENDBRANCH  20  23
ENDBRANCH   1  19
BRANCH   1  34
ATOM     34  C   UNL     1       2.491  -1.093  -2.380  0.00  0.00    +0.000 C 
BRANCH  34  35
ATOM     35  N   UNL     1       2.756  -2.326  -3.139  0.00  0.00    +0.000 NA
ATOM     36  H   UNL     1       2.133  -2.366  -3.946  0.00  0.00    +0.000 HD
ATOM     37  H   UNL     1       2.528  -3.137  -2.565  0.00  0.00    +0.000 HD
ENDBRANCH  34  35
ENDBRANCH   1  34
TORSDOF 8
