REMARK  Name = 
REMARK  7 active torsions:
REMARK  status: ('A' for Active; 'I' for Inactive)
REMARK    1  A    between atoms: C_2  and  C_21
REMARK    2  A    between atoms: N_3  and  C_4
REMARK    3  A    between atoms: C_4  and  C_5
REMARK    4  A    between atoms: C_8  and  C_9
REMARK    5  A    between atoms: C_9  and  N_10
REMARK    6  A    between atoms: N_10  and  C_11
REMARK    7  A    between atoms: C_11  and  C_12
REMARK                            x       y       z     vdW  Elec       q    Type
REMARK                         _______ _______ _______ _____ _____    ______ ____
ROOT
ATOM      1  C   UNL     1       3.286  -1.756  -3.294  0.00  0.00    +0.000 A 
ATOM      2  C   UNL     1       4.152  -0.950  -4.047  0.00  0.00    +0.000 A 
ATOM      3  C   UNL     1       4.969  -1.506  -5.041  0.00  0.00    +0.000 A 
ATOM      4  C   UNL     1       4.956  -2.885  -5.293  0.00  0.00    +0.000 A 
ATOM      5  C   UNL     1       4.122  -3.685  -4.507  0.00  0.00    +0.000 A 
ATOM      6  F   UNL     1       4.077  -5.010  -4.712  0.00  0.00    +0.000 F 
ATOM      7  C   UNL     1       3.308  -3.140  -3.511  0.00  0.00    +0.000 A 
ENDROOT
BRANCH   1   8
ATOM      8  C   UNL     1       2.335  -1.150  -2.291  0.00  0.00    +0.000 C 
BRANCH   8  11
ATOM      9  O   UNL     1       1.094   0.027  -0.101  0.00  0.00    +0.000 OA
ATOM     10  C   UNL     1       2.219  -0.439   0.047  0.00  0.00    +0.000 C 
ATOM     11  N   UNL     1       2.936  -0.981  -0.996  0.00  0.00    +0.000 N 
ATOM     12  H   UNL     1       3.733  -1.570  -0.787  0.00  0.00    +0.000 HD
BRANCH  10  13
ATOM     13  C   UNL     1       2.899  -0.407   1.348  0.00  0.00    +0.000 A 
ATOM     14  C   UNL     1       2.564   0.554   2.294  0.00  0.00    +0.000 A 
ATOM     15  S   UNL     1       3.482   0.442   3.729  0.00  0.00    +0.000 S 
ATOM     16  C   UNL     1       4.325  -0.922   3.149  0.00  0.00    +0.000 A 
ATOM     17  N   UNL     1       5.268  -1.542   3.911  0.00  0.00    +0.000 NA
ATOM     18  C   UNL     1       5.799  -2.577   3.352  0.00  0.00    +0.000 A 
ATOM     19  N   UNL     1       5.478  -3.048   2.112  0.00  0.00    +0.000 N 
ATOM     20  C   UNL     1       4.566  -2.437   1.289  0.00  0.00    +0.000 A 
ATOM     21  O   UNL     1       4.352  -2.847   0.153  0.00  0.00    +0.000 OA
ATOM     22  C   UNL     1       3.925  -1.274   1.868  0.00  0.00    +0.000 A 
ATOM     23  H   UNL     1       5.949  -3.856   1.722  0.00  0.00    +0.000 HD
ENDBRANCH  10  13
ENDBRANCH   8  11
ENDBRANCH   1   8
BRANCH   4  24
ATOM     24  C   UNL     1       5.796  -3.482  -6.398  0.00  0.00    +0.000 C 
BRANCH  24  25
ATOM     25  N   UNL     1       7.251  -3.241  -6.267  0.00  0.00    +0.000 NA
ATOM     26  H   UNL     1       7.692  -3.608  -7.110  0.00  0.00    +0.000 HD
BRANCH  25  27
ATOM     27  C   UNL     1       7.791  -3.952  -5.103  0.00  0.00    +0.000 C 
BRANCH  27  28
ATOM     28  C   UNL     1       9.320  -3.908  -4.903  0.00  0.00    +0.000 C 
ATOM     29  C   UNL     1      10.113  -4.528  -6.060  0.00  0.00    +0.000 C 
ATOM     30  C   UNL     1      11.591  -4.638  -5.677  0.00  0.00    +0.000 C 
ATOM     31  N   UNL     1      12.166  -3.336  -5.330  0.00  0.00    +0.000 NA
ATOM     32  C   UNL     1      11.412  -2.684  -4.254  0.00  0.00    +0.000 C 
ATOM     33  C   UNL     1       9.919  -2.529  -4.589  0.00  0.00    +0.000 C 
ATOM     34  H   UNL     1      12.147  -2.736  -6.154  0.00  0.00    +0.000 HD
ENDBRANCH  27  28
ENDBRANCH  25  27
ENDBRANCH  24  25
ENDBRANCH   4  24
TORSDOF 7
