REMARK  Name = 
REMARK  6 active torsions:
REMARK  status: ('A' for Active; 'I' for Inactive)
REMARK    1  A    between atoms: C_1  and  C_2
REMARK    2  A    between atoms: C_4  and  C_5
REMARK    3  A    between atoms: C_10  and  O_11
REMARK    4  A    between atoms: O_11  and  C_12
REMARK    5  A    between atoms: C_12  and  C_13
REMARK    6  A    between atoms: C_17  and  C_18
REMARK                            x       y       z     vdW  Elec       q    Type
REMARK                         _______ _______ _______ _____ _____    ______ ____
ROOT
ATOM      1  O   UNL     1       3.150  -1.571   0.608  0.00  0.00    +0.000 OA
ENDROOT
BRANCH   1   8
ATOM      2  C   UNL     1       0.431  -0.359  -0.521  0.00  0.00    +0.000 C 
ATOM      3  C   UNL     1       1.579   0.341   0.152  0.00  0.00    +0.000 A 
ATOM      4  C   UNL     1       1.430   1.740   0.307  0.00  0.00    +0.000 A 
ATOM      5  C   UNL     1       2.404   2.541   0.917  0.00  0.00    +0.000 A 
ATOM      6  C   UNL     1       3.564   1.935   1.388  0.00  0.00    +0.000 A 
ATOM      7  C   UNL     1       3.730   0.552   1.243  0.00  0.00    +0.000 A 
ATOM      8  C   UNL     1       2.756  -0.259   0.630  0.00  0.00    +0.000 A 
BRANCH   5   9
ATOM      9  C   UNL     1       2.126   4.004   1.020  0.00  0.00    +0.000 C 
ATOM     10  N   UNL     1       3.049   4.810   1.620  0.00  0.00    +0.000 N 
ATOM     11  O   UNL     1       1.089   4.491   0.581  0.00  0.00    +0.000 OA
ATOM     12  H   UNL     1       3.920   4.505   2.022  0.00  0.00    +0.000 HD
ATOM     13  H   UNL     1       2.818   5.794   1.676  0.00  0.00    +0.000 HD
ENDBRANCH   5   9
ENDBRANCH   1   8
BRANCH   1  14
ATOM     14  C   UNL     1       2.307  -2.554   0.022  0.00  0.00    +0.000 C 
BRANCH  14  15
ATOM     15  C   UNL     1       2.903  -3.944   0.077  0.00  0.00    +0.000 A 
ATOM     16  C   UNL     1       4.274  -4.160   0.009  0.00  0.00    +0.000 A 
ATOM     17  C   UNL     1       4.743  -5.469  -0.006  0.00  0.00    +0.000 A 
ATOM     18  C   UNL     1       3.836  -6.525   0.027  0.00  0.00    +0.000 A 
ATOM     19  C   UNL     1       2.476  -6.241   0.070  0.00  0.00    +0.000 A 
ATOM     20  N   UNL     1       2.012  -4.970   0.097  0.00  0.00    +0.000 NA
BRANCH  19  21
ATOM     21  C   UNL     1       1.448  -7.355   0.080  0.00  0.00    +0.000 C 
ATOM     22  C   UNL     1       0.486  -7.239  -1.110  0.00  0.00    +0.000 C 
ATOM     23  C   UNL     1      -0.615  -8.285  -1.015  0.00  0.00    +0.000 C 
ATOM     24  O   UNL     1      -1.305  -8.188   0.230  0.00  0.00    +0.000 OA
ATOM     25  C   UNL     1      -0.445  -8.415   1.345  0.00  0.00    +0.000 C 
ATOM     26  C   UNL     1       0.664  -7.373   1.398  0.00  0.00    +0.000 C 
ENDBRANCH  19  21
ENDBRANCH  14  15
ENDBRANCH   1  14
TORSDOF 5
