REMARK  Name = 
REMARK  4 active torsions:
REMARK  status: ('A' for Active; 'I' for Inactive)
REMARK    1  A    between atoms: C_1  and  C_14
REMARK    2  A    between atoms: C_2  and  C_3
REMARK    3  A    between atoms: C_7  and  N_8
REMARK    4  A    between atoms: N_8  and  C_9
REMARK                            x       y       z     vdW  Elec       q    Type
REMARK                         _______ _______ _______ _____ _____    ______ ____
ROOT
ATOM      1  C   UNL     1       2.051   0.102  -0.061  0.00  0.00    +0.000 A 
ATOM      2  C   UNL     1       2.785   1.284   0.020  0.00  0.00    +0.000 A 
ATOM      3  C   UNL     1       4.171   1.226   0.157  0.00  0.00    +0.000 A 
ATOM      4  C   UNL     1       4.823  -0.012   0.200  0.00  0.00    +0.000 A 
ATOM      5  C   UNL     1       4.098  -1.204   0.134  0.00  0.00    +0.000 A 
ATOM      6  C   UNL     1       2.708  -1.132  -0.010  0.00  0.00    +0.000 A 
ENDROOT
BRANCH   1   8
ATOM      7  C   UNL     1      -0.574   0.126  -0.167  0.00  0.00    +0.000 C 
ATOM      8  C   UNL     1       0.625   0.138  -0.158  0.00  0.00    +0.000 C 
BRANCH   7   9
ATOM      9  C   UNL     1      -2.001   0.064  -0.102  0.00  0.00    +0.000 A 
ATOM     10  C   UNL     1      -2.639  -1.171  -0.051  0.00  0.00    +0.000 A 
ATOM     11  C   UNL     1      -4.018  -1.184   0.057  0.00  0.00    +0.000 A 
ATOM     12  N   UNL     1      -4.776  -0.068   0.112  0.00  0.00    +0.000 NA
ATOM     13  C   UNL     1      -4.128   1.114   0.056  0.00  0.00    +0.000 A 
ATOM     14  C   UNL     1      -2.752   1.235  -0.051  0.00  0.00    +0.000 A 
ENDBRANCH   7   9
ENDBRANCH   1   8
BRANCH   5  15
ATOM     15  N   UNL     1       4.714  -2.463   0.086  0.00  0.00    +0.000 N 
ATOM     16  H   UNL     1       4.165  -3.227   0.470  0.00  0.00    +0.000 HD
BRANCH  15  17
ATOM     17  C   UNL     1       6.035  -2.780  -0.368  0.00  0.00    +0.000 C 
ATOM     18  C   UNL     1       6.147  -4.215  -0.904  0.00  0.00    +0.000 C 
ATOM     19  O   UNL     1       7.208  -4.527   0.032  0.00  0.00    +0.000 OA
ATOM     20  C   UNL     1       6.994  -3.268   0.721  0.00  0.00    +0.000 C 
ENDBRANCH  15  17
ENDBRANCH   5  15
TORSDOF 4
