REMARK  Name = 
REMARK  9 active torsions:
REMARK  status: ('A' for Active; 'I' for Inactive)
REMARK    1  A    between atoms: C_1  and  C_2
REMARK    2  A    between atoms: C_2  and  C_3
REMARK    3  A    between atoms: C_2  and  C_4
REMARK    4  A    between atoms: C_2  and  C_5
REMARK    5  A    between atoms: N_7  and  C_8
REMARK    6  A    between atoms: C_8  and  C_9
REMARK    7  A    between atoms: C_12  and  C_13
REMARK    8  A    between atoms: C_13  and  C_14
REMARK    9  A    between atoms: C_14  and  N_15
REMARK                            x       y       z     vdW  Elec       q    Type
REMARK                         _______ _______ _______ _____ _____    ______ ____
ROOT
ATOM      1  C   UNL     1       3.039  -1.437  -0.203  0.00  0.00    +0.000 A 
ATOM      2  C   UNL     1       4.344  -1.822  -0.467  0.00  0.00    +0.000 A 
ATOM      3  N   UNL     1       4.431  -3.190  -0.434  0.00  0.00    +0.000 N 
ATOM      4  C   UNL     1       3.184  -3.735  -0.220  0.00  0.00    +0.000 A 
ATOM      5  C   UNL     1       2.769  -5.076  -0.139  0.00  0.00    +0.000 A 
ATOM      6  C   UNL     1       1.422  -5.344   0.120  0.00  0.00    +0.000 A 
ATOM      7  C   UNL     1       0.516  -4.305   0.291  0.00  0.00    +0.000 A 
ATOM      8  C   UNL     1       0.939  -2.973   0.207  0.00  0.00    +0.000 A 
ATOM      9  C   UNL     1       2.294  -2.666  -0.056  0.00  0.00    +0.000 A 
ENDROOT
BRANCH   1  11
ATOM     10  C   UNL     1       3.654   1.036  -0.325  0.00  0.00    +0.000 C 
ATOM     11  C   UNL     1       2.526   0.002  -0.086  0.00  0.00    +0.000 C 
ATOM     12  C   UNL     1       1.965   0.267   1.327  0.00  0.00    +0.000 C 
ATOM     13  C   UNL     1       1.429   0.282  -1.132  0.00  0.00    +0.000 C 
ENDBRANCH   1  11
BRANCH   3  14
ATOM     14  C   UNL     1       5.680  -3.934  -0.585  0.00  0.00    +0.000 C 
BRANCH  14  15
ATOM     15  C   UNL     1       6.334  -4.151   0.751  0.00  0.00    +0.000 A 
ATOM     16  C   UNL     1       6.064  -5.277   1.531  0.00  0.00    +0.000 A 
ATOM     17  C   UNL     1       6.574  -5.365   2.824  0.00  0.00    +0.000 A 
ATOM     18  C   UNL     1       7.360  -4.325   3.309  0.00  0.00    +0.000 A 
ATOM     19  N   UNL     1       7.682  -3.250   2.552  0.00  0.00    +0.000 NA
ATOM     20  C   UNL     1       7.165  -3.185   1.304  0.00  0.00    +0.000 A 
BRANCH  18  21
ATOM     21  C   UNL     1       7.818  -4.314   4.745  0.00  0.00    +0.000 C 
BRANCH  21  22
ATOM     22  C   UNL     1       6.812  -3.571   5.630  0.00  0.00    +0.000 C 
BRANCH  22  23
ATOM     23  N   UNL     1       7.238  -3.548   7.031  0.00  0.00    +0.000 NA
ATOM     24  H   UNL     1       7.266  -4.497   7.401  0.00  0.00    +0.000 HD
ATOM     25  H   UNL     1       6.544  -3.044   7.582  0.00  0.00    +0.000 HD
ENDBRANCH  22  23
ENDBRANCH  21  22
ENDBRANCH  18  21
ENDBRANCH  14  15
ENDBRANCH   3  14
TORSDOF 6
