REMARK  Name = 
REMARK  7 active torsions:
REMARK  status: ('A' for Active; 'I' for Inactive)
REMARK    1  A    between atoms: C_1  and  C_2
REMARK    2  A    between atoms: C_10  and  C_11
REMARK    3  A    between atoms: C_11  and  C_12
REMARK    4  A    between atoms: C_11  and  C_13
REMARK    5  A    between atoms: C_13  and  N_14
REMARK    6  A    between atoms: N_14  and  C_15
REMARK    7  A    between atoms: C_18  and  C_19
REMARK                            x       y       z     vdW  Elec       q    Type
REMARK                         _______ _______ _______ _____ _____    ______ ____
ROOT
ATOM      1  C   UNL     1       3.847  -1.122  -4.462  0.00  0.00    +0.000 C 
ATOM      2  C   UNL     1       2.690  -0.476  -5.242  0.00  0.00    +0.000 C 
ENDROOT
BRANCH   1  12
ATOM      3  C   UNL     1      -1.197  -1.594   2.285  0.00  0.00    +0.000 C 
ATOM      4  C   UNL     1      -0.540  -0.615   1.314  0.00  0.00    +0.000 C 
ATOM      5  C   UNL     1       0.810  -0.137   1.874  0.00  0.00    +0.000 C 
ATOM      6  C   UNL     1       1.580   0.717   0.865  0.00  0.00    +0.000 C 
ATOM      7  N   UNL     1       1.685  -0.034  -0.373  0.00  0.00    +0.000 N 
ATOM      8  C   UNL     1       2.827   0.070  -1.134  0.00  0.00    +0.000 A 
ATOM      9  N   UNL     1       3.907   0.677  -0.622  0.00  0.00    +0.000 NA
ATOM     10  C   UNL     1       5.018   0.705  -1.376  0.00  0.00    +0.000 A 
ATOM     11  C   UNL     1       5.101   0.159  -2.632  0.00  0.00    +0.000 A 
ATOM     12  C   UNL     1       3.960  -0.450  -3.104  0.00  0.00    +0.000 A 
ATOM     13  N   UNL     1       2.841  -0.499  -2.349  0.00  0.00    +0.000 NA
ATOM     14  C   UNL     1       0.430  -0.383  -1.021  0.00  0.00    +0.000 C 
ATOM     15  C   UNL     1      -0.371  -1.269  -0.067  0.00  0.00    +0.000 C 
ENDBRANCH   1  12
BRANCH   1  16
ATOM     16  C   UNL     1       5.114  -1.085  -5.336  0.00  0.00    +0.000 C 
BRANCH  16  17
ATOM     17  N   UNL     1       6.183  -1.926  -4.800  0.00  0.00    +0.000 N 
ATOM     18  H   UNL     1       6.104  -2.207  -3.826  0.00  0.00    +0.000 HD
BRANCH  17  19
ATOM     19  C   UNL     1       7.475  -1.864  -5.309  0.00  0.00    +0.000 A 
ATOM     20  C   UNL     1       7.796  -1.202  -6.501  0.00  0.00    +0.000 A 
ATOM     21  C   UNL     1       9.083  -1.262  -7.043  0.00  0.00    +0.000 A 
ATOM     22  C   UNL     1      10.083  -1.997  -6.406  0.00  0.00    +0.000 A 
ATOM     23  C   UNL     1       9.784  -2.672  -5.220  0.00  0.00    +0.000 A 
ATOM     24  C   UNL     1       8.489  -2.606  -4.685  0.00  0.00    +0.000 A 
BRANCH  22  25
ATOM     25  C   UNL     1      11.417  -2.070  -7.056  0.00  0.00    +0.000 C 
ATOM     26  N   UNL     1      12.495  -2.344  -6.264  0.00  0.00    +0.000 N 
ATOM     27  O   UNL     1      11.560  -1.862  -8.255  0.00  0.00    +0.000 OA
ATOM     28  H   UNL     1      12.460  -2.286  -5.256  0.00  0.00    +0.000 HD
ATOM     29  H   UNL     1      13.400  -2.286  -6.710  0.00  0.00    +0.000 HD
ENDBRANCH  22  25
ENDBRANCH  17  19
ENDBRANCH  16  17
ENDBRANCH   1  16
TORSDOF 5
