REMARK  Name = 
REMARK  3 active torsions:
REMARK  status: ('A' for Active; 'I' for Inactive)
REMARK    1  A    between atoms: C_2  and  C_3
REMARK    2  A    between atoms: N_7  and  C_8
REMARK    3  A    between atoms: C_8  and  C_9
REMARK                            x       y       z     vdW  Elec       q    Type
REMARK                         _______ _______ _______ _____ _____    ______ ____
ROOT
ATOM      1  C   UNL     1       0.147   0.325   1.657  0.00  0.00    +0.000 A 
ATOM      2  C   UNL     1      -0.548  -0.876   1.733  0.00  0.00    +0.000 A 
ATOM      3  C   UNL     1      -1.833  -0.951   1.194  0.00  0.00    +0.000 A 
ATOM      4  C   UNL     1      -2.411   0.180   0.619  0.00  0.00    +0.000 A 
ATOM      5  N   UNL     1      -3.739   0.087   0.202  0.00  0.00    +0.000 N 
ATOM      6  N   UNL     1      -1.737   1.344   0.528  0.00  0.00    +0.000 NA
ATOM      7  C   UNL     1      -0.479   1.392   1.035  0.00  0.00    +0.000 A 
ATOM      8  H   UNL     1      -3.844  -0.622  -0.517  0.00  0.00    +0.000 HD
ENDROOT
BRANCH   1  10
ATOM      9  N   UNL     1       2.510   0.582   2.680  0.00  0.00    +0.000 NA
ATOM     10  C   UNL     1       1.453   0.467   2.216  0.00  0.00    +0.000 C 
ENDBRANCH   1  10
BRANCH   5  11
ATOM     11  C   UNL     1      -4.386   1.337  -0.151  0.00  0.00    +0.000 C 
BRANCH  11  12
ATOM     12  C   UNL     1      -5.874   1.088  -0.273  0.00  0.00    +0.000 A 
ATOM     13  C   UNL     1      -6.678   1.047   0.878  0.00  0.00    +0.000 A 
ATOM     14  C   UNL     1      -8.050   0.811   0.782  0.00  0.00    +0.000 A 
ATOM     15  C   UNL     1      -8.632   0.603  -0.468  0.00  0.00    +0.000 A 
ATOM     16  C   UNL     1      -7.843   0.620  -1.615  0.00  0.00    +0.000 A 
ATOM     17  C   UNL     1      -6.469   0.857  -1.521  0.00  0.00    +0.000 A 
ENDBRANCH  11  12
ENDBRANCH   5  11
TORSDOF 3
