REMARK  Name = 
REMARK  5 active torsions:
REMARK  status: ('A' for Active; 'I' for Inactive)
REMARK    1  A    between atoms: C_2  and  C_3
REMARK    2  A    between atoms: C_6  and  C_7
REMARK    3  A    between atoms: C_11  and  C_12
REMARK    4  A    between atoms: C_12  and  N_13
REMARK    5  A    between atoms: C_17  and  C_18
REMARK                            x       y       z     vdW  Elec       q    Type
REMARK                         _______ _______ _______ _____ _____    ______ ____
ROOT
ATOM      1  C   UNL     1       6.376  -1.657  -2.043  0.00  0.00    +0.000 C 
ATOM      2  C   UNL     1       7.169  -2.946  -1.925  0.00  0.00    +0.000 C 
ATOM      3  C   UNL     1       7.886  -1.693  -2.296  0.00  0.00    +0.000 C 
ENDROOT
BRANCH   1   4
ATOM      4  N   UNL     1       5.598  -1.254  -3.230  0.00  0.00    +0.000 N 
ATOM      5  C   UNL     1       4.405  -1.853  -3.631  0.00  0.00    +0.000 A 
ATOM      6  C   UNL     1       4.196  -3.226  -3.619  0.00  0.00    +0.000 A 
ATOM      7  C   UNL     1       3.027  -3.745  -4.183  0.00  0.00    +0.000 A 
ATOM      8  C   UNL     1       2.090  -2.878  -4.741  0.00  0.00    +0.000 A 
ATOM      9  C   UNL     1       2.351  -1.523  -4.662  0.00  0.00    +0.000 A 
ATOM     10  N   UNL     1       3.486  -1.001  -4.136  0.00  0.00    +0.000 NA
ATOM     11  H   UNL     1       5.432  -0.249  -3.289  0.00  0.00    +0.000 HD
BRANCH   8  12
ATOM     12  C   UNL     1       0.868  -3.419  -5.371  0.00  0.00    +0.000 C 
ATOM     13  N   UNL     1       0.274  -2.681  -6.359  0.00  0.00    +0.000 N 
ATOM     14  O   UNL     1       0.420  -4.510  -5.046  0.00  0.00    +0.000 OA
ATOM     15  H   UNL     1       0.673  -1.854  -6.779  0.00  0.00    +0.000 HD
ATOM     16  H   UNL     1      -0.507  -3.116  -6.837  0.00  0.00    +0.000 HD
ENDBRANCH   8  12
ENDBRANCH   1   4
BRANCH   1  21
ATOM     17  C   UNL     1       6.146   0.720   0.827  0.00  0.00    +0.000 A 
ATOM     18  C   UNL     1       5.196   0.146   1.666  0.00  0.00    +0.000 A 
ATOM     19  C   UNL     1       4.561  -1.021   1.266  0.00  0.00    +0.000 A 
ATOM     20  C   UNL     1       4.911  -1.601   0.052  0.00  0.00    +0.000 A 
ATOM     21  C   UNL     1       5.894  -1.005  -0.740  0.00  0.00    +0.000 A 
ATOM     22  N   UNL     1       6.474   0.165  -0.364  0.00  0.00    +0.000 NA
BRANCH  17  26
ATOM     23  C   UNL     1       8.502   4.169   1.863  0.00  0.00    +0.000 A 
ATOM     24  C   UNL     1       8.148   3.934   0.530  0.00  0.00    +0.000 A 
ATOM     25  C   UNL     1       7.363   2.825   0.202  0.00  0.00    +0.000 A 
ATOM     26  C   UNL     1       6.911   1.926   1.189  0.00  0.00    +0.000 A 
ATOM     27  C   UNL     1       7.262   2.193   2.520  0.00  0.00    +0.000 A 
ATOM     28  C   UNL     1       8.046   3.297   2.846  0.00  0.00    +0.000 A 
ATOM     29  F   UNL     1       8.363   3.497   4.133  0.00  0.00    +0.000 F 
BRANCH  23  31
ATOM     30  N   UNL     1      10.002   6.189   2.462  0.00  0.00    +0.000 NA
ATOM     31  C   UNL     1       9.325   5.277   2.210  0.00  0.00    +0.000 C 
ENDBRANCH  23  31
ENDBRANCH  17  26
ENDBRANCH   1  21
TORSDOF 5
