REMARK  Name = 
REMARK  6 active torsions:
REMARK  status: ('A' for Active; 'I' for Inactive)
REMARK    1  A    between atoms: C_2  and  C_3
REMARK    2  A    between atoms: N_10  and  C_11
REMARK    3  A    between atoms: C_11  and  C_12
REMARK    4  A    between atoms: C_15  and  C_16
REMARK    5  A    between atoms: C_16  and  N_17
REMARK    6  A    between atoms: C_18  and  C_20
REMARK                            x       y       z     vdW  Elec       q    Type
REMARK                         _______ _______ _______ _____ _____    ______ ____
ROOT
ATOM      1  C   UNL     1       0.733  -4.109  -0.033  0.00  0.00    +0.000 A 
ATOM      2  C   UNL     1       0.086  -5.344  -0.018  0.00  0.00    +0.000 A 
ATOM      3  C   UNL     1      -1.308  -5.387  -0.061  0.00  0.00    +0.000 A 
ATOM      4  C   UNL     1      -2.039  -4.200  -0.125  0.00  0.00    +0.000 A 
ATOM      5  C   UNL     1      -1.312  -3.015  -0.119  0.00  0.00    +0.000 A 
ATOM      6  N   UNL     1       0.044  -2.941  -0.090  0.00  0.00    +0.000 NA
ENDROOT
BRANCH   1   7
ATOM      7  C   UNL     1       2.248  -4.030   0.034  0.00  0.00    +0.000 C 
BRANCH   7  15
ATOM      8  C   UNL     1       4.652  -4.382  -3.665  0.00  0.00    +0.000 A 
ATOM      9  C   UNL     1       4.815  -4.602  -5.022  0.00  0.00    +0.000 A 
ATOM     10  C   UNL     1       3.798  -5.488  -5.439  0.00  0.00    +0.000 A 
ATOM     11  C   UNL     1       3.069  -5.813  -4.322  0.00  0.00    +0.000 A 
ATOM     12  N   UNL     1       3.556  -5.112  -3.230  0.00  0.00    +0.000 N 
ATOM     13  C   UNL     1       3.043  -5.252  -1.926  0.00  0.00    +0.000 C 
ATOM     14  O   UNL     1       2.688  -6.355  -1.542  0.00  0.00    +0.000 OA
ATOM     15  N   UNL     1       2.904  -4.057  -1.263  0.00  0.00    +0.000 N 
ATOM     16  H   UNL     1       2.930  -3.182  -1.773  0.00  0.00    +0.000 HD
BRANCH   8  18
ATOM     17  N   UNL     1       6.257  -3.048  -2.145  0.00  0.00    +0.000 NA
ATOM     18  C   UNL     1       5.533  -3.646  -2.825  0.00  0.00    +0.000 C 
ENDBRANCH   8  18
ENDBRANCH   7  15
ENDBRANCH   1   7
BRANCH   4  19
ATOM     19  C   UNL     1      -3.541  -4.198  -0.168  0.00  0.00    +0.000 C 
BRANCH  19  20
ATOM     20  N   UNL     1      -4.112  -4.112   1.150  0.00  0.00    +0.000 N 
ATOM     21  C   UNL     1      -5.471  -3.999   1.322  0.00  0.00    +0.000 C 
ATOM     22  O   UNL     1      -6.234  -3.820   0.375  0.00  0.00    +0.000 OA
ATOM     23  H   UNL     1      -3.549  -4.452   1.925  0.00  0.00    +0.000 HD
BRANCH  21  24
ATOM     24  C   UNL     1      -5.975  -4.077   2.698  0.00  0.00    +0.000 A 
ATOM     25  C   UNL     1      -7.180  -3.478   3.036  0.00  0.00    +0.000 A 
ATOM     26  S   UNL     1      -7.635  -3.719   4.663  0.00  0.00    +0.000 S 
ATOM     27  C   UNL     1      -6.276  -4.701   4.953  0.00  0.00    +0.000 A 
ATOM     28  N   UNL     1      -6.108  -5.331   6.147  0.00  0.00    +0.000 NA
ATOM     29  C   UNL     1      -5.045  -6.061   6.219  0.00  0.00    +0.000 A 
ATOM     30  N   UNL     1      -4.117  -6.191   5.218  0.00  0.00    +0.000 N 
ATOM     31  C   UNL     1      -4.224  -5.541   4.012  0.00  0.00    +0.000 A 
ATOM     32  O   UNL     1      -3.338  -5.612   3.167  0.00  0.00    +0.000 OA
ATOM     33  C   UNL     1      -5.439  -4.765   3.853  0.00  0.00    +0.000 A 
ATOM     34  H   UNL     1      -3.282  -6.742   5.356  0.00  0.00    +0.000 HD
ENDBRANCH  21  24
ENDBRANCH  19  20
ENDBRANCH   4  19
TORSDOF 6
