REMARK  Name = 
REMARK  7 active torsions:
REMARK  status: ('A' for Active; 'I' for Inactive)
REMARK    1  A    between atoms: C_1  and  C_2
REMARK    2  A    between atoms: C_2  and  N_3
REMARK    3  A    between atoms: C_2  and  C_16
REMARK    4  A    between atoms: C_4  and  C_6
REMARK    5  A    between atoms: C_19  and  C_20
REMARK    6  A    between atoms: C_20  and  N_21
REMARK    7  A    between atoms: C_22  and  C_24
REMARK                            x       y       z     vdW  Elec       q    Type
REMARK                         _______ _______ _______ _____ _____    ______ ____
ROOT
ATOM      1  C   UNL     1       1.762  -1.068  -1.093  0.00  0.00    +0.000 C 
ATOM      2  C   UNL     1       2.342  -0.064  -0.092  0.00  0.00    +0.000 C 
ENDROOT
BRANCH   2   3
ATOM      3  C   UNL     1       2.879   1.189  -0.773  0.00  0.00    +0.000 A 
ATOM      4  C   UNL     1       2.316   2.434  -0.437  0.00  0.00    +0.000 A 
ATOM      5  C   UNL     1       2.701   3.606  -1.103  0.00  0.00    +0.000 A 
ATOM      6  C   UNL     1       3.659   3.576  -2.121  0.00  0.00    +0.000 A 
ATOM      7  C   UNL     1       4.273   2.348  -2.414  0.00  0.00    +0.000 A 
ATOM      8  C   UNL     1       3.886   1.170  -1.749  0.00  0.00    +0.000 A 
BRANCH   6   9
ATOM      9  C   UNL     1       3.996   4.829  -2.892  0.00  0.00    +0.000 C 
BRANCH   9  10
ATOM     10  N   UNL     1       5.076   5.575  -2.283  0.00  0.00    +0.000 N 
ATOM     11  C   UNL     1       5.570   6.718  -2.885  0.00  0.00    +0.000 C 
ATOM     12  O   UNL     1       5.157   7.134  -3.962  0.00  0.00    +0.000 OA
ATOM     13  H   UNL     1       5.250   5.421  -1.300  0.00  0.00    +0.000 HD
BRANCH  11  14
ATOM     14  C   UNL     1       6.635   7.438  -2.063  0.00  0.00    +0.000 C 
ATOM     15  C   UNL     1       7.144   8.716  -2.700  0.00  0.00    +0.000 C 
ATOM     16  C   UNL     1       8.343   8.260  -3.500  0.00  0.00    +0.000 C 
ATOM     17  O   UNL     1       8.886   7.124  -2.821  0.00  0.00    +0.000 OA
ATOM     18  C   UNL     1       7.897   6.605  -1.921  0.00  0.00    +0.000 C 
ENDBRANCH  11  14
ENDBRANCH   9  10
ENDBRANCH   6   9
ENDBRANCH   2   3
BRANCH   2  19
ATOM     19  N   UNL     1       3.343  -0.699   0.741  0.00  0.00    +0.000 N 
ATOM     20  C   UNL     1       3.012  -1.417   1.869  0.00  0.00    +0.000 C 
ATOM     21  O   UNL     1       1.856  -1.517   2.266  0.00  0.00    +0.000 OA
ATOM     22  H   UNL     1       4.315  -0.582   0.480  0.00  0.00    +0.000 HD
BRANCH  20  23
ATOM     23  C   UNL     1       4.113  -2.108   2.545  0.00  0.00    +0.000 A 
ATOM     24  C   UNL     1       3.853  -3.216   3.345  0.00  0.00    +0.000 A 
ATOM     25  S   UNL     1       5.252  -3.895   4.046  0.00  0.00    +0.000 S 
ATOM     26  C   UNL     1       6.246  -2.703   3.349  0.00  0.00    +0.000 A 
ATOM     27  N   UNL     1       7.585  -2.678   3.587  0.00  0.00    +0.000 NA
ATOM     28  C   UNL     1       8.208  -1.692   3.035  0.00  0.00    +0.000 A 
ATOM     29  N   UNL     1       7.615  -0.735   2.251  0.00  0.00    +0.000 N 
ATOM     30  C   UNL     1       6.286  -0.769   1.914  0.00  0.00    +0.000 A 
ATOM     31  O   UNL     1       5.825   0.015   1.092  0.00  0.00    +0.000 OA
ATOM     32  C   UNL     1       5.527  -1.823   2.560  0.00  0.00    +0.000 A 
ATOM     33  H   UNL     1       8.164  -0.009   1.814  0.00  0.00    +0.000 HD
ENDBRANCH  20  23
ENDBRANCH   2  19
TORSDOF 6
