REMARK  Name = 
REMARK  6 active torsions:
REMARK  status: ('A' for Active; 'I' for Inactive)
REMARK    1  A    between atoms: N_1  and  C_2
REMARK    2  A    between atoms: C_2  and  C_3
REMARK    3  A    between atoms: C_2  and  C_16
REMARK    4  A    between atoms: C_6  and  C_7
REMARK    5  A    between atoms: C_7  and  N_8
REMARK    6  A    between atoms: C_11  and  O_12
REMARK                            x       y       z     vdW  Elec       q    Type
REMARK                         _______ _______ _______ _____ _____    ______ ____
ROOT
ATOM      1  C   UNL     1       2.596   0.033  -0.194  0.00  0.00    +0.000 C 
ENDROOT
BRANCH   1   2
ATOM      2  C   UNL     1       3.007   1.466   0.110  0.00  0.00    +0.000 A 
ATOM      3  C   UNL     1       3.196   1.919   1.414  0.00  0.00    +0.000 A 
ATOM      4  S   UNL     1       3.559   3.582   1.524  0.00  0.00    +0.000 S 
ATOM      5  C   UNL     1       3.523   3.758  -0.166  0.00  0.00    +0.000 A 
ATOM      6  N   UNL     1       3.754   4.968  -0.743  0.00  0.00    +0.000 NA
ATOM      7  C   UNL     1       3.696   4.964  -2.033  0.00  0.00    +0.000 A 
ATOM      8  N   UNL     1       3.438   3.857  -2.797  0.00  0.00    +0.000 N 
ATOM      9  C   UNL     1       3.218   2.611  -2.263  0.00  0.00    +0.000 A 
ATOM     10  O   UNL     1       3.034   1.643  -2.994  0.00  0.00    +0.000 OA
ATOM     11  C   UNL     1       3.243   2.564  -0.810  0.00  0.00    +0.000 A 
ATOM     12  H   UNL     1       3.431   3.912  -3.805  0.00  0.00    +0.000 HD
ENDBRANCH   1   2
BRANCH   1  13
ATOM     13  C   UNL     1       1.090   0.019  -0.121  0.00  0.00    +0.000 A 
ATOM     14  C   UNL     1       0.424  -0.275   1.073  0.00  0.00    +0.000 A 
ATOM     15  C   UNL     1      -0.971  -0.265   1.117  0.00  0.00    +0.000 A 
ATOM     16  C   UNL     1      -1.686   0.027  -0.044  0.00  0.00    +0.000 A 
ATOM     17  N   UNL     1      -1.059   0.310  -1.211  0.00  0.00    +0.000 NA
ATOM     18  C   UNL     1       0.290   0.299  -1.224  0.00  0.00    +0.000 A 
BRANCH  16  19
ATOM     19  C   UNL     1      -3.215   0.035  -0.006  0.00  0.00    +0.000 C 
BRANCH  19  20
ATOM     20  N   UNL     1      -3.963   0.330  -1.247  0.00  0.00    +0.000 NA
ATOM     21  C   UNL     1      -3.684  -0.599  -2.347  0.00  0.00    +0.000 C 
ATOM     22  C   UNL     1      -3.499   0.230  -3.612  0.00  0.00    +0.000 C 
ATOM     23  C   UNL     1      -3.933   1.635  -3.239  0.00  0.00    +0.000 C 
ATOM     24  C   UNL     1      -3.777   1.708  -1.722  0.00  0.00    +0.000 C 
BRANCH  23  25
ATOM     25  O   UNL     1      -5.292   1.835  -3.623  0.00  0.00    +0.000 OA
ATOM     26  H   UNL     1      -5.822   1.250  -3.041  0.00  0.00    +0.000 HD
ENDBRANCH  23  25
ENDBRANCH  19  20
ENDBRANCH  16  19
ENDBRANCH   1  13
BRANCH   1  27
ATOM     27  N   UNL     1       3.120  -0.480  -1.448  0.00  0.00    +0.000 NA
ATOM     28  H   UNL     1       4.122  -0.373  -1.466  0.00  0.00    +0.000 HD
ATOM     29  H   UNL     1       2.785   0.108  -2.220  0.00  0.00    +0.000 HD
ENDBRANCH   1  27
TORSDOF 6
