REMARK  Name = 
REMARK  5 active torsions:
REMARK  status: ('A' for Active; 'I' for Inactive)
REMARK    1  A    between atoms: N_1  and  C_2
REMARK    2  A    between atoms: C_2  and  C_3
REMARK    3  A    between atoms: C_6  and  S_7
REMARK    4  A    between atoms: S_7  and  C_8
REMARK    5  A    between atoms: C_8  and  C_9
REMARK                            x       y       z     vdW  Elec       q    Type
REMARK                         _______ _______ _______ _____ _____    ______ ____
ROOT
ATOM      1  C   UNL     1       2.923   0.131  -1.305  0.00  0.00    +0.000 A 
ATOM      2  C   UNL     1       3.022   1.414  -1.861  0.00  0.00    +0.000 A 
ATOM      3  C   UNL     1       3.584   1.608  -3.130  0.00  0.00    +0.000 A 
ATOM      4  C   UNL     1       4.072   0.524  -3.864  0.00  0.00    +0.000 A 
ATOM      5  C   UNL     1       3.959  -0.759  -3.316  0.00  0.00    +0.000 A 
ATOM      6  C   UNL     1       3.395  -0.956  -2.050  0.00  0.00    +0.000 A 
ENDROOT
BRANCH   1   7
ATOM      7  C   UNL     1       2.338  -0.071   0.070  0.00  0.00    +0.000 C 
BRANCH   7   8
ATOM      8  N   UNL     1       0.951   0.375   0.144  0.00  0.00    +0.000 NA
ATOM      9  H   UNL     1       0.573   0.140   1.059  0.00  0.00    +0.000 HD
ATOM     10  H   UNL     1       0.402  -0.148  -0.537  0.00  0.00    +0.000 HD
ENDBRANCH   7   8
ENDBRANCH   1   7
BRANCH   4  11
ATOM     11  S   UNL     1       4.759   0.668  -5.510  0.00  0.00    +0.000 S 
BRANCH  11  12
ATOM     12  C   UNL     1       5.693   2.238  -5.412  0.00  0.00    +0.000 C 
BRANCH  12  13
ATOM     13  C   UNL     1       6.453   2.538  -6.687  0.00  0.00    +0.000 A 
ATOM     14  C   UNL     1       7.522   1.737  -7.095  0.00  0.00    +0.000 A 
ATOM     15  C   UNL     1       8.202   2.055  -8.268  0.00  0.00    +0.000 A 
ATOM     16  C   UNL     1       7.804   3.167  -9.000  0.00  0.00    +0.000 A 
ATOM     17  C   UNL     1       6.742   3.913  -8.524  0.00  0.00    +0.000 A 
ATOM     18  F   UNL     1       6.358   4.992  -9.223  0.00  0.00    +0.000 F 
ATOM     19  N   UNL     1       6.065   3.632  -7.392  0.00  0.00    +0.000 NA
ENDBRANCH  12  13
ENDBRANCH  11  12
ENDBRANCH   4  11
TORSDOF 5
