REMARK  Name = 
REMARK  8 active torsions:
REMARK  status: ('A' for Active; 'I' for Inactive)
REMARK    1  A    between atoms: C_1  and  C_2
REMARK    2  A    between atoms: C_4  and  O_5
REMARK    3  A    between atoms: O_5  and  C_6
REMARK    4  A    between atoms: C_6  and  C_7
REMARK    5  A    between atoms: C_7  and  C_10
REMARK    6  A    between atoms: C_14  and  O_15
REMARK    7  A    between atoms: O_15  and  C_16
REMARK    8  A    between atoms: C_23  and  C_24
REMARK                            x       y       z     vdW  Elec       q    Type
REMARK                         _______ _______ _______ _____ _____    ______ ____
ROOT
ATOM      1  C   UNL     1       1.105  -3.526  -0.035  0.00  0.00    +0.000 C 
ENDROOT
BRANCH   1   2
ATOM      2  C   UNL     1       2.079  -4.714  -0.066  0.00  0.00    +0.000 C 
ATOM      3  F   UNL     1       2.833  -4.634  -1.203  0.00  0.00    +0.000 F 
ATOM      4  F   UNL     1       2.966  -4.582   0.966  0.00  0.00    +0.000 F 
BRANCH   2   5
ATOM      5  C   UNL     1       1.317  -6.028   0.016  0.00  0.00    +0.000 A 
ATOM      6  C   UNL     1       1.048  -6.621   1.258  0.00  0.00    +0.000 A 
ATOM      7  C   UNL     1       0.314  -7.808   1.334  0.00  0.00    +0.000 A 
ATOM      8  C   UNL     1      -0.161  -8.422   0.172  0.00  0.00    +0.000 A 
ATOM      9  C   UNL     1       0.105  -7.850  -1.070  0.00  0.00    +0.000 A 
ATOM     10  C   UNL     1       0.834  -6.657  -1.144  0.00  0.00    +0.000 A 
BRANCH   9  11
ATOM     11  O   UNL     1      -0.333  -8.342  -2.274  0.00  0.00    +0.000 OA
BRANCH  11  12
ATOM     12  C   UNL     1      -0.735  -9.725  -2.378  0.00  0.00    +0.000 C 
ATOM     13  C   UNL     1       0.386 -10.795  -2.336  0.00  0.00    +0.000 C 
ATOM     14  C   UNL     1      -0.321 -11.520  -3.494  0.00  0.00    +0.000 C 
ATOM     15  C   UNL     1      -1.009 -10.190  -3.834  0.00  0.00    +0.000 C 
ENDBRANCH  11  12
ENDBRANCH   9  11
ENDBRANCH   2   5
ENDBRANCH   1   2
BRANCH   1  16
ATOM     16  O   UNL     1       1.800  -2.261  -0.029  0.00  0.00    +0.000 OA
BRANCH  16  20
ATOM     17  C   UNL     1       1.196   2.580   0.231  0.00  0.00    +0.000 C 
ATOM     18  C   UNL     1       0.608   1.197   0.160  0.00  0.00    +0.000 A 
ATOM     19  C   UNL     1       1.470   0.085   0.099  0.00  0.00    +0.000 A 
ATOM     20  C   UNL     1       0.926  -1.193   0.036  0.00  0.00    +0.000 A 
ATOM     21  N   UNL     1      -0.400  -1.431   0.037  0.00  0.00    +0.000 NA
ATOM     22  C   UNL     1      -1.214  -0.352   0.106  0.00  0.00    +0.000 A 
ATOM     23  C   UNL     1      -0.780   0.968   0.152  0.00  0.00    +0.000 A 
BRANCH  23  24
ATOM     24  C   UNL     1      -1.783   2.063   0.230  0.00  0.00    +0.000 C 
ATOM     25  N   UNL     1      -3.013   1.839  -0.333  0.00  0.00    +0.000 N 
ATOM     26  O   UNL     1      -1.546   3.139   0.760  0.00  0.00    +0.000 OA
ATOM     27  H   UNL     1      -3.224   1.070  -0.953  0.00  0.00    +0.000 HD
ATOM     28  H   UNL     1      -3.656   2.621  -0.328  0.00  0.00    +0.000 HD
ENDBRANCH  23  24
ENDBRANCH  16  20
ENDBRANCH   1  16
TORSDOF 7
