REMARK  Name = 
REMARK  6 active torsions:
REMARK  status: ('A' for Active; 'I' for Inactive)
REMARK    1  A    between atoms: C_1  and  C_2
REMARK    2  A    between atoms: N_9  and  C_10
REMARK    3  A    between atoms: C_10  and  C_11
REMARK    4  A    between atoms: C_14  and  C_15
REMARK    5  A    between atoms: C_15  and  C_16
REMARK    6  A    between atoms: C_16  and  N_17
REMARK                            x       y       z     vdW  Elec       q    Type
REMARK                         _______ _______ _______ _____ _____    ______ ____
ROOT
ATOM      1  C   UNL     1       7.688   0.520  -0.108  0.00  0.00    +0.000 C 
ENDROOT
BRANCH   1  10
ATOM      2  C   UNL     1       2.809  -2.305  -3.854  0.00  0.00    +0.000 C 
ATOM      3  C   UNL     1       3.844  -1.758  -2.915  0.00  0.00    +0.000 A 
ATOM      4  C   UNL     1       4.938  -1.034  -3.393  0.00  0.00    +0.000 A 
ATOM      5  C   UNL     1       5.891  -0.491  -2.523  0.00  0.00    +0.000 A 
ATOM      6  C   UNL     1       5.722  -0.690  -1.143  0.00  0.00    +0.000 A 
ATOM      7  C   UNL     1       4.662  -1.449  -0.640  0.00  0.00    +0.000 A 
ATOM      8  C   UNL     1       4.817  -1.514   0.771  0.00  0.00    +0.000 A 
ATOM      9  C   UNL     1       5.935  -0.786   1.103  0.00  0.00    +0.000 A 
ATOM     10  N   UNL     1       6.454  -0.256  -0.052  0.00  0.00    +0.000 N 
ATOM     11  C   UNL     1       3.715  -1.985  -1.536  0.00  0.00    +0.000 A 
ENDBRANCH   1  10
BRANCH   1  12
ATOM     12  C   UNL     1       7.481   2.003   0.028  0.00  0.00    +0.000 A 
ATOM     13  C   UNL     1       7.338   2.834  -1.084  0.00  0.00    +0.000 A 
ATOM     14  C   UNL     1       7.334   4.220  -0.923  0.00  0.00    +0.000 A 
ATOM     15  C   UNL     1       7.466   4.748   0.357  0.00  0.00    +0.000 A 
ATOM     16  N   UNL     1       7.531   3.961   1.457  0.00  0.00    +0.000 NA
ATOM     17  C   UNL     1       7.520   2.620   1.273  0.00  0.00    +0.000 A 
BRANCH  15  18
ATOM     18  C   UNL     1       7.669   6.230   0.562  0.00  0.00    +0.000 C 
BRANCH  18  19
ATOM     19  C   UNL     1       9.168   6.555   0.593  0.00  0.00    +0.000 C 
BRANCH  19  20
ATOM     20  N   UNL     1       9.420   7.987   0.770  0.00  0.00    +0.000 NA
ATOM     21  H   UNL     1       9.062   8.507  -0.029  0.00  0.00    +0.000 HD
ATOM     22  H   UNL     1      10.427   8.148   0.788  0.00  0.00    +0.000 HD
ENDBRANCH  19  20
ENDBRANCH  18  19
ENDBRANCH  15  18
ENDBRANCH   1  12
TORSDOF 5
