REMARK  Name = 
REMARK  4 active torsions:
REMARK  status: ('A' for Active; 'I' for Inactive)
REMARK    1  A    between atoms: C_2  and  C_4
REMARK    2  A    between atoms: C_7  and  O_8
REMARK    3  A    between atoms: O_8  and  C_9
REMARK    4  A    between atoms: C_9  and  C_10
REMARK                            x       y       z     vdW  Elec       q    Type
REMARK                         _______ _______ _______ _____ _____    ______ ____
ROOT
ATOM      1  C   UNL     1       3.220   0.538   1.202  0.00  0.00    +0.000 A 
ATOM      2  C   UNL     1       2.817   0.201   2.500  0.00  0.00    +0.000 A 
ATOM      3  C   UNL     1       3.618   0.556   3.592  0.00  0.00    +0.000 A 
ATOM      4  C   UNL     1       4.825   1.233   3.393  0.00  0.00    +0.000 A 
ATOM      5  C   UNL     1       5.194   1.614   2.101  0.00  0.00    +0.000 A 
ATOM      6  C   UNL     1       4.407   1.249   1.009  0.00  0.00    +0.000 A 
ENDROOT
BRANCH   1   8
ATOM      7  N   UNL     1       1.104  -0.030   0.138  0.00  0.00    +0.000 N 
ATOM      8  C   UNL     1       2.451   0.137  -0.003  0.00  0.00    +0.000 C 
ATOM      9  O   UNL     1       2.994  -0.004  -1.092  0.00  0.00    +0.000 OA
ATOM     10  H   UNL     1       0.587  -0.183  -0.720  0.00  0.00    +0.000 HD
ATOM     11  H   UNL     1       0.598   0.327   0.934  0.00  0.00    +0.000 HD
ENDBRANCH   1   8
BRANCH   4  12
ATOM     12  O   UNL     1       5.575   1.456   4.518  0.00  0.00    +0.000 OA
BRANCH  12  13
ATOM     13  C   UNL     1       6.964   1.683   4.265  0.00  0.00    +0.000 C 
BRANCH  13  14
ATOM     14  C   UNL     1       7.788   1.398   5.494  0.00  0.00    +0.000 A 
ATOM     15  C   UNL     1       7.691   0.159   6.145  0.00  0.00    +0.000 A 
ATOM     16  C   UNL     1       8.541  -0.140   7.207  0.00  0.00    +0.000 A 
ATOM     17  F   UNL     1       8.452  -1.335   7.803  0.00  0.00    +0.000 F 
ATOM     18  C   UNL     1       9.494   0.770   7.642  0.00  0.00    +0.000 A 
ATOM     19  C   UNL     1       9.583   1.999   7.004  0.00  0.00    +0.000 A 
ATOM     20  F   UNL     1      10.506   2.884   7.402  0.00  0.00    +0.000 F 
ATOM     21  C   UNL     1       8.746   2.321   5.939  0.00  0.00    +0.000 A 
ENDBRANCH  13  14
ENDBRANCH  12  13
ENDBRANCH   4  12
TORSDOF 4
