REMARK  Name = 
REMARK  5 active torsions:
REMARK  status: ('A' for Active; 'I' for Inactive)
REMARK    1  A    between atoms: C_2  and  C_4
REMARK    2  A    between atoms: C_7  and  N_8
REMARK    3  A    between atoms: N_8  and  C_9
REMARK    4  A    between atoms: C_9  and  C_10
REMARK    5  A    between atoms: C_12  and  C_13
REMARK                            x       y       z     vdW  Elec       q    Type
REMARK                         _______ _______ _______ _____ _____    ______ ____
ROOT
ATOM      1  N   UNL     1       5.280   1.909  -4.530  0.00  0.00    +0.000 N 
ATOM      2  H   UNL     1       4.619   1.206  -4.217  0.00  0.00    +0.000 HD
ENDROOT
BRANCH   1   6
ATOM      3  C   UNL     1       8.236   2.771  -1.647  0.00  0.00    +0.000 A 
ATOM      4  C   UNL     1       7.680   3.814  -2.392  0.00  0.00    +0.000 A 
ATOM      5  C   UNL     1       6.700   3.545  -3.356  0.00  0.00    +0.000 A 
ATOM      6  C   UNL     1       6.224   2.247  -3.567  0.00  0.00    +0.000 A 
ATOM      7  C   UNL     1       6.818   1.208  -2.834  0.00  0.00    +0.000 A 
ATOM      8  C   UNL     1       7.820   1.461  -1.889  0.00  0.00    +0.000 A 
BRANCH   3  10
ATOM      9  N   UNL     1       9.277   4.230  -0.001  0.00  0.00    +0.000 N 
ATOM     10  C   UNL     1       9.286   3.013  -0.626  0.00  0.00    +0.000 C 
ATOM     11  O   UNL     1      10.103   2.154  -0.323  0.00  0.00    +0.000 OA
ATOM     12  H   UNL     1       9.926   4.347   0.765  0.00  0.00    +0.000 HD
ATOM     13  H   UNL     1       8.480   4.851  -0.042  0.00  0.00    +0.000 HD
ENDBRANCH   3  10
ENDBRANCH   1   6
BRANCH   1  14
ATOM     14  C   UNL     1       4.724   2.883  -5.473  0.00  0.00    +0.000 C 
BRANCH  14  15
ATOM     15  C   UNL     1       5.654   3.139  -6.647  0.00  0.00    +0.000 A 
ATOM     16  C   UNL     1       6.354   2.080  -7.235  0.00  0.00    +0.000 A 
ATOM     17  C   UNL     1       7.229   2.304  -8.306  0.00  0.00    +0.000 A 
ATOM     18  C   UNL     1       7.326   3.623  -8.767  0.00  0.00    +0.000 A 
ATOM     19  C   UNL     1       6.575   4.616  -8.156  0.00  0.00    +0.000 A 
ATOM     20  N   UNL     1       5.746   4.408  -7.113  0.00  0.00    +0.000 NA
BRANCH  17  21
ATOM     21  C   UNL     1       8.020   1.202  -8.903  0.00  0.00    +0.000 A 
ATOM     22  C   UNL     1       8.352   1.183 -10.265  0.00  0.00    +0.000 A 
ATOM     23  C   UNL     1       9.105   0.134 -10.772  0.00  0.00    +0.000 A 
ATOM     24  N   UNL     1       9.547  -0.902 -10.032  0.00  0.00    +0.000 NA
ATOM     25  C   UNL     1       9.223  -0.883  -8.725  0.00  0.00    +0.000 A 
ATOM     26  C   UNL     1       8.482   0.126  -8.128  0.00  0.00    +0.000 A 
ENDBRANCH  17  21
ENDBRANCH  14  15
ENDBRANCH   1  14
TORSDOF 5
