REMARK  Name = 
REMARK  8 active torsions:
REMARK  status: ('A' for Active; 'I' for Inactive)
REMARK    1  A    between atoms: C_1  and  S_2
REMARK    2  A    between atoms: S_2  and  C_3
REMARK    3  A    between atoms: C_6  and  C_7
REMARK    4  A    between atoms: C_11  and  O_12
REMARK    5  A    between atoms: O_12  and  C_13
REMARK    6  A    between atoms: C_13  and  C_14
REMARK    7  A    between atoms: C_18  and  C_19
REMARK    8  A    between atoms: C_19  and  O_20
REMARK                            x       y       z     vdW  Elec       q    Type
REMARK                         _______ _______ _______ _____ _____    ______ ____
ROOT
ATOM      1  C   UNL     1       3.388   0.783   1.434  0.00  0.00    +0.000 A 
ATOM      2  N   UNL     1       3.178   2.124   1.463  0.00  0.00    +0.000 NA
ATOM      3  C   UNL     1       3.485   2.782   2.603  0.00  0.00    +0.000 A 
ATOM      4  C   UNL     1       4.000   2.173   3.733  0.00  0.00    +0.000 A 
ATOM      5  C   UNL     1       4.221   0.791   3.682  0.00  0.00    +0.000 A 
ATOM      6  C   UNL     1       3.918   0.072   2.523  0.00  0.00    +0.000 A 
ENDROOT
BRANCH   4   7
ATOM      7  C   UNL     1       4.318   2.902   4.984  0.00  0.00    +0.000 C 
ATOM      8  N   UNL     1       4.096   4.249   5.048  0.00  0.00    +0.000 N 
ATOM      9  O   UNL     1       4.775   2.312   5.954  0.00  0.00    +0.000 OA
ATOM     10  H   UNL     1       3.726   4.833   4.314  0.00  0.00    +0.000 HD
ATOM     11  H   UNL     1       4.323   4.701   5.925  0.00  0.00    +0.000 HD
ENDBRANCH   4   7
BRANCH   1  13
ATOM     12  C   UNL     1       1.653   1.044  -0.683  0.00  0.00    +0.000 C 
ATOM     13  S   UNL     1       2.984  -0.039  -0.106  0.00  0.00    +0.000 S 
ENDBRANCH   1  13
BRANCH   6  14
ATOM     14  O   UNL     1       4.085  -1.276   2.378  0.00  0.00    +0.000 OA
BRANCH  14  15
ATOM     15  C   UNL     1       4.638  -2.023   3.463  0.00  0.00    +0.000 C 
BRANCH  15  16
ATOM     16  C   UNL     1       4.737  -3.470   3.059  0.00  0.00    +0.000 A 
ATOM     17  C   UNL     1       4.629  -4.476   4.012  0.00  0.00    +0.000 A 
ATOM     18  N   UNL     1       4.715  -5.796   3.734  0.00  0.00    +0.000 NA
ATOM     19  C   UNL     1       4.919  -6.135   2.441  0.00  0.00    +0.000 A 
ATOM     20  C   UNL     1       5.059  -5.219   1.406  0.00  0.00    +0.000 A 
ATOM     21  C   UNL     1       4.977  -3.864   1.735  0.00  0.00    +0.000 A 
BRANCH  20  22
ATOM     22  C   UNL     1       5.242  -5.680  -0.008  0.00  0.00    +0.000 C 
BRANCH  22  23
ATOM     23  O   UNL     1       6.424  -6.458  -0.129  0.00  0.00    +0.000 OA
ATOM     24  H   UNL     1       7.163  -5.897   0.164  0.00  0.00    +0.000 HD
ENDBRANCH  22  23
ENDBRANCH  20  22
ENDBRANCH  15  16
ENDBRANCH  14  15
ENDBRANCH   6  14
TORSDOF 7
