REMARK  Name = 
REMARK  4 active torsions:
REMARK  status: ('A' for Active; 'I' for Inactive)
REMARK    1  A    between atoms: C_2  and  C_4
REMARK    2  A    between atoms: N_8  and  C_9
REMARK    3  A    between atoms: C_9  and  C_10
REMARK    4  A    between atoms: C_15  and  N_16
REMARK                            x       y       z     vdW  Elec       q    Type
REMARK                         _______ _______ _______ _____ _____    ______ ____
ROOT
ATOM      1  C   UNL     1       5.191  -4.463  -3.935  0.00  0.00    +0.000 C 
ATOM      2  C   UNL     1       4.097  -4.007  -2.968  0.00  0.00    +0.000 C 
ATOM      3  C   UNL     1       5.495  -3.535  -2.771  0.00  0.00    +0.000 C 
ENDROOT
BRANCH   1   8
ATOM      4  C   UNL     1       7.675  -2.305  -7.970  0.00  0.00    +0.000 A 
ATOM      5  C   UNL     1       7.830  -2.040  -6.614  0.00  0.00    +0.000 A 
ATOM      6  C   UNL     1       6.951  -2.625  -5.701  0.00  0.00    +0.000 A 
ATOM      7  C   UNL     1       5.936  -3.455  -6.157  0.00  0.00    +0.000 A 
ATOM      8  N   UNL     1       4.973  -4.020  -5.320  0.00  0.00    +0.000 N 
ATOM      9  N   UNL     1       5.763  -3.698  -7.475  0.00  0.00    +0.000 NA
ATOM     10  C   UNL     1       6.623  -3.118  -8.352  0.00  0.00    +0.000 A 
ATOM     11  H   UNL     1       4.403  -4.624  -5.909  0.00  0.00    +0.000 HD
BRANCH   4  13
ATOM     12  N   UNL     1       9.833  -1.410  -8.618  0.00  0.00    +0.000 N 
ATOM     13  C   UNL     1       8.560  -1.728  -9.004  0.00  0.00    +0.000 C 
ATOM     14  O   UNL     1       8.186  -1.573 -10.156  0.00  0.00    +0.000 OA
ATOM     15  H   UNL     1      10.462  -1.107  -9.349  0.00  0.00    +0.000 HD
ATOM     16  H   UNL     1      10.246  -1.753  -7.761  0.00  0.00    +0.000 HD
ENDBRANCH   4  13
ENDBRANCH   1   8
BRANCH   1  17
ATOM     17  C   UNL     1       5.703  -5.897  -3.805  0.00  0.00    +0.000 A 
ATOM     18  C   UNL     1       7.071  -6.193  -3.748  0.00  0.00    +0.000 A 
ATOM     19  C   UNL     1       7.511  -7.495  -3.509  0.00  0.00    +0.000 A 
ATOM     20  C   UNL     1       6.585  -8.526  -3.340  0.00  0.00    +0.000 A 
ATOM     21  F   UNL     1       7.064  -9.760  -3.117  0.00  0.00    +0.000 F 
ATOM     22  C   UNL     1       5.204  -8.303  -3.440  0.00  0.00    +0.000 A 
ATOM     23  C   UNL     1       4.805  -6.976  -3.680  0.00  0.00    +0.000 A 
BRANCH  22  24
ATOM     24  N   UNL     1       4.240  -9.283  -3.292  0.00  0.00    +0.000 N 
ATOM     25  C   UNL     1       4.397 -10.460  -2.427  0.00  0.00    +0.000 C 
ATOM     26  C   UNL     1       4.303 -11.758  -3.243  0.00  0.00    +0.000 C 
ATOM     27  O   UNL     1       3.119 -11.793  -4.062  0.00  0.00    +0.000 OA
ATOM     28  C   UNL     1       3.119 -10.682  -4.972  0.00  0.00    +0.000 C 
ATOM     29  C   UNL     1       3.101  -9.345  -4.219  0.00  0.00    +0.000 C 
ENDBRANCH  22  24
ENDBRANCH   1  17
TORSDOF 4
