REMARK  Name = 
REMARK  3 active torsions:
REMARK  status: ('A' for Active; 'I' for Inactive)
REMARK    1  A    between atoms: C_2  and  C_4
REMARK    2  A    between atoms: N_8  and  C_9
REMARK    3  A    between atoms: C_9  and  C_10
REMARK                            x       y       z     vdW  Elec       q    Type
REMARK                         _______ _______ _______ _____ _____    ______ ____
ROOT
ATOM      1  C   UNL     1       2.914  -3.602  -0.602  0.00  0.00    +0.000 A 
ATOM      2  C   UNL     1       3.729  -2.483  -0.484  0.00  0.00    +0.000 A 
ATOM      3  C   UNL     1       4.510  -2.102  -1.573  0.00  0.00    +0.000 A 
ATOM      4  C   UNL     1       4.443  -2.824  -2.769  0.00  0.00    +0.000 A 
ATOM      5  N   UNL     1       5.231  -2.343  -3.838  0.00  0.00    +0.000 N 
ATOM      6  N   UNL     1       3.654  -3.909  -2.890  0.00  0.00    +0.000 NA
ATOM      7  C   UNL     1       2.935  -4.296  -1.802  0.00  0.00    +0.000 A 
ATOM      8  H   UNL     1       6.205  -2.339  -3.551  0.00  0.00    +0.000 HD
ENDROOT
BRANCH   1  10
ATOM      9  N   UNL     1       1.571  -3.125   1.361  0.00  0.00    +0.000 N 
ATOM     10  C   UNL     1       2.041  -4.071   0.491  0.00  0.00    +0.000 C 
ATOM     11  O   UNL     1       1.712  -5.246   0.589  0.00  0.00    +0.000 OA
ATOM     12  H   UNL     1       0.881  -3.436   2.034  0.00  0.00    +0.000 HD
ATOM     13  H   UNL     1       1.606  -2.136   1.155  0.00  0.00    +0.000 HD
ENDBRANCH   1  10
BRANCH   5  14
ATOM     14  C   UNL     1       5.003  -2.768  -5.233  0.00  0.00    +0.000 C 
ATOM     15  C   UNL     1       5.111  -1.637  -6.249  0.00  0.00    +0.000 C 
ATOM     16  C   UNL     1       3.789  -2.288  -6.003  0.00  0.00    +0.000 C 
BRANCH  14  17
ATOM     17  C   UNL     1       5.600  -4.123  -5.596  0.00  0.00    +0.000 A 
ATOM     18  C   UNL     1       4.825  -5.299  -5.553  0.00  0.00    +0.000 A 
ATOM     19  C   UNL     1       5.373  -6.557  -5.829  0.00  0.00    +0.000 A 
ATOM     20  C   UNL     1       6.719  -6.661  -6.160  0.00  0.00    +0.000 A 
ATOM     21 CL   UNL     1       7.403  -8.210  -6.464  0.00  0.00    +0.000 Cl
ATOM     22  C   UNL     1       7.500  -5.509  -6.227  0.00  0.00    +0.000 A 
ATOM     23  F   UNL     1       8.800  -5.583  -6.552  0.00  0.00    +0.000 F 
ATOM     24  C   UNL     1       6.952  -4.259  -5.953  0.00  0.00    +0.000 A 
ENDBRANCH  14  17
ENDBRANCH   5  14
TORSDOF 3
