REMARK  Name = 
REMARK  6 active torsions:
REMARK  status: ('A' for Active; 'I' for Inactive)
REMARK    1  A    between atoms: N_1  and  C_2
REMARK    2  A    between atoms: C_2  and  N_3
REMARK    3  A    between atoms: C_2  and  C_16
REMARK    4  A    between atoms: C_4  and  C_6
REMARK    5  A    between atoms: C_19  and  C_20
REMARK    6  A    between atoms: C_20  and  N_21
REMARK                            x       y       z     vdW  Elec       q    Type
REMARK                         _______ _______ _______ _____ _____    ______ ____
ROOT
ATOM      1  C   UNL     1       2.504  -0.148  -0.036  0.00  0.00    +0.000 C 
ENDROOT
BRANCH   1   2
ATOM      2  C   UNL     1       3.074  -0.482  -1.400  0.00  0.00    +0.000 A 
ATOM      3  C   UNL     1       3.640   0.533  -2.187  0.00  0.00    +0.000 A 
ATOM      4  C   UNL     1       4.135   0.265  -3.470  0.00  0.00    +0.000 A 
ATOM      5  C   UNL     1       4.072  -1.028  -4.004  0.00  0.00    +0.000 A 
ATOM      6  C   UNL     1       3.540  -2.054  -3.210  0.00  0.00    +0.000 A 
ATOM      7  C   UNL     1       3.045  -1.784  -1.929  0.00  0.00    +0.000 A 
BRANCH   5   8
ATOM      8  C   UNL     1       4.529  -1.313  -5.414  0.00  0.00    +0.000 C 
BRANCH   8   9
ATOM      9  N   UNL     1       5.935  -1.638  -5.484  0.00  0.00    +0.000 N 
ATOM     10  C   UNL     1       6.474  -2.007  -6.695  0.00  0.00    +0.000 C 
ATOM     11  O   UNL     1       5.793  -2.145  -7.706  0.00  0.00    +0.000 OA
ATOM     12  N   UNL     1       7.832  -2.216  -6.687  0.00  0.00    +0.000 N 
ATOM     13  C   UNL     1       8.732  -2.243  -5.551  0.00  0.00    +0.000 C 
ATOM     14  C   UNL     1      10.077  -1.924  -6.175  0.00  0.00    +0.000 C 
ATOM     15  C   UNL     1      10.015  -2.631  -7.525  0.00  0.00    +0.000 C 
ATOM     16  C   UNL     1       8.533  -2.620  -7.896  0.00  0.00    +0.000 C 
ATOM     17  H   UNL     1       6.534  -1.079  -4.904  0.00  0.00    +0.000 HD
ENDBRANCH   8   9
ENDBRANCH   5   8
ENDBRANCH   1   2
BRANCH   1  18
ATOM     18  N   UNL     1       3.163  -0.849   1.024  0.00  0.00    +0.000 N 
ATOM     19  C   UNL     1       3.209  -0.338   2.298  0.00  0.00    +0.000 C 
ATOM     20  O   UNL     1       2.652   0.716   2.595  0.00  0.00    +0.000 OA
ATOM     21  H   UNL     1       3.839  -1.559   0.757  0.00  0.00    +0.000 HD
BRANCH  19  22
ATOM     22  C   UNL     1       3.885  -1.142   3.325  0.00  0.00    +0.000 A 
ATOM     23  C   UNL     1       3.530  -0.970   4.657  0.00  0.00    +0.000 A 
ATOM     24  S   UNL     1       4.398  -1.965   5.735  0.00  0.00    +0.000 S 
ATOM     25  C   UNL     1       5.310  -2.631   4.463  0.00  0.00    +0.000 A 
ATOM     26  N   UNL     1       6.297  -3.537   4.715  0.00  0.00    +0.000 NA
ATOM     27  C   UNL     1       6.925  -3.937   3.664  0.00  0.00    +0.000 A 
ATOM     28  N   UNL     1       6.651  -3.533   2.384  0.00  0.00    +0.000 N 
ATOM     29  C   UNL     1       5.637  -2.656   2.079  0.00  0.00    +0.000 A 
ATOM     30  O   UNL     1       5.361  -2.363   0.921  0.00  0.00    +0.000 OA
ATOM     31  C   UNL     1       4.925  -2.135   3.231  0.00  0.00    +0.000 A 
ATOM     32  H   UNL     1       7.169  -3.909   1.603  0.00  0.00    +0.000 HD
ENDBRANCH  19  22
ENDBRANCH   1  18
BRANCH   1  33
ATOM     33  N   UNL     1       1.105  -0.521   0.059  0.00  0.00    +0.000 NA
ATOM     34  H   UNL     1       0.781  -0.215   0.976  0.00  0.00    +0.000 HD
ATOM     35  H   UNL     1       1.045  -1.533   0.065  0.00  0.00    +0.000 HD
ENDBRANCH   1  33
TORSDOF 6
