REMARK  Name = 
REMARK  11 active torsions:
REMARK  status: ('A' for Active; 'I' for Inactive)
REMARK    1  A    between atoms: C_1  and  C_2
REMARK    2  A    between atoms: C_2  and  O_3
REMARK    3  A    between atoms: C_2  and  C_4
REMARK    4  A    between atoms: C_4  and  N_5
REMARK    5  A    between atoms: N_5  and  C_6
REMARK    6  A    between atoms: N_9  and  C_10
REMARK    7  A    between atoms: C_10  and  C_11
REMARK    8  A    between atoms: C_12  and  C_13
REMARK    9  A    between atoms: C_16  and  C_17
REMARK   10  A    between atoms: C_17  and  N_18
REMARK   11  A    between atoms: C_19  and  C_21
REMARK                            x       y       z     vdW  Elec       q    Type
REMARK                         _______ _______ _______ _____ _____    ______ ____
ROOT
ATOM      1  C   UNL     1       4.340  -8.588   0.924  0.00  0.00    +0.000 A 
ATOM      2  C   UNL     1       5.687  -8.372   1.225  0.00  0.00    +0.000 A 
ATOM      3  C   UNL     1       6.447  -9.388   1.793  0.00  0.00    +0.000 A 
ATOM      4  C   UNL     1       5.833 -10.598   2.088  0.00  0.00    +0.000 A 
ATOM      5  N   UNL     1       4.527 -10.844   1.807  0.00  0.00    +0.000 NA
ATOM      6  C   UNL     1       3.818  -9.839   1.236  0.00  0.00    +0.000 A 
ENDROOT
BRANCH   1   8
ATOM      7  C   UNL     1       3.967  -6.561  -0.432  0.00  0.00    +0.000 C 
ATOM      8  C   UNL     1       3.493  -7.530   0.368  0.00  0.00    +0.000 C 
BRANCH   7   9
ATOM      9  C   UNL     1       3.135  -5.458  -1.008  0.00  0.00    +0.000 C 
BRANCH   9  13
ATOM     10  C   UNL     1       1.753  -5.435  -5.105  0.00  0.00    +0.000 C 
ATOM     11  C   UNL     1       2.347  -6.723  -4.513  0.00  0.00    +0.000 C 
ATOM     12  C   UNL     1       2.492  -6.698  -2.989  0.00  0.00    +0.000 C 
ATOM     13  N   UNL     1       3.159  -5.484  -2.479  0.00  0.00    +0.000 NA
ATOM     14  C   UNL     1       2.508  -4.272  -2.995  0.00  0.00    +0.000 C 
ATOM     15  C   UNL     1       2.545  -4.256  -4.520  0.00  0.00    +0.000 C 
BRANCH  10  16
ATOM     16  N   UNL     1       0.296  -5.312  -4.873  0.00  0.00    +0.000 NA
ATOM     17  H   UNL     1      -0.192  -6.139  -5.227  0.00  0.00    +0.000 HD
BRANCH  16  18
ATOM     18  C   UNL     1      -0.258  -4.123  -5.548  0.00  0.00    +0.000 C 
BRANCH  18  20
ATOM     19  C   UNL     1      -2.222  -2.657  -6.071  0.00  0.00    +0.000 C 
ATOM     20  C   UNL     1      -1.786  -3.972  -5.423  0.00  0.00    +0.000 C 
BRANCH  20  21
ATOM     21  O   UNL     1      -2.454  -5.055  -6.069  0.00  0.00    +0.000 OA
ATOM     22  H   UNL     1      -2.198  -5.045  -7.007  0.00  0.00    +0.000 HD
ENDBRANCH  20  21
ENDBRANCH  18  20
ENDBRANCH  16  18
ENDBRANCH  10  16
ENDBRANCH   9  13
ENDBRANCH   7   9
ENDBRANCH   1   8
BRANCH   4  23
ATOM     23  C   UNL     1       6.629 -11.698   2.743  0.00  0.00    +0.000 C 
BRANCH  23  24
ATOM     24  N   UNL     1       7.250 -12.572   1.778  0.00  0.00    +0.000 N 
ATOM     25  C   UNL     1       8.551 -12.429   1.379  0.00  0.00    +0.000 C 
ATOM     26  O   UNL     1       9.275 -11.538   1.811  0.00  0.00    +0.000 OA
ATOM     27  H   UNL     1       6.611 -13.135   1.225  0.00  0.00    +0.000 HD
BRANCH  25  28
ATOM     28  C   UNL     1       9.062 -13.459   0.466  0.00  0.00    +0.000 A 
ATOM     29  C   UNL     1      10.421 -13.730   0.427  0.00  0.00    +0.000 A 
ATOM     30  S   UNL     1      10.837 -14.981  -0.656  0.00  0.00    +0.000 S 
ATOM     31  C   UNL     1       9.220 -15.170  -1.146  0.00  0.00    +0.000 A 
ATOM     32  N   UNL     1       8.878 -16.078  -2.101  0.00  0.00    +0.000 NA
ATOM     33  C   UNL     1       7.621 -16.092  -2.398  0.00  0.00    +0.000 A 
ATOM     34  N   UNL     1       6.676 -15.292  -1.817  0.00  0.00    +0.000 N 
ATOM     35  C   UNL     1       6.961 -14.404  -0.810  0.00  0.00    +0.000 A 
ATOM     36  O   UNL     1       6.072 -13.778  -0.241  0.00  0.00    +0.000 OA
ATOM     37  C   UNL     1       8.367 -14.316  -0.467  0.00  0.00    +0.000 A 
ATOM     38  H   UNL     1       5.699 -15.372  -2.073  0.00  0.00    +0.000 HD
ENDBRANCH  25  28
ENDBRANCH  23  24
ENDBRANCH   4  23
TORSDOF 10
