REMARK  Name = 
REMARK  9 active torsions:
REMARK  status: ('A' for Active; 'I' for Inactive)
REMARK    1  A    between atoms: C_1  and  C_2
REMARK    2  A    between atoms: C_2  and  C_3
REMARK    3  A    between atoms: C_3  and  N_4
REMARK    4  A    between atoms: C_3  and  C_26
REMARK    5  A    between atoms: N_4  and  C_5
REMARK    6  A    between atoms: C_5  and  C_6
REMARK    7  A    between atoms: C_9  and  C_10
REMARK    8  A    between atoms: C_10  and  N_11
REMARK    9  A    between atoms: C_12  and  C_14
REMARK                            x       y       z     vdW  Elec       q    Type
REMARK                         _______ _______ _______ _____ _____    ______ ____
ROOT
ATOM      1  C   UNL     1       2.481  -2.106   1.224  0.00  0.00    +0.000 A 
ATOM      2  C   UNL     1       3.035  -3.381   1.404  0.00  0.00    +0.000 A 
ATOM      3  C   UNL     1       2.821  -4.088   2.588  0.00  0.00    +0.000 A 
ATOM      4  C   UNL     1       2.041  -3.533   3.610  0.00  0.00    +0.000 A 
ATOM      5  C   UNL     1       1.512  -2.247   3.442  0.00  0.00    +0.000 A 
ATOM      6  C   UNL     1       1.725  -1.541   2.258  0.00  0.00    +0.000 A 
ENDROOT
BRANCH   1   7
ATOM      7  C   UNL     1       2.789  -1.307  -0.018  0.00  0.00    +0.000 C 
BRANCH   7   8
ATOM      8  N   UNL     1       2.420  -2.017  -1.245  0.00  0.00    +0.000 NA
ATOM      9  H   UNL     1       1.413  -2.189  -1.216  0.00  0.00    +0.000 HD
BRANCH   8  10
ATOM     10  C   UNL     1       2.701  -1.215  -2.460  0.00  0.00    +0.000 C 
BRANCH  10  11
ATOM     11  C   UNL     1       2.214  -1.936  -3.722  0.00  0.00    +0.000 A 
ATOM     12  C   UNL     1       2.676  -3.214  -4.043  0.00  0.00    +0.000 A 
ATOM     13  C   UNL     1       2.307  -3.785  -5.258  0.00  0.00    +0.000 A 
ATOM     14  C   UNL     1       1.477  -3.076  -6.118  0.00  0.00    +0.000 A 
ATOM     15  C   UNL     1       1.040  -1.826  -5.718  0.00  0.00    +0.000 A 
ATOM     16  N   UNL     1       1.387  -1.241  -4.549  0.00  0.00    +0.000 NA
ENDBRANCH  10  11
BRANCH  10  18
ATOM     17  C   UNL     1       4.522   0.054  -3.759  0.00  0.00    +0.000 C 
ATOM     18  C   UNL     1       4.205  -0.872  -2.593  0.00  0.00    +0.000 C 
ENDBRANCH  10  18
ENDBRANCH   8  10
ENDBRANCH   7   8
ENDBRANCH   1   7
BRANCH   4  19
ATOM     19  C   UNL     1       1.817  -4.277   4.896  0.00  0.00    +0.000 C 
BRANCH  19  20
ATOM     20  N   UNL     1       2.839  -3.961   5.860  0.00  0.00    +0.000 N 
ATOM     21  C   UNL     1       2.873  -4.585   7.078  0.00  0.00    +0.000 C 
ATOM     22  O   UNL     1       2.067  -5.462   7.381  0.00  0.00    +0.000 OA
ATOM     23  H   UNL     1       3.364  -3.104   5.716  0.00  0.00    +0.000 HD
BRANCH  21  24
ATOM     24  C   UNL     1       3.961  -4.200   7.984  0.00  0.00    +0.000 A 
ATOM     25  C   UNL     1       4.356  -5.077   8.985  0.00  0.00    +0.000 A 
ATOM     26  S   UNL     1       5.663  -4.505   9.919  0.00  0.00    +0.000 S 
ATOM     27  C   UNL     1       5.716  -3.044   9.048  0.00  0.00    +0.000 A 
ATOM     28  N   UNL     1       6.618  -2.077   9.362  0.00  0.00    +0.000 NA
ATOM     29  C   UNL     1       6.530  -1.010   8.640  0.00  0.00    +0.000 A 
ATOM     30  N   UNL     1       5.624  -0.824   7.631  0.00  0.00    +0.000 N 
ATOM     31  C   UNL     1       4.709  -1.783   7.259  0.00  0.00    +0.000 A 
ATOM     32  O   UNL     1       3.937  -1.598   6.329  0.00  0.00    +0.000 OA
ATOM     33  C   UNL     1       4.760  -3.000   8.049  0.00  0.00    +0.000 A 
ATOM     34  H   UNL     1       5.608   0.034   7.099  0.00  0.00    +0.000 HD
ENDBRANCH  21  24
ENDBRANCH  19  20
ENDBRANCH   4  19
TORSDOF 8
