REMARK  Name = 
REMARK  5 active torsions:
REMARK  status: ('A' for Active; 'I' for Inactive)
REMARK    1  A    between atoms: C_1  and  C_2
REMARK    2  A    between atoms: C_10  and  C_11
REMARK    3  A    between atoms: C_11  and  O_12
REMARK    4  A    between atoms: O_12  and  C_13
REMARK    5  A    between atoms: C_16  and  C_17
REMARK                            x       y       z     vdW  Elec       q    Type
REMARK                         _______ _______ _______ _____ _____    ______ ____
ROOT
ATOM      1  C   UNL     1      -2.005   1.687   0.704  0.00  0.00    +0.000 C 
ATOM      2  C   UNL     1      -0.862   0.678   0.646  0.00  0.00    +0.000 C 
ATOM      3  C   UNL     1      -0.708   0.141  -0.785  0.00  0.00    +0.000 C 
ATOM      4  C   UNL     1       0.517  -0.758  -0.923  0.00  0.00    +0.000 C 
ATOM      5  N   UNL     1       1.673  -0.037  -0.424  0.00  0.00    +0.000 N 
ATOM      6  C   UNL     1       2.841  -0.044  -1.143  0.00  0.00    +0.000 A 
ATOM      7  N   UNL     1       3.917   0.597  -0.670  0.00  0.00    +0.000 NA
ATOM      8  C   UNL     1       5.017   0.614  -1.444  0.00  0.00    +0.000 A 
ATOM      9  C   UNL     1       5.088   0.021  -2.678  0.00  0.00    +0.000 A 
ATOM     10  C   UNL     1       3.936  -0.599  -3.109  0.00  0.00    +0.000 A 
ATOM     11  N   UNL     1       2.831  -0.643  -2.344  0.00  0.00    +0.000 NA
ATOM     12  C   UNL     1       1.645   0.382   0.963  0.00  0.00    +0.000 C 
ATOM     13  C   UNL     1       0.447   1.315   1.150  0.00  0.00    +0.000 C 
ENDROOT
BRANCH  10  14
ATOM     14  C   UNL     1       3.827  -1.205  -4.485  0.00  0.00    +0.000 C 
BRANCH  14  15
ATOM     15  O   UNL     1       4.300  -2.552  -4.474  0.00  0.00    +0.000 OA
BRANCH  15  16
ATOM     16  C   UNL     1       4.282  -3.216  -5.671  0.00  0.00    +0.000 A 
ATOM     17  C   UNL     1       3.808  -2.715  -6.884  0.00  0.00    +0.000 A 
ATOM     18  C   UNL     1       3.862  -3.502  -8.041  0.00  0.00    +0.000 A 
ATOM     19  C   UNL     1       4.399  -4.795  -8.000  0.00  0.00    +0.000 A 
ATOM     20  C   UNL     1       4.876  -5.299  -6.786  0.00  0.00    +0.000 A 
ATOM     21  C   UNL     1       4.807  -4.511  -5.630  0.00  0.00    +0.000 A 
BRANCH  19  22
ATOM     22  C   UNL     1       4.400  -5.596  -9.253  0.00  0.00    +0.000 C 
ATOM     23  N   UNL     1       5.359  -6.555  -9.402  0.00  0.00    +0.000 N 
ATOM     24  O   UNL     1       3.578  -5.387 -10.143  0.00  0.00    +0.000 OA
ATOM     25  H   UNL     1       6.112  -6.716  -8.749  0.00  0.00    +0.000 HD
ATOM     26  H   UNL     1       5.369  -7.060 -10.278  0.00  0.00    +0.000 HD
ENDBRANCH  19  22
ENDBRANCH  15  16
ENDBRANCH  14  15
ENDBRANCH  10  14
TORSDOF 4
