REMARK  Name = 
REMARK  8 active torsions:
REMARK  status: ('A' for Active; 'I' for Inactive)
REMARK    1  A    between atoms: C_1  and  C_2
REMARK    2  A    between atoms: C_4  and  O_5
REMARK    3  A    between atoms: O_5  and  C_6
REMARK    4  A    between atoms: C_6  and  C_7
REMARK    5  A    between atoms: C_7  and  C_10
REMARK    6  A    between atoms: C_14  and  O_15
REMARK    7  A    between atoms: O_15  and  C_16
REMARK    8  A    between atoms: C_23  and  C_24
REMARK                            x       y       z     vdW  Elec       q    Type
REMARK                         _______ _______ _______ _____ _____    ______ ____
ROOT
ATOM      1  C   UNL     1      -1.121   3.598   0.023  0.00  0.00    +0.000 C 
ENDROOT
BRANCH   1   2
ATOM      2  C   UNL     1      -2.060   4.817   0.029  0.00  0.00    +0.000 C 
ATOM      3  F   UNL     1      -2.901   4.722   1.100  0.00  0.00    +0.000 F 
ATOM      4  F   UNL     1      -2.863   4.764  -1.075  0.00  0.00    +0.000 F 
BRANCH   2   5
ATOM      5  C   UNL     1      -1.238   6.097   0.068  0.00  0.00    +0.000 A 
ATOM      6  C   UNL     1      -0.839   6.732  -1.117  0.00  0.00    +0.000 A 
ATOM      7  C   UNL     1      -0.062   7.892  -1.070  0.00  0.00    +0.000 A 
ATOM      8  C   UNL     1       0.336   8.426   0.158  0.00  0.00    +0.000 A 
ATOM      9  C   UNL     1      -0.037   7.793   1.341  0.00  0.00    +0.000 A 
ATOM     10  C   UNL     1      -0.833   6.646   1.295  0.00  0.00    +0.000 A 
BRANCH   9  11
ATOM     11  O   UNL     1       0.294   8.227   2.600  0.00  0.00    +0.000 OA
BRANCH  11  12
ATOM     12  C   UNL     1       1.485   9.030   2.764  0.00  0.00    +0.000 C 
ATOM     13  C   UNL     1       2.848   8.362   2.529  0.00  0.00    +0.000 C 
ATOM     14  O   UNL     1       3.331   8.785   3.827  0.00  0.00    +0.000 OA
ATOM     15  C   UNL     1       1.989   9.173   4.208  0.00  0.00    +0.000 C 
ENDBRANCH  11  12
ENDBRANCH   9  11
ENDBRANCH   2   5
ENDBRANCH   1   2
BRANCH   1  16
ATOM     16  O   UNL     1      -1.846   2.358  -0.031  0.00  0.00    +0.000 OA
BRANCH  16  20
ATOM     17  C   UNL     1       2.510  -0.012   0.037  0.00  0.00    +0.000 C 
ATOM     18  C   UNL     1       1.006  -0.055  -0.017  0.00  0.00    +0.000 A 
ATOM     19  C   UNL     1       0.309   1.170  -0.001  0.00  0.00    +0.000 A 
ATOM     20  C   UNL     1      -1.087   1.216  -0.043  0.00  0.00    +0.000 A 
ATOM     21  C   UNL     1      -1.798   0.021  -0.106  0.00  0.00    +0.000 A 
ATOM     22  C   UNL     1      -1.126  -1.209  -0.127  0.00  0.00    +0.000 A 
ATOM     23  C   UNL     1       0.278  -1.261  -0.076  0.00  0.00    +0.000 A 
BRANCH  23  24
ATOM     24  C   UNL     1       0.976  -2.586  -0.113  0.00  0.00    +0.000 C 
ATOM     25  N   UNL     1       0.308  -3.662   0.403  0.00  0.00    +0.000 N 
ATOM     26  O   UNL     1       2.101  -2.733  -0.573  0.00  0.00    +0.000 OA
ATOM     27  H   UNL     1      -0.533  -3.584   0.957  0.00  0.00    +0.000 HD
ATOM     28  H   UNL     1       0.825  -4.530   0.448  0.00  0.00    +0.000 HD
ENDBRANCH  23  24
ENDBRANCH  16  20
ENDBRANCH   1  16
TORSDOF 7
