REMARK  Name = 
REMARK  6 active torsions:
REMARK  status: ('A' for Active; 'I' for Inactive)
REMARK    1  A    between atoms: C_1  and  C_2
REMARK    2  A    between atoms: C_5  and  O_6
REMARK    3  A    between atoms: O_6  and  C_7
REMARK    4  A    between atoms: C_7  and  C_8
REMARK    5  A    between atoms: C_12  and  C_13
REMARK    6  A    between atoms: C_18  and  C_19
REMARK                            x       y       z     vdW  Elec       q    Type
REMARK                         _______ _______ _______ _____ _____    ______ ____
ROOT
ATOM      1  C   UNL     1      -5.403  -1.795  -0.118  0.00  0.00    +0.000 A 
ATOM      2  C   UNL     1      -5.256  -3.033   0.513  0.00  0.00    +0.000 A 
ATOM      3  C   UNL     1      -6.304  -3.949   0.482  0.00  0.00    +0.000 A 
ATOM      4  C   UNL     1      -7.485  -3.608  -0.162  0.00  0.00    +0.000 A 
ATOM      5  C   UNL     1      -7.571  -2.352  -0.748  0.00  0.00    +0.000 A 
ATOM      6  N   UNL     1      -6.560  -1.432  -0.738  0.00  0.00    +0.000 NA
ENDROOT
BRANCH   5   7
ATOM      7  C   UNL     1      -8.847  -1.963  -1.432  0.00  0.00    +0.000 C 
ATOM      8  N   UNL     1      -8.874  -0.712  -1.985  0.00  0.00    +0.000 N 
ATOM      9  O   UNL     1      -9.818  -2.710  -1.499  0.00  0.00    +0.000 OA
ATOM     10  H   UNL     1      -8.058  -0.114  -1.920  0.00  0.00    +0.000 HD
ATOM     11  H   UNL     1      -9.708  -0.399  -2.459  0.00  0.00    +0.000 HD
ENDBRANCH   5   7
BRANCH   1  12
ATOM     12  C   UNL     1      -4.276  -0.775  -0.083  0.00  0.00    +0.000 C 
BRANCH  12  13
ATOM     13  O   UNL     1      -3.002  -1.429  -0.052  0.00  0.00    +0.000 OA
BRANCH  13  18
ATOM     14  C   UNL     1       1.873   1.502   0.010  0.00  0.00    +0.000 C 
ATOM     15  C   UNL     1       0.581   0.733   0.014  0.00  0.00    +0.000 A 
ATOM     16  C   UNL     1      -0.637   1.429  -0.017  0.00  0.00    +0.000 A 
ATOM     17  C   UNL     1      -1.860   0.750  -0.032  0.00  0.00    +0.000 A 
ATOM     18  C   UNL     1      -1.884  -0.641  -0.021  0.00  0.00    +0.000 A 
ATOM     19  C   UNL     1      -0.674  -1.342   0.021  0.00  0.00    +0.000 A 
ATOM     20  C   UNL     1       0.563  -0.674   0.043  0.00  0.00    +0.000 A 
ATOM     21  C   UNL     1       1.836  -1.474   0.095  0.00  0.00    +0.000 C 
ENDBRANCH  13  18
ENDBRANCH  12  13
ENDBRANCH   1  12
TORSDOF 4
