REMARK  Name = 
REMARK  7 active torsions:
REMARK  status: ('A' for Active; 'I' for Inactive)
REMARK    1  A    between atoms: C_1  and  O_2
REMARK    2  A    between atoms: O_2  and  C_3
REMARK    3  A    between atoms: C_5  and  C_6
REMARK    4  A    between atoms: C_11  and  N_12
REMARK    5  A    between atoms: N_12  and  C_13
REMARK    6  A    between atoms: C_13  and  C_14
REMARK    7  A    between atoms: C_18  and  C_19
REMARK                            x       y       z     vdW  Elec       q    Type
REMARK                         _______ _______ _______ _____ _____    ______ ____
ROOT
ATOM      1  N   UNL     1       4.288   0.805   1.337  0.00  0.00    +0.000 N 
ATOM      2  H   UNL     1       4.367   0.647   2.340  0.00  0.00    +0.000 HD
ENDROOT
BRANCH   1   8
ATOM      3  C   UNL     1       5.536  -1.300   1.238  0.00  0.00    +0.000 A 
ATOM      4  C   UNL     1       6.204  -2.284   0.493  0.00  0.00    +0.000 A 
ATOM      5  C   UNL     1       6.322  -2.175  -0.898  0.00  0.00    +0.000 A 
ATOM      6  C   UNL     1       5.760  -1.072  -1.547  0.00  0.00    +0.000 A 
ATOM      7  C   UNL     1       5.090  -0.095  -0.805  0.00  0.00    +0.000 A 
ATOM      8  C   UNL     1       4.977  -0.172   0.584  0.00  0.00    +0.000 A 
BRANCH   5   9
ATOM      9  C   UNL     1       7.040  -3.267  -1.618  0.00  0.00    +0.000 C 
ATOM     10  N   UNL     1       7.132  -3.203  -2.979  0.00  0.00    +0.000 N 
ATOM     11  O   UNL     1       7.542  -4.208  -1.011  0.00  0.00    +0.000 OA
ATOM     12  H   UNL     1       6.734  -2.492  -3.564  0.00  0.00    +0.000 HD
ATOM     13  H   UNL     1       7.620  -3.975  -3.429  0.00  0.00    +0.000 HD
ENDBRANCH   5   9
BRANCH   3  15
ATOM     14  C   UNL     1       6.072  -2.395   3.289  0.00  0.00    +0.000 C 
ATOM     15  O   UNL     1       5.368  -1.359   2.605  0.00  0.00    +0.000 OA
ENDBRANCH   3  15
ENDBRANCH   1   8
BRANCH   1  16
ATOM     16  C   UNL     1       3.771   2.088   0.836  0.00  0.00    +0.000 C 
ATOM     17  C   UNL     1       2.330   2.410   1.233  0.00  0.00    +0.000 C 
ATOM     18  C   UNL     1       2.654   2.142  -0.197  0.00  0.00    +0.000 C 
BRANCH  16  19
ATOM     19  C   UNL     1       4.760   3.261   0.796  0.00  0.00    +0.000 A 
ATOM     20  C   UNL     1       5.587   3.493  -0.315  0.00  0.00    +0.000 A 
ATOM     21  C   UNL     1       6.321   4.671  -0.448  0.00  0.00    +0.000 A 
ATOM     22  C   UNL     1       6.238   5.657   0.533  0.00  0.00    +0.000 A 
ATOM     23  C   UNL     1       5.448   5.471   1.679  0.00  0.00    +0.000 A 
ATOM     24  C   UNL     1       4.759   4.247   1.802  0.00  0.00    +0.000 A 
BRANCH  23  25
ATOM     25  C   UNL     1       5.257   6.547   2.672  0.00  0.00    +0.000 A 
ATOM     26  C   UNL     1       5.112   6.286   4.042  0.00  0.00    +0.000 A 
ATOM     27  C   UNL     1       4.860   7.323   4.940  0.00  0.00    +0.000 A 
ATOM     28  C   UNL     1       4.771   8.612   4.449  0.00  0.00    +0.000 A 
ATOM     29  N   UNL     1       4.913   8.923   3.146  0.00  0.00    +0.000 NA
ATOM     30  C   UNL     1       5.144   7.890   2.298  0.00  0.00    +0.000 A 
ENDBRANCH  23  25
ENDBRANCH  16  19
ENDBRANCH   1  16
TORSDOF 6
