REMARK  Name = 
REMARK  5 active torsions:
REMARK  status: ('A' for Active; 'I' for Inactive)
REMARK    1  A    between atoms: C_2  and  C_4
REMARK    2  A    between atoms: C_7  and  N_8
REMARK    3  A    between atoms: N_8  and  C_9
REMARK    4  A    between atoms: C_9  and  C_10
REMARK    5  A    between atoms: C_13  and  C_14
REMARK                            x       y       z     vdW  Elec       q    Type
REMARK                         _______ _______ _______ _____ _____    ______ ____
ROOT
ATOM      1  C   UNL     1       4.942  -1.815   5.767  0.00  0.00    +0.000 C 
ATOM      2  C   UNL     1       4.806  -3.339   5.773  0.00  0.00    +0.000 C 
ATOM      3  C   UNL     1       3.590  -2.496   5.906  0.00  0.00    +0.000 C 
ATOM      4  F   UNL     1       2.961  -2.518   7.141  0.00  0.00    +0.000 F 
ENDROOT
BRANCH   1   5
ATOM      5  C   UNL     1       5.600  -1.197   7.001  0.00  0.00    +0.000 A 
ATOM      6  C   UNL     1       4.862  -0.472   7.953  0.00  0.00    +0.000 A 
ATOM      7  C   UNL     1       5.435  -0.033   9.150  0.00  0.00    +0.000 A 
ATOM      8  C   UNL     1       6.783  -0.284   9.423  0.00  0.00    +0.000 A 
ATOM      9  C   UNL     1       7.556  -0.931   8.450  0.00  0.00    +0.000 A 
ATOM     10  C   UNL     1       6.970  -1.380   7.262  0.00  0.00    +0.000 A 
BRANCH   8  11
ATOM     11  C   UNL     1       7.395   0.095  10.748  0.00  0.00    +0.000 C 
ATOM     12  F   UNL     1       6.512   0.663  11.616  0.00  0.00    +0.000 F 
ATOM     13  F   UNL     1       7.917  -0.981  11.402  0.00  0.00    +0.000 F 
ATOM     14  F   UNL     1       8.418   0.984  10.619  0.00  0.00    +0.000 F 
ENDBRANCH   8  11
ENDBRANCH   1   5
BRANCH   1  15
ATOM     15  N   UNL     1       5.395  -1.247   4.478  0.00  0.00    +0.000 N 
ATOM     16  H   UNL     1       6.393  -1.317   4.289  0.00  0.00    +0.000 HD
BRANCH  15  20
ATOM     17  C   UNL     1       3.678   2.016   2.413  0.00  0.00    +0.000 A 
ATOM     18  C   UNL     1       3.132   1.613   3.637  0.00  0.00    +0.000 A 
ATOM     19  C   UNL     1       3.695   0.542   4.340  0.00  0.00    +0.000 A 
ATOM     20  C   UNL     1       4.823  -0.124   3.851  0.00  0.00    +0.000 A 
ATOM     21  C   UNL     1       5.328   0.262   2.600  0.00  0.00    +0.000 A 
ATOM     22  C   UNL     1       4.764   1.323   1.885  0.00  0.00    +0.000 A 
BRANCH  17  24
ATOM     23  N   UNL     1       2.491   4.138   2.352  0.00  0.00    +0.000 N 
ATOM     24  C   UNL     1       3.115   3.153   1.640  0.00  0.00    +0.000 C 
ATOM     25  O   UNL     1       3.235   3.229   0.426  0.00  0.00    +0.000 OA
ATOM     26  H   UNL     1       2.215   4.961   1.831  0.00  0.00    +0.000 HD
ATOM     27  H   UNL     1       2.604   4.233   3.351  0.00  0.00    +0.000 HD
ENDBRANCH  17  24
ENDBRANCH  15  20
ENDBRANCH   1  15
TORSDOF 5
