REMARK  Name = 
REMARK  7 active torsions:
REMARK  status: ('A' for Active; 'I' for Inactive)
REMARK    1  A    between atoms: C_1  and  C_2
REMARK    2  A    between atoms: C_2  and  C_3
REMARK    3  A    between atoms: C_2  and  C_4
REMARK    4  A    between atoms: C_2  and  C_15
REMARK    5  A    between atoms: C_4  and  O_5
REMARK    6  A    between atoms: O_5  and  C_6
REMARK    7  A    between atoms: C_9  and  C_10
REMARK                            x       y       z     vdW  Elec       q    Type
REMARK                         _______ _______ _______ _____ _____    ______ ____
ROOT
ATOM      1  O   UNL     1       2.460  -2.235   0.991  0.00  0.00    +0.000 OA
ENDROOT
BRANCH   1   2
ATOM      2  C   UNL     1       2.907  -3.127   1.913  0.00  0.00    +0.000 A 
ATOM      3  C   UNL     1       3.187  -2.848   3.233  0.00  0.00    +0.000 A 
ATOM      4  N   UNL     1       3.620  -3.758   4.126  0.00  0.00    +0.000 NA
ATOM      5  C   UNL     1       3.749  -5.016   3.649  0.00  0.00    +0.000 A 
ATOM      6  N   UNL     1       3.476  -5.420   2.389  0.00  0.00    +0.000 NA
ATOM      7  C   UNL     1       3.050  -4.452   1.552  0.00  0.00    +0.000 A 
BRANCH   5   8
ATOM      8  C   UNL     1       4.262  -6.040   4.631  0.00  0.00    +0.000 C 
ATOM      9  N   UNL     1       4.541  -5.564   5.893  0.00  0.00    +0.000 N 
ATOM     10  O   UNL     1       4.440  -7.222   4.361  0.00  0.00    +0.000 OA
ATOM     11  H   UNL     1       4.407  -4.589   6.106  0.00  0.00    +0.000 HD
ATOM     12  H   UNL     1       4.910  -6.199   6.582  0.00  0.00    +0.000 HD
ENDBRANCH   5   8
ENDBRANCH   1   2
BRANCH   1  13
ATOM     13  C   UNL     1       2.957  -0.900   1.155  0.00  0.00    +0.000 C 
BRANCH  13  15
ATOM     14  C   UNL     1       0.898   0.062   0.035  0.00  0.00    +0.000 C 
ATOM     15  C   UNL     1       2.442   0.053   0.038  0.00  0.00    +0.000 C 
ATOM     16  C   UNL     1       2.910   1.478   0.438  0.00  0.00    +0.000 C 
BRANCH  15  17
ATOM     17  C   UNL     1       2.964  -0.378  -1.347  0.00  0.00    +0.000 A 
ATOM     18  C   UNL     1       3.765   0.464  -2.138  0.00  0.00    +0.000 A 
ATOM     19  C   UNL     1       4.236   0.057  -3.389  0.00  0.00    +0.000 A 
ATOM     20  C   UNL     1       3.922  -1.206  -3.873  0.00  0.00    +0.000 A 
ATOM     21 CL   UNL     1       4.511  -1.706  -5.409  0.00  0.00    +0.000 Cl
ATOM     22  C   UNL     1       3.132  -2.063  -3.120  0.00  0.00    +0.000 A 
ATOM     23  C   UNL     1       2.648  -1.647  -1.876  0.00  0.00    +0.000 A 
ENDBRANCH  15  17
ENDBRANCH  13  15
ENDBRANCH   1  13
TORSDOF 5
