REMARK  Name = 
REMARK  7 active torsions:
REMARK  status: ('A' for Active; 'I' for Inactive)
REMARK    1  A    between atoms: C_1  and  C_2
REMARK    2  A    between atoms: C_2  and  N_3
REMARK    3  A    between atoms: C_2  and  C_16
REMARK    4  A    between atoms: C_4  and  C_6
REMARK    5  A    between atoms: C_19  and  C_20
REMARK    6  A    between atoms: C_20  and  N_21
REMARK    7  A    between atoms: C_22  and  C_24
REMARK                            x       y       z     vdW  Elec       q    Type
REMARK                         _______ _______ _______ _____ _____    ______ ____
ROOT
ATOM      1  C   UNL     1       1.852  -1.136  -0.960  0.00  0.00    +0.000 C 
ATOM      2  C   UNL     1       2.513  -0.059  -0.093  0.00  0.00    +0.000 C 
ENDROOT
BRANCH   2   3
ATOM      3  C   UNL     1       3.041   1.092  -0.934  0.00  0.00    +0.000 A 
ATOM      4  C   UNL     1       2.561   2.390  -0.703  0.00  0.00    +0.000 A 
ATOM      5  C   UNL     1       2.942   3.456  -1.523  0.00  0.00    +0.000 A 
ATOM      6  C   UNL     1       3.814   3.252  -2.599  0.00  0.00    +0.000 A 
ATOM      7  C   UNL     1       4.354   1.973  -2.791  0.00  0.00    +0.000 A 
ATOM      8  C   UNL     1       3.971   0.905  -1.969  0.00  0.00    +0.000 A 
BRANCH   6   9
ATOM      9  C   UNL     1       4.139   4.376  -3.548  0.00  0.00    +0.000 C 
BRANCH   9  10
ATOM     10  N   UNL     1       5.269   5.159  -3.117  0.00  0.00    +0.000 N 
ATOM     11  C   UNL     1       5.680   6.245  -3.866  0.00  0.00    +0.000 C 
ATOM     12  O   UNL     1       5.075   6.640  -4.860  0.00  0.00    +0.000 OA
ATOM     13  H   UNL     1       6.006   4.706  -2.589  0.00  0.00    +0.000 HD
BRANCH  11  14
ATOM     14  C   UNL     1       6.876   7.000  -3.271  0.00  0.00    +0.000 C 
ATOM     15  C   UNL     1       7.783   7.615  -4.320  0.00  0.00    +0.000 C 
ATOM     16  C   UNL     1       9.054   7.878  -3.538  0.00  0.00    +0.000 C 
ATOM     17  C   UNL     1       9.093   6.778  -2.487  0.00  0.00    +0.000 C 
ATOM     18  N   UNL     1       7.784   6.113  -2.502  0.00  0.00    +0.000 NA
ATOM     19  H   UNL     1       7.435   6.029  -1.549  0.00  0.00    +0.000 HD
ENDBRANCH  11  14
ENDBRANCH   9  10
ENDBRANCH   6   9
ENDBRANCH   2   3
BRANCH   2  20
ATOM     20  N   UNL     1       3.555  -0.630   0.742  0.00  0.00    +0.000 N 
ATOM     21  C   UNL     1       3.264  -1.294   1.908  0.00  0.00    +0.000 C 
ATOM     22  O   UNL     1       2.116  -1.395   2.327  0.00  0.00    +0.000 OA
ATOM     23  H   UNL     1       4.516  -0.499   0.450  0.00  0.00    +0.000 HD
BRANCH  21  24
ATOM     24  C   UNL     1       4.385  -1.932   2.611  0.00  0.00    +0.000 A 
ATOM     25  C   UNL     1       4.126  -2.933   3.537  0.00  0.00    +0.000 A 
ATOM     26  S   UNL     1       5.529  -3.580   4.257  0.00  0.00    +0.000 S 
ATOM     27  C   UNL     1       6.530  -2.513   3.391  0.00  0.00    +0.000 A 
ATOM     28  N   UNL     1       7.878  -2.517   3.575  0.00  0.00    +0.000 NA
ATOM     29  C   UNL     1       8.513  -1.627   2.888  0.00  0.00    +0.000 A 
ATOM     30  N   UNL     1       7.924  -0.744   2.022  0.00  0.00    +0.000 N 
ATOM     31  C   UNL     1       6.578  -0.755   1.747  0.00  0.00    +0.000 A 
ATOM     32  O   UNL     1       6.105  -0.041   0.869  0.00  0.00    +0.000 OA
ATOM     33  C   UNL     1       5.808  -1.698   2.536  0.00  0.00    +0.000 A 
ATOM     34  H   UNL     1       8.481  -0.092   1.490  0.00  0.00    +0.000 HD
ENDBRANCH  21  24
ENDBRANCH   2  20
TORSDOF 6
