REMARK  Name = 
REMARK  9 active torsions:
REMARK  status: ('A' for Active; 'I' for Inactive)
REMARK    1  A    between atoms: C_1  and  C_2
REMARK    2  A    between atoms: C_2  and  C_3
REMARK    3  A    between atoms: C_8  and  C_9
REMARK    4  A    between atoms: N_11  and  C_12
REMARK    5  A    between atoms: C_12  and  C_13
REMARK    6  A    between atoms: C_16  and  C_17
REMARK    7  A    between atoms: C_17  and  C_18
REMARK    8  A    between atoms: C_17  and  C_19
REMARK    9  A    between atoms: C_17  and  C_20
REMARK                            x       y       z     vdW  Elec       q    Type
REMARK                         _______ _______ _______ _____ _____    ______ ____
ROOT
ATOM      1  C   UNL     1       6.269   4.101  -8.740  0.00  0.00    +0.000 C 
ATOM      2  O   UNL     1       7.153   4.700  -8.131  0.00  0.00    +0.000 OA
ATOM      3  N   UNL     1       5.658   2.991  -8.220  0.00  0.00    +0.000 N 
ATOM      4  H   UNL     1       4.954   2.489  -8.746  0.00  0.00    +0.000 HD
ENDROOT
BRANCH   1  10
ATOM      5  C   UNL     1       3.175   3.441 -13.094  0.00  0.00    +0.000 A 
ATOM      6  N   UNL     1       3.900   4.513 -13.202  0.00  0.00    +0.000 NA
ATOM      7  C   UNL     1       4.715   4.758 -12.144  0.00  0.00    +0.000 A 
ATOM      8  S   UNL     1       5.757   6.102 -12.150  0.00  0.00    +0.000 S 
ATOM      9  C   UNL     1       6.381   5.693 -10.620  0.00  0.00    +0.000 A 
ATOM     10  C   UNL     1       5.814   4.548 -10.067  0.00  0.00    +0.000 A 
ATOM     11  C   UNL     1       4.833   4.010 -10.984  0.00  0.00    +0.000 A 
ATOM     12  C   UNL     1       3.977   2.840 -10.895  0.00  0.00    +0.000 A 
ATOM     13  O   UNL     1       3.915   2.096  -9.921  0.00  0.00    +0.000 OA
ATOM     14  N   UNL     1       3.203   2.608 -12.005  0.00  0.00    +0.000 N 
ATOM     15  H   UNL     1       2.609   1.791 -11.959  0.00  0.00    +0.000 HD
BRANCH   5  17
ATOM     16  C   UNL     1       3.034   2.086 -15.156  0.00  0.00    +0.000 C 
ATOM     17  C   UNL     1       2.274   3.012 -14.219  0.00  0.00    +0.000 C 
ENDBRANCH   5  17
ENDBRANCH   1  10
BRANCH   3  18
ATOM     18  C   UNL     1       6.002   2.433  -6.936  0.00  0.00    +0.000 C 
BRANCH  18  19
ATOM     19  C   UNL     1       6.491   1.018  -7.088  0.00  0.00    +0.000 A 
ATOM     20  C   UNL     1       7.845   0.754  -7.308  0.00  0.00    +0.000 A 
ATOM     21  C   UNL     1       8.305  -0.563  -7.435  0.00  0.00    +0.000 A 
ATOM     22  C   UNL     1       7.427  -1.660  -7.355  0.00  0.00    +0.000 A 
ATOM     23  C   UNL     1       6.059  -1.369  -7.194  0.00  0.00    +0.000 A 
ATOM     24  C   UNL     1       5.598  -0.055  -7.056  0.00  0.00    +0.000 A 
BRANCH  22  25
ATOM     25  C   UNL     1       7.921  -3.125  -7.489  0.00  0.00    +0.000 C 
ATOM     26  C   UNL     1       9.394  -3.297  -7.029  0.00  0.00    +0.000 C 
ATOM     27  C   UNL     1       7.104  -4.051  -6.538  0.00  0.00    +0.000 C 
BRANCH  25  28
ATOM     28  C   UNL     1       7.792  -3.612  -8.949  0.00  0.00    +0.000 A 
ATOM     29  C   UNL     1       8.496  -2.985  -9.983  0.00  0.00    +0.000 A 
ATOM     30  C   UNL     1       8.321  -3.417 -11.296  0.00  0.00    +0.000 A 
ATOM     31  C   UNL     1       7.461  -4.474 -11.556  0.00  0.00    +0.000 A 
ATOM     32  C   UNL     1       6.821  -5.066 -10.484  0.00  0.00    +0.000 A 
ATOM     33  N   UNL     1       6.966  -4.662  -9.203  0.00  0.00    +0.000 NA
ENDBRANCH  25  28
ENDBRANCH  22  25
ENDBRANCH  18  19
ENDBRANCH   3  18
TORSDOF 6
