REMARK  Name = 
REMARK  10 active torsions:
REMARK  status: ('A' for Active; 'I' for Inactive)
REMARK    1  A    between atoms: N_1  and  C_2
REMARK    2  A    between atoms: C_2  and  C_3
REMARK    3  A    between atoms: C_3  and  N_4
REMARK    4  A    between atoms: C_3  and  C_20
REMARK    5  A    between atoms: N_4  and  C_5
REMARK    6  A    between atoms: C_5  and  C_6
REMARK    7  A    between atoms: C_9  and  C_10
REMARK    8  A    between atoms: C_10  and  N_11
REMARK    9  A    between atoms: N_11  and  C_12
REMARK   10  A    between atoms: C_12  and  C_13
REMARK                            x       y       z     vdW  Elec       q    Type
REMARK                         _______ _______ _______ _____ _____    ______ ____
ROOT
ATOM      1  N   UNL     1       2.470   0.032   0.066  0.00  0.00    +0.000 NA
ATOM      2  H   UNL     1       2.588  -0.981   0.120  0.00  0.00    +0.000 HD
ENDROOT
BRANCH   1   3
ATOM      3  C   UNL     1       2.902   0.613   1.352  0.00  0.00    +0.000 C 
BRANCH   3   4
ATOM      4  C   UNL     1       2.106  -0.089   2.446  0.00  0.00    +0.000 A 
ATOM      5  C   UNL     1       0.788  -0.510   2.335  0.00  0.00    +0.000 A 
ATOM      6  S   UNL     1       0.189  -1.248   3.753  0.00  0.00    +0.000 S 
ATOM      7  C   UNL     1       1.666  -1.018   4.568  0.00  0.00    +0.000 A 
ATOM      8  N   UNL     1       1.835  -1.426   5.854  0.00  0.00    +0.000 NA
ATOM      9  C   UNL     1       3.003  -1.172   6.341  0.00  0.00    +0.000 A 
ATOM     10  N   UNL     1       4.020  -0.552   5.662  0.00  0.00    +0.000 N 
ATOM     11  C   UNL     1       3.903  -0.128   4.356  0.00  0.00    +0.000 A 
ATOM     12  O   UNL     1       4.840   0.411   3.771  0.00  0.00    +0.000 OA
ATOM     13  C   UNL     1       2.603  -0.392   3.767  0.00  0.00    +0.000 A 
ATOM     14  H   UNL     1       4.913  -0.387   6.104  0.00  0.00    +0.000 HD
ENDBRANCH   3   4
BRANCH   3  15
ATOM     15  C   UNL     1       2.716   2.164   1.417  0.00  0.00    +0.000 C 
BRANCH  15  16
ATOM     16  N   UNL     1       3.152   2.791   2.672  0.00  0.00    +0.000 NA
ATOM     17  H   UNL     1       3.184   3.801   2.548  0.00  0.00    +0.000 HD
ATOM     18  H   UNL     1       4.106   2.488   2.886  0.00  0.00    +0.000 HD
ENDBRANCH  15  16
ENDBRANCH   3  15
ENDBRANCH   1   3
BRANCH   1  19
ATOM     19  C   UNL     1       3.234   0.518  -1.078  0.00  0.00    +0.000 C 
BRANCH  19  20
ATOM     20  C   UNL     1       2.723  -0.080  -2.359  0.00  0.00    +0.000 A 
ATOM     21  C   UNL     1       1.391   0.078  -2.751  0.00  0.00    +0.000 A 
ATOM     22  C   UNL     1       0.966  -0.419  -3.978  0.00  0.00    +0.000 A 
ATOM     23  C   UNL     1       1.892  -1.059  -4.796  0.00  0.00    +0.000 A 
ATOM     24  N   UNL     1       3.187  -1.245  -4.431  0.00  0.00    +0.000 NA
ATOM     25  C   UNL     1       3.569  -0.757  -3.229  0.00  0.00    +0.000 A 
BRANCH  23  26
ATOM     26  C   UNL     1       1.472  -1.589  -6.153  0.00  0.00    +0.000 C 
BRANCH  26  27
ATOM     27  N   UNL     1       1.666  -3.036  -6.325  0.00  0.00    +0.000 NA
ATOM     28  H   UNL     1       2.647  -3.231  -6.094  0.00  0.00    +0.000 HD
BRANCH  27  29
ATOM     29  C   UNL     1       0.836  -3.808  -5.393  0.00  0.00    +0.000 C 
BRANCH  29  30
ATOM     30  C   UNL     1       1.058  -5.270  -5.659  0.00  0.00    +0.000 C 
ATOM     31  C   UNL     1       0.272  -6.022  -6.655  0.00  0.00    +0.000 C 
ATOM     32  C   UNL     1       0.837  -7.334  -6.590  0.00  0.00    +0.000 C 
ATOM     33  C   UNL     1       1.809  -7.263  -5.670  0.00  0.00    +0.000 C 
ATOM     34  N   UNL     1       1.968  -6.020  -5.084  0.00  0.00    +0.000 NA
ENDBRANCH  29  30
ENDBRANCH  27  29
ENDBRANCH  26  27
ENDBRANCH  23  26
ENDBRANCH  19  20
ENDBRANCH   1  19
TORSDOF 10
