REMARK  Name = 
REMARK  8 active torsions:
REMARK  status: ('A' for Active; 'I' for Inactive)
REMARK    1  A    between atoms: C_1  and  O_2
REMARK    2  A    between atoms: O_2  and  C_3
REMARK    3  A    between atoms: C_10  and  C_11
REMARK    4  A    between atoms: N_13  and  C_14
REMARK    5  A    between atoms: C_14  and  C_15
REMARK    6  A    between atoms: C_18  and  N_19
REMARK    7  A    between atoms: N_19  and  C_20
REMARK    8  A    between atoms: C_20  and  C_21
REMARK                            x       y       z     vdW  Elec       q    Type
REMARK                         _______ _______ _______ _____ _____    ______ ____
ROOT
ATOM      1  C   UNL     1       2.974   3.213   0.868  0.00  0.00    +0.000 C 
ENDROOT
BRANCH   1   2
ATOM      2  C   UNL     1       1.798   3.296  -0.071  0.00  0.00    +0.000 A 
ATOM      3  C   UNL     1       1.361   2.153  -0.742  0.00  0.00    +0.000 A 
ATOM      4  C   UNL     1       0.167   2.165  -1.470  0.00  0.00    +0.000 A 
ATOM      5  C   UNL     1      -0.621   3.316  -1.576  0.00  0.00    +0.000 A 
ATOM      6  C   UNL     1      -0.120   4.485  -0.984  0.00  0.00    +0.000 A 
ATOM      7  C   UNL     1       1.077   4.482  -0.248  0.00  0.00    +0.000 A 
BRANCH   5   8
ATOM      8  N   UNL     1      -1.924   3.316  -2.078  0.00  0.00    +0.000 N 
ATOM      9  H   UNL     1      -2.179   4.170  -2.568  0.00  0.00    +0.000 HD
BRANCH   8  10
ATOM     10  C   UNL     1      -2.547   2.094  -2.574  0.00  0.00    +0.000 C 
BRANCH  10  11
ATOM     11  C   UNL     1      -4.084   2.129  -2.431  0.00  0.00    +0.000 C 
ATOM     12  C   UNL     1      -4.552   2.271  -0.971  0.00  0.00    +0.000 C 
ATOM     13  C   UNL     1      -4.283   1.009  -0.147  0.00  0.00    +0.000 C 
ATOM     14  N   UNL     1      -4.883  -0.183  -0.753  0.00  0.00    +0.000 NA
ATOM     15  C   UNL     1      -4.424  -0.384  -2.127  0.00  0.00    +0.000 C 
ATOM     16  C   UNL     1      -4.702   0.838  -3.008  0.00  0.00    +0.000 C 
ATOM     17  H   UNL     1      -5.897  -0.077  -0.754  0.00  0.00    +0.000 HD
ENDBRANCH  10  11
ENDBRANCH   8  10
ENDBRANCH   5   8
ENDBRANCH   1   2
BRANCH   1  20
ATOM     18  C   UNL     1       5.416   3.358   0.897  0.00  0.00    +0.000 C 
ATOM     19  O   UNL     1       5.441   3.061   2.090  0.00  0.00    +0.000 OA
ATOM     20  N   UNL     1       4.232   3.463   0.217  0.00  0.00    +0.000 N 
ATOM     21  H   UNL     1       4.225   3.622  -0.780  0.00  0.00    +0.000 HD
BRANCH  18  29
ATOM     22  C   UNL     1       6.083   4.051  -2.400  0.00  0.00    +0.000 A 
ATOM     23  N   UNL     1       6.595   4.461  -3.576  0.00  0.00    +0.000 NA
ATOM     24  C   UNL     1       7.894   4.769  -3.626  0.00  0.00    +0.000 A 
ATOM     25  N   UNL     1       8.772   4.701  -2.628  0.00  0.00    +0.000 NA
ATOM     26  C   UNL     1       8.219   4.298  -1.471  0.00  0.00    +0.000 A 
ATOM     27  S   UNL     1       9.194   4.124  -0.092  0.00  0.00    +0.000 S 
ATOM     28  C   UNL     1       7.858   3.667   0.854  0.00  0.00    +0.000 A 
ATOM     29  C   UNL     1       6.654   3.657   0.158  0.00  0.00    +0.000 A 
ATOM     30  C   UNL     1       6.884   3.981  -1.246  0.00  0.00    +0.000 A 
BRANCH  22  32
ATOM     31  C   UNL     1       4.074   3.768  -3.595  0.00  0.00    +0.000 C 
ATOM     32  O   UNL     1       4.759   3.669  -2.350  0.00  0.00    +0.000 OA
ENDBRANCH  22  32
ENDBRANCH  18  29
ENDBRANCH   1  20
TORSDOF 7
