REMARK  Name = 
REMARK  5 active torsions:
REMARK  status: ('A' for Active; 'I' for Inactive)
REMARK    1  A    between atoms: N_1  and  C_2
REMARK    2  A    between atoms: C_2  and  C_3
REMARK    3  A    between atoms: C_6  and  O_7
REMARK    4  A    between atoms: O_7  and  C_8
REMARK    5  A    between atoms: C_8  and  C_9
REMARK                            x       y       z     vdW  Elec       q    Type
REMARK                         _______ _______ _______ _____ _____    ______ ____
ROOT
ATOM      1  C   UNL     1       2.940  -0.884  -1.180  0.00  0.00    +0.000 A 
ATOM      2  C   UNL     1       3.739  -0.361  -2.207  0.00  0.00    +0.000 A 
ATOM      3  C   UNL     1       4.183  -1.179  -3.249  0.00  0.00    +0.000 A 
ATOM      4  C   UNL     1       3.846  -2.532  -3.273  0.00  0.00    +0.000 A 
ATOM      5  C   UNL     1       3.013  -3.048  -2.278  0.00  0.00    +0.000 A 
ATOM      6  C   UNL     1       2.572  -2.233  -1.234  0.00  0.00    +0.000 A 
ENDROOT
BRANCH   1   7
ATOM      7  C   UNL     1       2.486  -0.018  -0.034  0.00  0.00    +0.000 C 
BRANCH   7   8
ATOM      8  N   UNL     1       1.640   1.076  -0.492  0.00  0.00    +0.000 NA
ATOM      9  H   UNL     1       1.249   1.555   0.316  0.00  0.00    +0.000 HD
ATOM     10  H   UNL     1       0.851   0.686  -1.007  0.00  0.00    +0.000 HD
ENDBRANCH   7   8
ENDBRANCH   1   7
BRANCH   4  11
ATOM     11  O   UNL     1       4.379  -3.262  -4.302  0.00  0.00    +0.000 OA
BRANCH  11  12
ATOM     12  C   UNL     1       4.445  -4.669  -4.065  0.00  0.00    +0.000 C 
BRANCH  12  13
ATOM     13  C   UNL     1       5.445  -5.293  -5.000  0.00  0.00    +0.000 A 
ATOM     14  C   UNL     1       6.601  -5.899  -4.499  0.00  0.00    +0.000 A 
ATOM     15  C   UNL     1       7.480  -6.491  -5.390  0.00  0.00    +0.000 A 
ATOM     16  N   UNL     1       7.290  -6.516  -6.726  0.00  0.00    +0.000 NA
ATOM     17  C   UNL     1       6.174  -5.914  -7.191  0.00  0.00    +0.000 A 
ATOM     18  C   UNL     1       5.234  -5.297  -6.381  0.00  0.00    +0.000 A 
ENDBRANCH  12  13
ENDBRANCH  11  12
ENDBRANCH   4  11
TORSDOF 5
