REMARK  Name = 
REMARK  4 active torsions:
REMARK  status: ('A' for Active; 'I' for Inactive)
REMARK    1  A    between atoms: C_2  and  C_4
REMARK    2  A    between atoms: N_8  and  C_9
REMARK    3  A    between atoms: C_9  and  C_10
REMARK    4  A    between atoms: C_14  and  C_15
REMARK                            x       y       z     vdW  Elec       q    Type
REMARK                         _______ _______ _______ _____ _____    ______ ____
ROOT
ATOM      1  C   UNL     1       2.499  -0.691   2.769  0.00  0.00    +0.000 A 
ATOM      2  C   UNL     1       2.247  -1.856   3.483  0.00  0.00    +0.000 A 
ATOM      3  C   UNL     1       3.295  -2.744   3.729  0.00  0.00    +0.000 A 
ATOM      4  C   UNL     1       4.568  -2.470   3.234  0.00  0.00    +0.000 A 
ATOM      5  N   UNL     1       5.674  -3.247   3.523  0.00  0.00    +0.000 N 
ATOM      6  N   UNL     1       4.817  -1.357   2.519  0.00  0.00    +0.000 NA
ATOM      7  C   UNL     1       3.787  -0.496   2.294  0.00  0.00    +0.000 A 
ATOM      8  H   UNL     1       6.446  -2.889   2.963  0.00  0.00    +0.000 HD
ENDROOT
BRANCH   1  10
ATOM      9  N   UNL     1       0.414   0.400   3.377  0.00  0.00    +0.000 N 
ATOM     10  C   UNL     1       1.462   0.323   2.499  0.00  0.00    +0.000 C 
ATOM     11  O   UNL     1       1.550   1.090   1.550  0.00  0.00    +0.000 OA
ATOM     12  H   UNL     1      -0.234   1.166   3.236  0.00  0.00    +0.000 HD
ATOM     13  H   UNL     1       0.437  -0.026   4.291  0.00  0.00    +0.000 HD
ENDBRANCH   1  10
BRANCH   5  14
ATOM     14  C   UNL     1       5.570  -4.696   3.533  0.00  0.00    +0.000 C 
BRANCH  14  15
ATOM     15  C   UNL     1       6.686  -5.316   4.336  0.00  0.00    +0.000 A 
ATOM     16  C   UNL     1       7.093  -6.615   4.065  0.00  0.00    +0.000 A 
ATOM     17  N   UNL     1       8.030  -7.277   4.773  0.00  0.00    +0.000 NA
ATOM     18  C   UNL     1       8.594  -6.613   5.813  0.00  0.00    +0.000 A 
ATOM     19  C   UNL     1       8.267  -5.315   6.213  0.00  0.00    +0.000 A 
ATOM     20  C   UNL     1       7.276  -4.682   5.443  0.00  0.00    +0.000 A 
BRANCH  19  21
ATOM     21  C   UNL     1       8.915  -4.654   7.365  0.00  0.00    +0.000 A 
ATOM     22  C   UNL     1       9.122  -3.266   7.413  0.00  0.00    +0.000 A 
ATOM     23  C   UNL     1       9.739  -2.671   8.514  0.00  0.00    +0.000 A 
ATOM     24  C   UNL     1      10.148  -3.482   9.556  0.00  0.00    +0.000 A 
ATOM     25  N   UNL     1       9.978  -4.818   9.566  0.00  0.00    +0.000 NA
ATOM     26  C   UNL     1       9.368  -5.363   8.482  0.00  0.00    +0.000 A 
ENDBRANCH  19  21
ENDBRANCH  14  15
ENDBRANCH   5  14
TORSDOF 4
