REMARK  Name = 
REMARK  12 active torsions:
REMARK  status: ('A' for Active; 'I' for Inactive)
REMARK    1  A    between atoms: C_1  and  C_2
REMARK    2  A    between atoms: C_2  and  C_3
REMARK    3  A    between atoms: C_2  and  C_4
REMARK    4  A    between atoms: C_2  and  C_19
REMARK    5  A    between atoms: C_4  and  N_5
REMARK    6  A    between atoms: N_5  and  C_6
REMARK    7  A    between atoms: C_9  and  C_10
REMARK    8  A    between atoms: C_10  and  C_11
REMARK    9  A    between atoms: C_10  and  O_12
REMARK   10  A    between atoms: C_10  and  C_13
REMARK   11  A    between atoms: C_23  and  O_24
REMARK   12  A    between atoms: O_24  and  C_25
REMARK                            x       y       z     vdW  Elec       q    Type
REMARK                         _______ _______ _______ _____ _____    ______ ____
ROOT
ATOM      1  N   UNL     1       2.616   2.134  -1.352  0.00  0.00    +0.000 N 
ATOM      2  H   UNL     1       1.609   2.075  -1.490  0.00  0.00    +0.000 HD
ENDROOT
BRANCH   1   3
ATOM      3  C   UNL     1       3.056   3.460  -1.512  0.00  0.00    +0.000 A 
ATOM      4  C   UNL     1       4.278   3.929  -1.028  0.00  0.00    +0.000 A 
ATOM      5  C   UNL     1       4.694   5.237  -1.272  0.00  0.00    +0.000 A 
ATOM      6  C   UNL     1       3.892   6.075  -2.038  0.00  0.00    +0.000 A 
ATOM      7  N   UNL     1       2.717   5.643  -2.573  0.00  0.00    +0.000 NA
ATOM      8  C   UNL     1       2.343   4.363  -2.305  0.00  0.00    +0.000 A 
BRANCH   6   9
ATOM      9  C   UNL     1       4.317   7.500  -2.385  0.00  0.00    +0.000 C 
ATOM     10  C   UNL     1       5.623   7.460  -3.193  0.00  0.00    +0.000 C 
BRANCH   9  11
ATOM     11  C   UNL     1       4.473   8.385  -1.112  0.00  0.00    +0.000 C 
ATOM     12  F   UNL     1       4.190   7.722   0.037  0.00  0.00    +0.000 F 
ATOM     13  F   UNL     1       5.745   8.844  -0.974  0.00  0.00    +0.000 F 
ATOM     14  F   UNL     1       3.668   9.474  -1.134  0.00  0.00    +0.000 F 
ENDBRANCH   9  11
BRANCH   9  15
ATOM     15  O   UNL     1       3.339   8.057  -3.308  0.00  0.00    +0.000 OA
ATOM     16  H   UNL     1       2.709   7.325  -3.483  0.00  0.00    +0.000 HD
ENDBRANCH   9  15
ENDBRANCH   6   9
ENDBRANCH   1   3
BRANCH   1  17
ATOM     17  C   UNL     1       3.071   1.424  -0.148  0.00  0.00    +0.000 C 
BRANCH  17  19
ATOM     18  C   UNL     1       1.032  -0.084  -0.030  0.00  0.00    +0.000 C 
ATOM     19  C   UNL     1       2.578  -0.052  -0.034  0.00  0.00    +0.000 C 
ATOM     20  C   UNL     1       3.096  -0.842  -1.260  0.00  0.00    +0.000 C 
BRANCH  19  21
ATOM     21  C   UNL     1       3.085  -0.725   1.266  0.00  0.00    +0.000 A 
ATOM     22  C   UNL     1       2.749  -2.052   1.551  0.00  0.00    +0.000 A 
ATOM     23  N   UNL     1       3.091  -2.715   2.678  0.00  0.00    +0.000 NA
ATOM     24  C   UNL     1       3.822  -2.030   3.583  0.00  0.00    +0.000 A 
ATOM     25  C   UNL     1       4.250  -0.724   3.408  0.00  0.00    +0.000 A 
ATOM     26  C   UNL     1       3.877  -0.068   2.235  0.00  0.00    +0.000 A 
BRANCH  25  27
ATOM     27  O   UNL     1       4.971  -0.180   4.437  0.00  0.00    +0.000 OA
BRANCH  27  28
ATOM     28  C   UNL     1       5.810   0.967   4.193  0.00  0.00    +0.000 C 
ATOM     29  C   UNL     1       7.100   0.741   3.359  0.00  0.00    +0.000 C 
ATOM     30  C   UNL     1       7.823   1.694   4.330  0.00  0.00    +0.000 C 
ATOM     31  C   UNL     1       6.754   1.327   5.374  0.00  0.00    +0.000 C 
ENDBRANCH  27  28
ENDBRANCH  25  27
ENDBRANCH  19  21
ENDBRANCH  17  19
ENDBRANCH   1  17
TORSDOF 9
