REMARK  Name = 
REMARK  4 active torsions:
REMARK  status: ('A' for Active; 'I' for Inactive)
REMARK    1  A    between atoms: N_1  and  C_2
REMARK    2  A    between atoms: C_2  and  C_3
REMARK    3  A    between atoms: C_7  and  C_8
REMARK    4  A    between atoms: C_8  and  N_9
REMARK                            x       y       z     vdW  Elec       q    Type
REMARK                         _______ _______ _______ _____ _____    ______ ____
ROOT
ATOM      1  C   UNL     1       2.728   1.060   1.152  0.00  0.00    +0.000 A 
ATOM      2  C   UNL     1       3.623   0.688   2.145  0.00  0.00    +0.000 A 
ATOM      3  N   UNL     1       4.257   1.547   2.967  0.00  0.00    +0.000 NA
ATOM      4  C   UNL     1       3.942   2.861   2.828  0.00  0.00    +0.000 A 
ATOM      5  C   UNL     1       3.036   3.356   1.899  0.00  0.00    +0.000 A 
ATOM      6  C   UNL     1       2.423   2.421   1.046  0.00  0.00    +0.000 A 
ENDROOT
BRANCH   1   7
ATOM      7  C   UNL     1       2.025   0.018   0.326  0.00  0.00    +0.000 C 
BRANCH   7   8
ATOM      8  N   UNL     1       1.807   0.461  -1.051  0.00  0.00    +0.000 NA
ATOM      9  H   UNL     1       1.381  -0.296  -1.580  0.00  0.00    +0.000 HD
ATOM     10  H   UNL     1       2.713   0.636  -1.487  0.00  0.00    +0.000 HD
ENDBRANCH   7   8
ENDBRANCH   1   7
BRANCH   5  11
ATOM     11  C   UNL     1       2.590   4.783   1.968  0.00  0.00    +0.000 C 
BRANCH  11  12
ATOM     12  N   UNL     1       3.063   5.670   0.889  0.00  0.00    +0.000 N 
ATOM     13  C   UNL     1       3.965   6.679   1.195  0.00  0.00    +0.000 A 
ATOM     14  C   UNL     1       3.232   7.844   1.163  0.00  0.00    +0.000 A 
ATOM     15  C   UNL     1       2.175   7.606   0.247  0.00  0.00    +0.000 A 
ATOM     16  C   UNL     1       1.267   8.428  -0.424  0.00  0.00    +0.000 A 
ATOM     17  C   UNL     1       0.524   7.820  -1.422  0.00  0.00    +0.000 A 
ATOM     18  N   UNL     1       0.557   6.501  -1.724  0.00  0.00    +0.000 NA
ATOM     19  C   UNL     1       1.368   5.682  -1.011  0.00  0.00    +0.000 A 
ATOM     20  C   UNL     1       2.181   6.235  -0.033  0.00  0.00    +0.000 A 
ENDBRANCH  11  12
ENDBRANCH   5  11
TORSDOF 4
