REMARK  Name = 
REMARK  9 active torsions:
REMARK  status: ('A' for Active; 'I' for Inactive)
REMARK    1  A    between atoms: C_1  and  C_2
REMARK    2  A    between atoms: C_2  and  C_3
REMARK    3  A    between atoms: C_2  and  C_14
REMARK    4  A    between atoms: C_3  and  N_4
REMARK    5  A    between atoms: N_4  and  C_5
REMARK    6  A    between atoms: C_8  and  C_9
REMARK    7  A    between atoms: C_18  and  C_19
REMARK    8  A    between atoms: C_19  and  C_20
REMARK    9  A    between atoms: C_24  and  C_25
REMARK                            x       y       z     vdW  Elec       q    Type
REMARK                         _______ _______ _______ _____ _____    ______ ____
ROOT
ATOM      1  C   UNL     1      -0.988  -6.168  -1.275  0.00  0.00    +0.000 C 
ATOM      2  C   UNL     1       0.263  -7.028  -1.054  0.00  0.00    +0.000 C 
ENDROOT
BRANCH   2   3
ATOM      3  C   UNL     1       1.469  -6.119  -0.844  0.00  0.00    +0.000 A 
ATOM      4  C   UNL     1       2.181  -6.144   0.357  0.00  0.00    +0.000 A 
ATOM      5  C   UNL     1       3.284  -5.309   0.533  0.00  0.00    +0.000 A 
ATOM      6  C   UNL     1       3.694  -4.451  -0.491  0.00  0.00    +0.000 A 
ATOM      7  C   UNL     1       3.010  -4.403  -1.718  0.00  0.00    +0.000 A 
ATOM      8  C   UNL     1       1.893  -5.247  -1.864  0.00  0.00    +0.000 A 
BRANCH   7   9
ATOM      9  C   UNL     1       3.552  -3.602  -2.917  0.00  0.00    +0.000 C 
ATOM     10  C   UNL     1       4.349  -2.343  -2.526  0.00  0.00    +0.000 C 
ATOM     11  C   UNL     1       4.450  -4.548  -3.716  0.00  0.00    +0.000 C 
ATOM     12  C   UNL     1       3.945  -4.760  -4.941  0.00  0.00    +0.000 C 
ATOM     13  C   UNL     1       2.766  -3.954  -5.113  0.00  0.00    +0.000 C 
ATOM     14  C   UNL     1       2.521  -3.261  -3.984  0.00  0.00    +0.000 C 
BRANCH  14  15
ATOM     15  C   UNL     1       1.464  -2.243  -3.796  0.00  0.00    +0.000 C 
ATOM     16  F   UNL     1       1.543  -1.587  -2.614  0.00  0.00    +0.000 F 
ATOM     17  F   UNL     1       1.519  -1.296  -4.769  0.00  0.00    +0.000 F 
ATOM     18  F   UNL     1       0.224  -2.791  -3.860  0.00  0.00    +0.000 F 
ENDBRANCH  14  15
ENDBRANCH   7   9
ENDBRANCH   2   3
BRANCH   2  19
ATOM     19  C   UNL     1       0.533  -8.029  -2.207  0.00  0.00    +0.000 C 
BRANCH  19  20
ATOM     20  N   UNL     1      -0.601  -8.936  -2.420  0.00  0.00    +0.000 N 
ATOM     21  H   UNL     1      -1.484  -8.436  -2.500  0.00  0.00    +0.000 HD
BRANCH  20  22
ATOM     22  C   UNL     1      -0.504  -9.922  -3.413  0.00  0.00    +0.000 A 
ATOM     23  C   UNL     1       0.696 -10.524  -3.798  0.00  0.00    +0.000 A 
ATOM     24  C   UNL     1       0.700 -11.585  -4.708  0.00  0.00    +0.000 A 
ATOM     25  C   UNL     1      -0.514 -12.036  -5.200  0.00  0.00    +0.000 A 
ATOM     26  N   UNL     1      -1.715 -11.500  -4.853  0.00  0.00    +0.000 NA
ATOM     27  C   UNL     1      -1.668 -10.479  -3.963  0.00  0.00    +0.000 A 
BRANCH  25  28
ATOM     28  C   UNL     1      -0.550 -13.203  -6.132  0.00  0.00    +0.000 C 
ATOM     29  N   UNL     1      -1.801 -13.592  -6.536  0.00  0.00    +0.000 N 
ATOM     30  O   UNL     1       0.457 -13.792  -6.505  0.00  0.00    +0.000 OA
ATOM     31  H   UNL     1      -2.612 -13.102  -6.175  0.00  0.00    +0.000 HD
ATOM     32  H   UNL     1      -1.907 -14.403  -7.124  0.00  0.00    +0.000 HD
ENDBRANCH  25  28
ENDBRANCH  20  22
ENDBRANCH  19  20
ENDBRANCH   2  19
TORSDOF 7
