REMARK  Name = 
REMARK  4 active torsions:
REMARK  status: ('A' for Active; 'I' for Inactive)
REMARK    1  A    between atoms: N_1  and  C_2
REMARK    2  A    between atoms: C_2  and  C_3
REMARK    3  A    between atoms: C_3  and  N_4
REMARK    4  A    between atoms: C_9  and  C_10
REMARK                            x       y       z     vdW  Elec       q    Type
REMARK                         _______ _______ _______ _____ _____    ______ ____
ROOT
ATOM      1  N   UNL     1       4.377  -1.034  -0.933  0.00  0.00    +0.000 N 
ATOM      2  C   UNL     1       5.223   0.154  -0.881  0.00  0.00    +0.000 C 
ATOM      3  C   UNL     1       6.664  -0.309  -1.188  0.00  0.00    +0.000 C 
ATOM      4  C   UNL     1       6.536  -1.796  -1.098  0.00  0.00    +0.000 A 
ATOM      5  C   UNL     1       7.546  -2.746  -1.159  0.00  0.00    +0.000 A 
ATOM      6  C   UNL     1       7.190  -4.100  -1.109  0.00  0.00    +0.000 A 
ATOM      7  C   UNL     1       5.827  -4.456  -1.029  0.00  0.00    +0.000 A 
ATOM      8  C   UNL     1       4.826  -3.477  -0.979  0.00  0.00    +0.000 A 
ATOM      9  C   UNL     1       5.187  -2.145  -1.000  0.00  0.00    +0.000 A 
ENDROOT
BRANCH   6  10
ATOM     10  C   UNL     1       8.189  -5.206  -1.132  0.00  0.00    +0.000 C 
ATOM     11  N   UNL     1       9.518  -4.890  -1.191  0.00  0.00    +0.000 N 
ATOM     12  O   UNL     1       7.848  -6.383  -1.080  0.00  0.00    +0.000 OA
ATOM     13  H   UNL     1       9.896  -3.958  -1.205  0.00  0.00    +0.000 HD
ATOM     14  H   UNL     1      10.166  -5.667  -1.177  0.00  0.00    +0.000 HD
ENDBRANCH   6  10
BRANCH   1  15
ATOM     15  C   UNL     1       2.925  -0.996  -0.965  0.00  0.00    +0.000 C 
BRANCH  15  16
ATOM     16  C   UNL     1       2.298  -0.921   0.443  0.00  0.00    +0.000 C 
BRANCH  16  17
ATOM     17  N   UNL     1       2.614  -2.076   1.288  0.00  0.00    +0.000 NA
ATOM     18  H   UNL     1       2.262  -1.922   2.229  0.00  0.00    +0.000 HD
ATOM     19  H   UNL     1       3.632  -2.132   1.357  0.00  0.00    +0.000 HD
ENDBRANCH  16  17
ENDBRANCH  15  16
ENDBRANCH   1  15
TORSDOF 4
