REMARK  Name = 
REMARK  6 active torsions:
REMARK  status: ('A' for Active; 'I' for Inactive)
REMARK    1  A    between atoms: C_2  and  C_3
REMARK    2  A    between atoms: C_6  and  N_7
REMARK    3  A    between atoms: N_7  and  C_8
REMARK    4  A    between atoms: C_8  and  C_9
REMARK    5  A    between atoms: C_13  and  C_14
REMARK    6  A    between atoms: C_18  and  C_19
REMARK                            x       y       z     vdW  Elec       q    Type
REMARK                         _______ _______ _______ _____ _____    ______ ____
ROOT
ATOM      1  C   UNL     1       9.740   0.254  -0.501  0.00  0.00    +0.000 A 
ATOM      2  C   UNL     1       9.739   1.287  -1.452  0.00  0.00    +0.000 A 
ATOM      3  C   UNL     1      10.468   2.451  -1.246  0.00  0.00    +0.000 A 
ATOM      4  C   UNL     1      11.245   2.587  -0.096  0.00  0.00    +0.000 A 
ATOM      5  C   UNL     1      11.374   1.540   0.833  0.00  0.00    +0.000 A 
ATOM      6  C   UNL     1      10.611   0.380   0.596  0.00  0.00    +0.000 A 
ENDROOT
BRANCH   5   7
ATOM      7  C   UNL     1      12.281   1.646   2.003  0.00  0.00    +0.000 A 
ATOM      8  C   UNL     1      13.446   2.435   1.946  0.00  0.00    +0.000 A 
ATOM      9  C   UNL     1      14.333   2.519   3.022  0.00  0.00    +0.000 A 
ATOM     10  C   UNL     1      14.095   1.787   4.180  0.00  0.00    +0.000 A 
ATOM     11  C   UNL     1      12.959   0.979   4.264  0.00  0.00    +0.000 A 
ATOM     12  C   UNL     1      12.047   0.939   3.198  0.00  0.00    +0.000 A 
BRANCH  11  13
ATOM     13  C   UNL     1      12.685   0.138   5.458  0.00  0.00    +0.000 C 
ATOM     14  N   UNL     1      13.764  -0.279   6.187  0.00  0.00    +0.000 N 
ATOM     15  O   UNL     1      11.550  -0.217   5.752  0.00  0.00    +0.000 OA
ATOM     16  H   UNL     1      14.708  -0.228   5.831  0.00  0.00    +0.000 HD
ATOM     17  H   UNL     1      13.577  -0.956   6.916  0.00  0.00    +0.000 HD
ENDBRANCH  11  13
ENDBRANCH   5   7
BRANCH   1  18
ATOM     18  C   UNL     1       8.738  -0.889  -0.598  0.00  0.00    +0.000 C 
ATOM     19  C   UNL     1       7.879  -1.219   0.608  0.00  0.00    +0.000 C 
ATOM     20  C   UNL     1       7.279  -0.434  -0.509  0.00  0.00    +0.000 C 
BRANCH  18  21
ATOM     21  N   UNL     1       9.015  -1.869  -1.640  0.00  0.00    +0.000 N 
ATOM     22  H   UNL     1       8.876  -1.619  -2.613  0.00  0.00    +0.000 HD
BRANCH  21  26
ATOM     23  C   UNL     1      11.231  -5.321  -1.610  0.00  0.00    +0.000 A 
ATOM     24  C   UNL     1      10.729  -4.756  -2.766  0.00  0.00    +0.000 A 
ATOM     25  N   UNL     1      10.020  -3.601  -2.769  0.00  0.00    +0.000 NA
ATOM     26  C   UNL     1       9.803  -3.006  -1.573  0.00  0.00    +0.000 A 
ATOM     27  C   UNL     1      10.311  -3.586  -0.410  0.00  0.00    +0.000 A 
ATOM     28  N   UNL     1      11.035  -4.744  -0.394  0.00  0.00    +0.000 NA
BRANCH  23  30
ATOM     29  N   UNL     1      12.548  -7.549  -1.768  0.00  0.00    +0.000 NA
ATOM     30  C   UNL     1      11.964  -6.554  -1.661  0.00  0.00    +0.000 C 
ENDBRANCH  23  30
ENDBRANCH  21  26
ENDBRANCH  18  21
ENDBRANCH   1  18
TORSDOF 6
