REMARK  Name = 
REMARK  3 active torsions:
REMARK  status: ('A' for Active; 'I' for Inactive)
REMARK    1  A    between atoms: C_2  and  C_4
REMARK    2  A    between atoms: N_8  and  C_9
REMARK    3  A    between atoms: C_9  and  C_10
REMARK                            x       y       z     vdW  Elec       q    Type
REMARK                         _______ _______ _______ _____ _____    ______ ____
ROOT
ATOM      1  C   UNL     1       3.166  -3.548  -0.655  0.00  0.00    +0.000 A 
ATOM      2  C   UNL     1       2.440  -3.302  -1.817  0.00  0.00    +0.000 A 
ATOM      3  C   UNL     1       3.115  -2.898  -2.972  0.00  0.00    +0.000 A 
ATOM      4  C   UNL     1       4.494  -2.741  -2.941  0.00  0.00    +0.000 A 
ATOM      5  N   UNL     1       5.237  -2.255  -4.020  0.00  0.00    +0.000 N 
ATOM      6  N   UNL     1       5.207  -2.963  -1.815  0.00  0.00    +0.000 NA
ATOM      7  C   UNL     1       4.534  -3.354  -0.699  0.00  0.00    +0.000 A 
ATOM      8  H   UNL     1       6.210  -2.312  -3.722  0.00  0.00    +0.000 HD
ENDROOT
BRANCH   1  10
ATOM      9  N   UNL     1       1.354  -4.655   0.523  0.00  0.00    +0.000 N 
ATOM     10  C   UNL     1       2.538  -3.972   0.613  0.00  0.00    +0.000 C 
ATOM     11  O   UNL     1       3.064  -3.754   1.694  0.00  0.00    +0.000 OA
ATOM     12  H   UNL     1       0.983  -5.026   1.387  0.00  0.00    +0.000 HD
ATOM     13  H   UNL     1       1.030  -5.067  -0.339  0.00  0.00    +0.000 HD
ENDBRANCH   1  10
BRANCH   5  14
ATOM     14  C   UNL     1       4.987  -2.592  -5.432  0.00  0.00    +0.000 C 
ATOM     15  C   UNL     1       5.118  -1.406  -6.383  0.00  0.00    +0.000 C 
ATOM     16  C   UNL     1       3.797  -2.079  -6.220  0.00  0.00    +0.000 C 
BRANCH  14  17
ATOM     17  C   UNL     1       5.596  -3.930  -5.850  0.00  0.00    +0.000 A 
ATOM     18  C   UNL     1       6.913  -4.019  -6.342  0.00  0.00    +0.000 A 
ATOM     19  C   UNL     1       7.500  -5.249  -6.652  0.00  0.00    +0.000 A 
ATOM     20  C   UNL     1       6.780  -6.427  -6.471  0.00  0.00    +0.000 A 
ATOM     21  C   UNL     1       5.473  -6.364  -6.001  0.00  0.00    +0.000 A 
ATOM     22 CL   UNL     1       4.578  -7.817  -5.769  0.00  0.00    +0.000 Cl
ATOM     23  C   UNL     1       4.884  -5.134  -5.699  0.00  0.00    +0.000 A 
ENDBRANCH  14  17
ENDBRANCH   5  14
TORSDOF 3
