REMARK  Name = 
REMARK  7 active torsions:
REMARK  status: ('A' for Active; 'I' for Inactive)
REMARK    1  A    between atoms: C_1  and  C_2
REMARK    2  A    between atoms: C_2  and  N_3
REMARK    3  A    between atoms: C_2  and  C_26
REMARK    4  A    between atoms: C_4  and  C_6
REMARK    5  A    between atoms: C_9  and  C_10
REMARK    6  A    between atoms: C_10  and  N_11
REMARK    7  A    between atoms: C_12  and  C_14
REMARK                            x       y       z     vdW  Elec       q    Type
REMARK                         _______ _______ _______ _____ _____    ______ ____
ROOT
ATOM      1  C   UNL     1       3.104  -0.841   3.694  0.00  0.00    +0.000 A 
ATOM      2  C   UNL     1       4.401  -1.344   3.755  0.00  0.00    +0.000 A 
ATOM      3  C   UNL     1       4.859  -1.914   4.947  0.00  0.00    +0.000 A 
ATOM      4  C   UNL     1       4.010  -1.959   6.053  0.00  0.00    +0.000 A 
ATOM      5  N   UNL     1       2.730  -1.513   5.994  0.00  0.00    +0.000 NA
ATOM      6  C   UNL     1       2.312  -0.955   4.829  0.00  0.00    +0.000 A 
ENDROOT
BRANCH   1   8
ATOM      7  N   UNL     1       3.113  -0.425   1.285  0.00  0.00    +0.000 N 
ATOM      8  C   UNL     1       2.591  -0.098   2.519  0.00  0.00    +0.000 C 
ATOM      9  O   UNL     1       1.746   0.772   2.673  0.00  0.00    +0.000 OA
ATOM     10  H   UNL     1       3.739  -1.210   1.176  0.00  0.00    +0.000 HD
BRANCH   7  12
ATOM     11  C   UNL     1       2.826  -0.582  -1.157  0.00  0.00    +0.000 C 
ATOM     12  C   UNL     1       2.726   0.303   0.086  0.00  0.00    +0.000 C 
BRANCH  12  13
ATOM     13  C   UNL     1       3.603   1.509  -0.091  0.00  0.00    +0.000 A 
ATOM     14  N   UNL     1       4.714   1.587  -0.802  0.00  0.00    +0.000 NA
ATOM     15  C   UNL     1       5.046   2.914  -0.835  0.00  0.00    +0.000 A 
ATOM     16  C   UNL     1       4.158   3.656  -0.095  0.00  0.00    +0.000 A 
ATOM     17  N   UNL     1       3.259   2.747   0.401  0.00  0.00    +0.000 N 
ATOM     18  H   UNL     1       2.457   2.944   0.985  0.00  0.00    +0.000 HD
ENDBRANCH  12  13
ENDBRANCH   7  12
ENDBRANCH   1   8
BRANCH   4  19
ATOM     19  C   UNL     1       4.511  -2.462   7.390  0.00  0.00    +0.000 C 
BRANCH  19  20
ATOM     20  N   UNL     1       4.314  -3.879   7.571  0.00  0.00    +0.000 N 
ATOM     21  C   UNL     1       5.281  -4.802   7.295  0.00  0.00    +0.000 C 
ATOM     22  O   UNL     1       6.386  -4.489   6.846  0.00  0.00    +0.000 OA
ATOM     23  H   UNL     1       3.345  -4.181   7.609  0.00  0.00    +0.000 HD
BRANCH  21  24
ATOM     24  C   UNL     1       4.950  -6.191   7.631  0.00  0.00    +0.000 A 
ATOM     25  C   UNL     1       5.957  -7.097   7.951  0.00  0.00    +0.000 A 
ATOM     26  S   UNL     1       5.370  -8.648   8.351  0.00  0.00    +0.000 S 
ATOM     27  C   UNL     1       3.760  -8.178   8.069  0.00  0.00    +0.000 A 
ATOM     28  N   UNL     1       2.732  -9.063   8.198  0.00  0.00    +0.000 NA
ATOM     29  C   UNL     1       1.570  -8.576   7.914  0.00  0.00    +0.000 A 
ATOM     30  N   UNL     1       1.337  -7.281   7.525  0.00  0.00    +0.000 N 
ATOM     31  C   UNL     1       2.333  -6.341   7.454  0.00  0.00    +0.000 A 
ATOM     32  O   UNL     1       2.077  -5.164   7.217  0.00  0.00    +0.000 OA
ATOM     33  C   UNL     1       3.665  -6.845   7.712  0.00  0.00    +0.000 A 
ATOM     34  H   UNL     1       0.400  -6.952   7.348  0.00  0.00    +0.000 HD
ENDBRANCH  21  24
ENDBRANCH  19  20
ENDBRANCH   4  19
TORSDOF 6
