REMARK  Name = 
REMARK  6 active torsions:
REMARK  status: ('A' for Active; 'I' for Inactive)
REMARK    1  A    between atoms: C_2  and  C_20
REMARK    2  A    between atoms: N_3  and  C_4
REMARK    3  A    between atoms: C_4  and  C_5
REMARK    4  A    between atoms: C_8  and  C_9
REMARK    5  A    between atoms: C_9  and  N_10
REMARK    6  A    between atoms: C_11  and  C_13
REMARK                            x       y       z     vdW  Elec       q    Type
REMARK                         _______ _______ _______ _____ _____    ______ ____
ROOT
ATOM      1  C   UNL     1       3.374   0.688  -3.559  0.00  0.00    +0.000 A 
ATOM      2  C   UNL     1       3.620   1.996  -3.997  0.00  0.00    +0.000 A 
ATOM      3  C   UNL     1       4.538   2.246  -5.023  0.00  0.00    +0.000 A 
ATOM      4  C   UNL     1       5.211   1.190  -5.651  0.00  0.00    +0.000 A 
ATOM      5  C   UNL     1       4.959  -0.119  -5.219  0.00  0.00    +0.000 A 
ATOM      6  C   UNL     1       4.041  -0.369  -4.192  0.00  0.00    +0.000 A 
ENDROOT
BRANCH   1   7
ATOM      7  C   UNL     1       2.373   0.422  -2.463  0.00  0.00    +0.000 C 
BRANCH   7  10
ATOM      8  O   UNL     1       0.103  -0.264  -0.993  0.00  0.00    +0.000 OA
ATOM      9  C   UNL     1      -0.021  -0.042  -2.194  0.00  0.00    +0.000 C 
ATOM     10  N   UNL     1       1.052   0.228  -3.005  0.00  0.00    +0.000 N 
ATOM     11  H   UNL     1       0.888   0.603  -3.933  0.00  0.00    +0.000 HD
BRANCH   9  12
ATOM     12  C   UNL     1      -1.332  -0.096  -2.854  0.00  0.00    +0.000 A 
ATOM     13  C   UNL     1      -2.359  -0.850  -2.303  0.00  0.00    +0.000 A 
ATOM     14  S   UNL     1      -3.799  -0.813  -3.219  0.00  0.00    +0.000 S 
ATOM     15  C   UNL     1      -3.115   0.253  -4.355  0.00  0.00    +0.000 A 
ATOM     16  N   UNL     1      -3.840   0.717  -5.408  0.00  0.00    +0.000 NA
ATOM     17  C   UNL     1      -3.207   1.547  -6.169  0.00  0.00    +0.000 A 
ATOM     18  N   UNL     1      -1.911   1.947  -5.978  0.00  0.00    +0.000 N 
ATOM     19  C   UNL     1      -1.130   1.479  -4.951  0.00  0.00    +0.000 A 
ATOM     20  O   UNL     1       0.044   1.820  -4.840  0.00  0.00    +0.000 OA
ATOM     21  C   UNL     1      -1.800   0.557  -4.053  0.00  0.00    +0.000 A 
ATOM     22  H   UNL     1      -1.469   2.589  -6.620  0.00  0.00    +0.000 HD
ENDBRANCH   9  12
ENDBRANCH   7  10
ENDBRANCH   1   7
BRANCH   4  23
ATOM     23  C   UNL     1       6.170   1.453  -6.781  0.00  0.00    +0.000 C 
BRANCH  23  24
ATOM     24  N   UNL     1       7.534   1.599  -6.341  0.00  0.00    +0.000 N 
ATOM     25  C   UNL     1       8.549   1.806  -7.247  0.00  0.00    +0.000 C 
ATOM     26  O   UNL     1       8.368   1.822  -8.463  0.00  0.00    +0.000 OA
ATOM     27  H   UNL     1       7.764   1.739  -5.361  0.00  0.00    +0.000 HD
BRANCH  25  28
ATOM     28  C   UNL     1       9.949   1.929  -6.638  0.00  0.00    +0.000 C 
ATOM     29  C   UNL     1      10.642   0.583  -6.556  0.00  0.00    +0.000 C 
ATOM     30  C   UNL     1      11.734   0.829  -5.533  0.00  0.00    +0.000 C 
ATOM     31  C   UNL     1      11.174   1.913  -4.622  0.00  0.00    +0.000 C 
ATOM     32  N   UNL     1       9.906   2.356  -5.217  0.00  0.00    +0.000 NA
ATOM     33  H   UNL     1       9.832   3.372  -5.170  0.00  0.00    +0.000 HD
ENDBRANCH  25  28
ENDBRANCH  23  24
ENDBRANCH   4  23
TORSDOF 6
