REMARK  Name = 
REMARK  7 active torsions:
REMARK  status: ('A' for Active; 'I' for Inactive)
REMARK    1  A    between atoms: C_1  and  S_2
REMARK    2  A    between atoms: S_2  and  C_5
REMARK    3  A    between atoms: N_11  and  C_12
REMARK    4  A    between atoms: C_12  and  C_13
REMARK    5  A    between atoms: C_16  and  O_17
REMARK    6  A    between atoms: O_17  and  C_18
REMARK    7  A    between atoms: C_18  and  C_19
REMARK                            x       y       z     vdW  Elec       q    Type
REMARK                         _______ _______ _______ _____ _____    ______ ____
ROOT
ATOM      1  C   UNL     1       6.549   4.433  -2.458  0.00  0.00    +0.000 A 
ATOM      2  C   UNL     1       6.682   3.662  -3.605  0.00  0.00    +0.000 A 
ATOM      3  C   UNL     1       5.523   3.286  -4.277  0.00  0.00    +0.000 A 
ATOM      4  C   UNL     1       4.291   3.713  -3.751  0.00  0.00    +0.000 A 
ATOM      5  C   UNL     1       2.935   3.538  -4.130  0.00  0.00    +0.000 A 
ATOM      6  C   UNL     1       2.158   4.224  -3.224  0.00  0.00    +0.000 A 
ATOM      7  N   UNL     1       2.994   4.809  -2.300  0.00  0.00    +0.000 N 
ATOM      8  C   UNL     1       4.303   4.497  -2.594  0.00  0.00    +0.000 A 
ATOM      9  N   UNL     1       5.393   4.891  -1.895  0.00  0.00    +0.000 NA
ENDROOT
BRANCH   1  11
ATOM     10  C   UNL     1       7.501   5.761  -0.141  0.00  0.00    +0.000 C 
ATOM     11  S   UNL     1       8.035   4.899  -1.589  0.00  0.00    +0.000 S 
ATOM     12  O   UNL     1       8.740   5.847  -2.435  0.00  0.00    +0.000 OA
ATOM     13  O   UNL     1       8.681   3.670  -1.158  0.00  0.00    +0.000 OA
ENDBRANCH   1  11
BRANCH   7  14
ATOM     14  C   UNL     1       2.546   5.672  -1.215  0.00  0.00    +0.000 C 
BRANCH  14  15
ATOM     15  C   UNL     1       2.186   4.865   0.005  0.00  0.00    +0.000 A 
ATOM     16  C   UNL     1       3.128   4.677   1.024  0.00  0.00    +0.000 A 
ATOM     17  C   UNL     1       2.851   3.837   2.105  0.00  0.00    +0.000 A 
ATOM     18  C   UNL     1       1.632   3.165   2.178  0.00  0.00    +0.000 A 
ATOM     19  C   UNL     1       0.669   3.389   1.195  0.00  0.00    +0.000 A 
ATOM     20  C   UNL     1       0.940   4.234   0.116  0.00  0.00    +0.000 A 
BRANCH  18  21
ATOM     21  O   UNL     1       1.274   2.266   3.149  0.00  0.00    +0.000 OA
BRANCH  21  22
ATOM     22  C   UNL     1       2.311   1.858   4.042  0.00  0.00    +0.000 C 
BRANCH  22  23
ATOM     23  C   UNL     1       1.808   0.718   4.907  0.00  0.00    +0.000 C 
ATOM     24  F   UNL     1       2.773   0.384   5.806  0.00  0.00    +0.000 F 
ENDBRANCH  22  23
ENDBRANCH  21  22
ENDBRANCH  18  21
ENDBRANCH  14  15
ENDBRANCH   7  14
TORSDOF 6
