REMARK  Name = 
REMARK  7 active torsions:
REMARK  status: ('A' for Active; 'I' for Inactive)
REMARK    1  A    between atoms: C_1  and  C_2
REMARK    2  A    between atoms: C_2  and  O_3
REMARK    3  A    between atoms: C_2  and  C_13
REMARK    4  A    between atoms: O_3  and  C_4
REMARK    5  A    between atoms: C_7  and  C_8
REMARK    6  A    between atoms: C_16  and  C_17
REMARK    7  A    between atoms: C_17  and  N_18
REMARK                            x       y       z     vdW  Elec       q    Type
REMARK                         _______ _______ _______ _____ _____    ______ ____
ROOT
ATOM      1  C   UNL     1       3.299  -0.242  -1.228  0.00  0.00    +0.000 C 
ATOM      2  C   UNL     1       2.488   0.081   0.033  0.00  0.00    +0.000 C 
ENDROOT
BRANCH   2   3
ATOM      3  C   UNL     1       3.041   1.362   0.735  0.00  0.00    +0.000 C 
ATOM      4  C   UNL     1       2.326   1.584   2.082  0.00  0.00    +0.000 C 
ATOM      5  C   UNL     1       2.782   2.860   2.796  0.00  0.00    +0.000 C 
ATOM      6  C   UNL     1       2.606   4.088   1.894  0.00  0.00    +0.000 C 
ATOM      7  C   UNL     1       3.434   3.885   0.619  0.00  0.00    +0.000 C 
ATOM      8  C   UNL     1       2.988   2.632  -0.138  0.00  0.00    +0.000 C 
BRANCH   6   9
ATOM      9  C   UNL     1       2.989   5.406   2.590  0.00  0.00    +0.000 C 
BRANCH   9  10
ATOM     10  N   UNL     1       2.144   5.669   3.752  0.00  0.00    +0.000 NA
ATOM     11  H   UNL     1       1.165   5.686   3.467  0.00  0.00    +0.000 HD
ATOM     12  H   UNL     1       2.350   6.597   4.119  0.00  0.00    +0.000 HD
ENDBRANCH   9  10
ENDBRANCH   6   9
ENDBRANCH   2   3
BRANCH   2  13
ATOM     13  O   UNL     1       1.091   0.242  -0.286  0.00  0.00    +0.000 OA
BRANCH  13  14
ATOM     14  C   UNL     1       0.354  -0.874  -0.586  0.00  0.00    +0.000 A 
ATOM     15  C   UNL     1       0.787  -2.194  -0.490  0.00  0.00    +0.000 A 
ATOM     16  C   UNL     1      -0.035  -3.236  -0.917  0.00  0.00    +0.000 A 
ATOM     17  C   UNL     1      -1.295  -2.926  -1.410  0.00  0.00    +0.000 A 
ATOM     18  N   UNL     1      -1.786  -1.660  -1.473  0.00  0.00    +0.000 NA
ATOM     19  C   UNL     1      -0.945  -0.672  -1.055  0.00  0.00    +0.000 A 
BRANCH  17  20
ATOM     20  C   UNL     1      -2.155  -4.039  -1.933  0.00  0.00    +0.000 C 
ATOM     21  N   UNL     1      -3.389  -3.671  -2.392  0.00  0.00    +0.000 N 
ATOM     22  O   UNL     1      -1.779  -5.204  -1.969  0.00  0.00    +0.000 OA
ATOM     23  H   UNL     1      -3.668  -2.695  -2.376  0.00  0.00    +0.000 HD
ATOM     24  H   UNL     1      -3.996  -4.374  -2.791  0.00  0.00    +0.000 HD
ENDBRANCH  17  20
ENDBRANCH  13  14
ENDBRANCH   2  13
TORSDOF 6
