REMARK  Name = 
REMARK  5 active torsions:
REMARK  status: ('A' for Active; 'I' for Inactive)
REMARK    1  A    between atoms: C_2  and  C_4
REMARK    2  A    between atoms: C_7  and  N_8
REMARK    3  A    between atoms: N_8  and  C_9
REMARK    4  A    between atoms: C_9  and  C_10
REMARK    5  A    between atoms: C_14  and  N_15
REMARK                            x       y       z     vdW  Elec       q    Type
REMARK                         _______ _______ _______ _____ _____    ______ ____
ROOT
ATOM      1  N   UNL     1       5.052  -2.218   4.537  0.00  0.00    +0.000 N 
ATOM      2  H   UNL     1       5.879  -1.762   4.165  0.00  0.00    +0.000 HD
ENDROOT
BRANCH   1   6
ATOM      3  C   UNL     1       2.279   0.283   6.483  0.00  0.00    +0.000 A 
ATOM      4  C   UNL     1       2.361  -1.063   6.843  0.00  0.00    +0.000 A 
ATOM      5  C   UNL     1       3.304  -1.895   6.228  0.00  0.00    +0.000 A 
ATOM      6  C   UNL     1       4.187  -1.410   5.258  0.00  0.00    +0.000 A 
ATOM      7  C   UNL     1       4.091  -0.055   4.910  0.00  0.00    +0.000 A 
ATOM      8  C   UNL     1       3.146   0.786   5.511  0.00  0.00    +0.000 A 
BRANCH   3  10
ATOM      9  N   UNL     1       0.779   0.879   8.308  0.00  0.00    +0.000 N 
ATOM     10  C   UNL     1       1.249   1.182   7.061  0.00  0.00    +0.000 C 
ATOM     11  O   UNL     1       0.850   2.172   6.461  0.00  0.00    +0.000 OA
ATOM     12  H   UNL     1       0.134   1.541   8.719  0.00  0.00    +0.000 HD
ATOM     13  H   UNL     1       1.245   0.229   8.925  0.00  0.00    +0.000 HD
ENDBRANCH   3  10
ENDBRANCH   1   6
BRANCH   1  14
ATOM     14  C   UNL     1       5.189  -3.652   4.751  0.00  0.00    +0.000 C 
BRANCH  14  15
ATOM     15  C   UNL     1       6.144  -4.030   5.851  0.00  0.00    +0.000 A 
ATOM     16  C   UNL     1       6.329  -5.379   6.133  0.00  0.00    +0.000 A 
ATOM     17  N   UNL     1       7.175  -5.848   7.069  0.00  0.00    +0.000 NA
ATOM     18  C   UNL     1       7.875  -4.917   7.763  0.00  0.00    +0.000 A 
ATOM     19  C   UNL     1       7.793  -3.531   7.592  0.00  0.00    +0.000 A 
ATOM     20  C   UNL     1       6.892  -3.114   6.606  0.00  0.00    +0.000 A 
BRANCH  19  21
ATOM     21  N   UNL     1       8.542  -2.646   8.334  0.00  0.00    +0.000 N 
ATOM     22  C   UNL     1       8.100  -1.284   8.670  0.00  0.00    +0.000 C 
ATOM     23  C   UNL     1       9.091  -0.249   8.118  0.00  0.00    +0.000 C 
ATOM     24  O   UNL     1      10.435  -0.520   8.549  0.00  0.00    +0.000 OA
ATOM     25  C   UNL     1      10.848  -1.823   8.104  0.00  0.00    +0.000 C 
ATOM     26  C   UNL     1       9.945  -2.932   8.672  0.00  0.00    +0.000 C 
ENDBRANCH  19  21
ENDBRANCH  14  15
ENDBRANCH   1  14
TORSDOF 5
