REMARK  Name = 
REMARK  0 active torsions:
REMARK  status: ('A' for Active; 'I' for Inactive)
REMARK                            x       y       z     vdW  Elec       q    Type
REMARK                         _______ _______ _______ _____ _____    ______ ____
ROOT
ATOM      1  C   UNL     1       1.017   0.973   0.106  0.00  0.00    +0.000 A 
ATOM      2  C   UNL     1       0.266   0.659   1.226  0.00  0.00    +0.000 A 
ATOM      3  C   UNL     1      -0.548  -0.470   1.196  0.00  0.00    +0.000 A 
ATOM      4  C   UNL     1      -0.610  -1.261   0.046  0.00  0.00    +0.000 A 
ATOM      5  N   UNL     1      -1.536  -2.307   0.003  0.00  0.00    +0.000 N 
ATOM      6  C   UNL     1      -1.920  -2.769  -1.330  0.00  0.00    +0.000 C 
ATOM      7  C   UNL     1      -3.306  -3.405  -1.200  0.00  0.00    +0.000 C 
ATOM      8  C   UNL     1      -3.322  -4.519  -0.150  0.00  0.00    +0.000 C 
ATOM      9  C   UNL     1      -2.701  -4.068   1.176  0.00  0.00    +0.000 C 
ATOM     10  C   UNL     1      -1.345  -3.388   0.969  0.00  0.00    +0.000 C 
ATOM     11  N   UNL     1       0.125  -0.958  -1.044  0.00  0.00    +0.000 NA
ATOM     12  C   UNL     1       0.919   0.135  -0.990  0.00  0.00    +0.000 A 
ENDROOT
TORSDOF 0
