REMARK  Name = 
REMARK  5 active torsions:
REMARK  status: ('A' for Active; 'I' for Inactive)
REMARK    1  A    between atoms: N_1  and  C_2
REMARK    2  A    between atoms: C_2  and  C_3
REMARK    3  A    between atoms: C_6  and  C_7
REMARK    4  A    between atoms: C_7  and  N_8
REMARK    5  A    between atoms: C_13  and  C_14
REMARK                            x       y       z     vdW  Elec       q    Type
REMARK                         _______ _______ _______ _____ _____    ______ ____
ROOT
ATOM      1  N   UNL     1       3.772   3.280  -3.210  0.00  0.00    +0.000 N 
ATOM      2  C   UNL     1       4.983   2.633  -3.276  0.00  0.00    +0.000 A 
ATOM      3  C   UNL     1       4.890   1.662  -4.239  0.00  0.00    +0.000 A 
ATOM      4  C   UNL     1       3.702   1.912  -4.967  0.00  0.00    +0.000 A 
ATOM      5  C   UNL     1       3.165   1.344  -6.124  0.00  0.00    +0.000 A 
ATOM      6  C   UNL     1       2.060   1.979  -6.665  0.00  0.00    +0.000 A 
ATOM      7  N   UNL     1       1.441   3.063  -6.115  0.00  0.00    +0.000 NA
ATOM      8  C   UNL     1       1.915   3.564  -4.942  0.00  0.00    +0.000 A 
ATOM      9  C   UNL     1       3.052   2.995  -4.361  0.00  0.00    +0.000 A 
ENDROOT
BRANCH   6  10
ATOM     10  C   UNL     1       1.556   1.488  -7.993  0.00  0.00    +0.000 C 
ATOM     11  N   UNL     1       0.549   2.221  -8.562  0.00  0.00    +0.000 N 
ATOM     12  O   UNL     1       2.025   0.508  -8.558  0.00  0.00    +0.000 OA
ATOM     13  H   UNL     1       0.212   3.058  -8.102  0.00  0.00    +0.000 HD
ATOM     14  H   UNL     1       0.226   1.972  -9.486  0.00  0.00    +0.000 HD
ENDBRANCH   6  10
BRANCH   1  15
ATOM     15  C   UNL     1       3.411   4.184  -2.130  0.00  0.00    +0.000 C 
BRANCH  15  19
ATOM     16  C   UNL     1       5.072   3.919   0.832  0.00  0.00    +0.000 C 
ATOM     17  C   UNL     1       3.850   4.733   1.221  0.00  0.00    +0.000 C 
ATOM     18  O   UNL     1       2.867   4.595   0.179  0.00  0.00    +0.000 OA
ATOM     19  C   UNL     1       3.255   3.542  -0.731  0.00  0.00    +0.000 C 
ATOM     20  C   UNL     1       4.454   2.864  -0.065  0.00  0.00    +0.000 C 
BRANCH  16  21
ATOM     21  C   UNL     1       6.173   4.720   0.126  0.00  0.00    +0.000 C 
BRANCH  21  22
ATOM     22  N   UNL     1       6.727   5.761   0.985  0.00  0.00    +0.000 NA
ATOM     23  H   UNL     1       7.467   6.257   0.487  0.00  0.00    +0.000 HD
ATOM     24  H   UNL     1       7.173   5.344   1.799  0.00  0.00    +0.000 HD
ENDBRANCH  21  22
ENDBRANCH  16  21
ENDBRANCH  15  19
ENDBRANCH   1  15
TORSDOF 5
