REMARK  Name = 
REMARK  6 active torsions:
REMARK  status: ('A' for Active; 'I' for Inactive)
REMARK    1  A    between atoms: C_2  and  C_25
REMARK    2  A    between atoms: N_3  and  C_4
REMARK    3  A    between atoms: C_4  and  C_5
REMARK    4  A    between atoms: C_8  and  C_9
REMARK    5  A    between atoms: C_9  and  N_10
REMARK    6  A    between atoms: C_11  and  C_13
REMARK                            x       y       z     vdW  Elec       q    Type
REMARK                         _______ _______ _______ _____ _____    ______ ____
ROOT
ATOM      1  C   UNL     1       3.300  -1.763  -3.204  0.00  0.00    +0.000 A 
ATOM      2  C   UNL     1       4.203  -0.930  -3.877  0.00  0.00    +0.000 A 
ATOM      3  C   UNL     1       5.095  -1.458  -4.818  0.00  0.00    +0.000 A 
ATOM      4  C   UNL     1       5.087  -2.826  -5.119  0.00  0.00    +0.000 A 
ATOM      5  C   UNL     1       4.199  -3.661  -4.428  0.00  0.00    +0.000 A 
ATOM      6  C   UNL     1       3.308  -3.135  -3.489  0.00  0.00    +0.000 A 
ENDROOT
BRANCH   1   7
ATOM      7  C   UNL     1       2.336  -1.196  -2.199  0.00  0.00    +0.000 C 
BRANCH   7  10
ATOM      8  O   UNL     1       0.194  -0.132  -0.816  0.00  0.00    +0.000 OA
ATOM      9  C   UNL     1       0.073  -0.249  -2.036  0.00  0.00    +0.000 C 
ATOM     10  N   UNL     1       1.090  -0.793  -2.802  0.00  0.00    +0.000 N 
ATOM     11  H   UNL     1       0.955  -0.836  -3.807  0.00  0.00    +0.000 HD
BRANCH   9  12
ATOM     12  C   UNL     1      -1.103   0.165  -2.798  0.00  0.00    +0.000 A 
ATOM     13  N   UNL     1      -1.230  -0.017  -4.102  0.00  0.00    +0.000 NA
ATOM     14  C   UNL     1      -2.447   0.496  -4.515  0.00  0.00    +0.000 A 
ATOM     15  C   UNL     1      -3.220   1.072  -3.532  0.00  0.00    +0.000 A 
ATOM     16  S   UNL     1      -2.415   0.955  -2.022  0.00  0.00    +0.000 S 
ENDBRANCH   9  12
ENDBRANCH   7  10
ENDBRANCH   1   7
BRANCH   4  17
ATOM     17  C   UNL     1       6.042  -3.404  -6.132  0.00  0.00    +0.000 C 
BRANCH  17  18
ATOM     18  N   UNL     1       7.270  -3.815  -5.500  0.00  0.00    +0.000 N 
ATOM     19  C   UNL     1       8.324  -4.312  -6.223  0.00  0.00    +0.000 C 
ATOM     20  O   UNL     1       8.301  -4.386  -7.448  0.00  0.00    +0.000 OA
ATOM     21  H   UNL     1       7.225  -3.995  -4.504  0.00  0.00    +0.000 HD
BRANCH  19  22
ATOM     22  C   UNL     1       9.515  -4.690  -5.451  0.00  0.00    +0.000 A 
ATOM     23  C   UNL     1      10.758  -4.728  -6.069  0.00  0.00    +0.000 A 
ATOM     24  S   UNL     1      12.038  -5.103  -5.004  0.00  0.00    +0.000 S 
ATOM     25  C   UNL     1      10.969  -5.285  -3.693  0.00  0.00    +0.000 A 
ATOM     26  N   UNL     1      11.425  -5.622  -2.457  0.00  0.00    +0.000 NA
ATOM     27  C   UNL     1      10.501  -5.759  -1.565  0.00  0.00    +0.000 A 
ATOM     28  N   UNL     1       9.161  -5.589  -1.798  0.00  0.00    +0.000 N 
ATOM     29  C   UNL     1       8.656  -5.228  -3.023  0.00  0.00    +0.000 A 
ATOM     30  O   UNL     1       7.453  -5.059  -3.190  0.00  0.00    +0.000 OA
ATOM     31  C   UNL     1       9.655  -5.058  -4.061  0.00  0.00    +0.000 A 
ATOM     32  H   UNL     1       8.486  -5.712  -1.057  0.00  0.00    +0.000 HD
ENDBRANCH  19  22
ENDBRANCH  17  18
ENDBRANCH   4  17
TORSDOF 6
