REMARK  Name = 
REMARK  6 active torsions:
REMARK  status: ('A' for Active; 'I' for Inactive)
REMARK    1  A    between atoms: C_1  and  C_2
REMARK    2  A    between atoms: N_9  and  C_10
REMARK    3  A    between atoms: C_10  and  C_11
REMARK    4  A    between atoms: C_14  and  C_15
REMARK    5  A    between atoms: C_15  and  N_16
REMARK    6  A    between atoms: C_17  and  C_19
REMARK                            x       y       z     vdW  Elec       q    Type
REMARK                         _______ _______ _______ _____ _____    ______ ____
ROOT
ATOM      1  C   UNL     1      -0.600  -3.991   0.011  0.00  0.00    +0.000 C 
ATOM      2  C   UNL     1      -1.164  -2.729   0.674  0.00  0.00    +0.000 C 
ATOM      3  C   UNL     1      -2.682  -2.775   0.763  0.00  0.00    +0.000 C 
ATOM      4  C   UNL     1      -3.164  -4.013   1.531  0.00  0.00    +0.000 C 
ATOM      5  C   UNL     1      -2.597  -5.293   0.900  0.00  0.00    +0.000 C 
ATOM      6  C   UNL     1      -1.073  -5.247   0.762  0.00  0.00    +0.000 C 
ENDROOT
BRANCH   1   7
ATOM      7  C   UNL     1       0.931  -3.929  -0.047  0.00  0.00    +0.000 C 
BRANCH   7  16
ATOM      8  C   UNL     1       0.678   0.011  -2.044  0.00  0.00    +0.000 C 
ATOM      9  C   UNL     1       1.996  -0.439  -2.574  0.00  0.00    +0.000 A 
ATOM     10  C   UNL     1       2.943   0.337  -3.225  0.00  0.00    +0.000 A 
ATOM     11  C   UNL     1       3.967  -0.512  -3.689  0.00  0.00    +0.000 A 
ATOM     12  C   UNL     1       3.610  -1.791  -3.344  0.00  0.00    +0.000 A 
ATOM     13  N   UNL     1       2.423  -1.770  -2.626  0.00  0.00    +0.000 N 
ATOM     14  C   UNL     1       1.833  -2.945  -2.109  0.00  0.00    +0.000 C 
ATOM     15  O   UNL     1       1.885  -3.983  -2.749  0.00  0.00    +0.000 OA
ATOM     16  N   UNL     1       1.389  -2.786  -0.819  0.00  0.00    +0.000 N 
ATOM     17  H   UNL     1       1.611  -1.932  -0.323  0.00  0.00    +0.000 HD
ENDBRANCH   7  16
ENDBRANCH   1   7
BRANCH   4  18
ATOM     18  C   UNL     1      -4.697  -4.067   1.571  0.00  0.00    +0.000 C 
BRANCH  18  19
ATOM     19  N   UNL     1      -5.251  -2.887   2.201  0.00  0.00    +0.000 N 
ATOM     20  C   UNL     1      -6.458  -2.351   1.829  0.00  0.00    +0.000 C 
ATOM     21  O   UNL     1      -7.105  -2.786   0.880  0.00  0.00    +0.000 OA
ATOM     22  H   UNL     1      -4.829  -2.590   3.076  0.00  0.00    +0.000 HD
BRANCH  20  23
ATOM     23  C   UNL     1      -6.937  -1.207   2.612  0.00  0.00    +0.000 A 
ATOM     24  C   UNL     1      -7.822  -0.303   2.039  0.00  0.00    +0.000 A 
ATOM     25  S   UNL     1      -8.362   0.901   3.119  0.00  0.00    +0.000 S 
ATOM     26  C   UNL     1      -7.463   0.230   4.400  0.00  0.00    +0.000 A 
ATOM     27  N   UNL     1      -7.557   0.729   5.661  0.00  0.00    +0.000 NA
ATOM     28  C   UNL     1      -6.844   0.102   6.536  0.00  0.00    +0.000 A 
ATOM     29  N   UNL     1      -6.011  -0.950   6.255  0.00  0.00    +0.000 N 
ATOM     30  C   UNL     1      -5.819  -1.434   4.986  0.00  0.00    +0.000 A 
ATOM     31  O   UNL     1      -4.954  -2.266   4.739  0.00  0.00    +0.000 OA
ATOM     32  C   UNL     1      -6.686  -0.835   3.982  0.00  0.00    +0.000 A 
ATOM     33  H   UNL     1      -5.428  -1.349   6.982  0.00  0.00    +0.000 HD
ENDBRANCH  20  23
ENDBRANCH  18  19
ENDBRANCH   4  18
TORSDOF 5
