REMARK  Name = 
REMARK  9 active torsions:
REMARK  status: ('A' for Active; 'I' for Inactive)
REMARK    1  A    between atoms: C_1  and  O_2
REMARK    2  A    between atoms: O_2  and  C_3
REMARK    3  A    between atoms: C_10  and  C_11
REMARK    4  A    between atoms: N_13  and  C_14
REMARK    5  A    between atoms: C_14  and  C_15
REMARK    6  A    between atoms: C_18  and  C_19
REMARK    7  A    between atoms: C_19  and  O_20
REMARK    8  A    between atoms: O_20  and  C_21
REMARK    9  A    between atoms: C_21  and  C_22
REMARK                            x       y       z     vdW  Elec       q    Type
REMARK                         _______ _______ _______ _____ _____    ______ ____
ROOT
ATOM      1  C   UNL     1       3.297  -3.289   0.272  0.00  0.00    +0.000 C 
ENDROOT
BRANCH   1   2
ATOM      2  C   UNL     1       2.284  -3.104   1.371  0.00  0.00    +0.000 A 
ATOM      3  C   UNL     1       1.597  -4.205   1.900  0.00  0.00    +0.000 A 
ATOM      4  C   UNL     1       0.642  -4.032   2.905  0.00  0.00    +0.000 A 
ATOM      5  C   UNL     1       0.351  -2.752   3.395  0.00  0.00    +0.000 A 
ATOM      6  C   UNL     1       1.039  -1.652   2.871  0.00  0.00    +0.000 A 
ATOM      7  C   UNL     1       1.994  -1.826   1.866  0.00  0.00    +0.000 A 
BRANCH   5   8
ATOM      8  C   UNL     1      -0.655  -2.569   4.507  0.00  0.00    +0.000 C 
BRANCH   8   9
ATOM      9  O   UNL     1      -0.311  -3.319   5.672  0.00  0.00    +0.000 OA
BRANCH   9  10
ATOM     10  C   UNL     1       0.896  -2.855   6.274  0.00  0.00    +0.000 C 
BRANCH  10  11
ATOM     11  C   UNL     1       1.154  -3.615   7.546  0.00  0.00    +0.000 A 
ATOM     12  C   UNL     1       2.267  -4.464   7.651  0.00  0.00    +0.000 A 
ATOM     13  C   UNL     1       2.544  -5.120   8.849  0.00  0.00    +0.000 A 
ATOM     14  C   UNL     1       1.712  -4.939   9.951  0.00  0.00    +0.000 A 
ATOM     15  C   UNL     1       0.591  -4.118   9.852  0.00  0.00    +0.000 A 
ATOM     16  C   UNL     1       0.308  -3.463   8.652  0.00  0.00    +0.000 A 
ENDBRANCH  10  11
ENDBRANCH   9  10
ENDBRANCH   8   9
ENDBRANCH   5   8
ENDBRANCH   1   2
BRANCH   1  19
ATOM     17  C   UNL     1       3.430  -3.385  -2.173  0.00  0.00    +0.000 C 
ATOM     18  O   UNL     1       4.653  -3.495  -2.140  0.00  0.00    +0.000 OA
ATOM     19  N   UNL     1       2.683  -3.227  -1.032  0.00  0.00    +0.000 N 
ATOM     20  H   UNL     1       1.672  -3.242  -1.086  0.00  0.00    +0.000 HD
BRANCH  17  28
ATOM     21  C   UNL     1       0.297  -4.333  -3.019  0.00  0.00    +0.000 A 
ATOM     22  N   UNL     1      -0.905  -4.561  -3.585  0.00  0.00    +0.000 NA
ATOM     23  C   UNL     1      -1.065  -4.229  -4.872  0.00  0.00    +0.000 A 
ATOM     24  N   UNL     1      -0.153  -3.692  -5.685  0.00  0.00    +0.000 NA
ATOM     25  C   UNL     1       1.024  -3.477  -5.078  0.00  0.00    +0.000 A 
ATOM     26  S   UNL     1       2.329  -2.834  -5.954  0.00  0.00    +0.000 S 
ATOM     27  C   UNL     1       3.341  -2.885  -4.587  0.00  0.00    +0.000 A 
ATOM     28  C   UNL     1       2.700  -3.342  -3.444  0.00  0.00    +0.000 A 
ATOM     29  C   UNL     1       1.336  -3.739  -3.752  0.00  0.00    +0.000 A 
BRANCH  21  31
ATOM     30  C   UNL     1      -0.640  -5.288  -1.090  0.00  0.00    +0.000 C 
ATOM     31  O   UNL     1       0.502  -4.701  -1.705  0.00  0.00    +0.000 OA
ENDBRANCH  21  31
ENDBRANCH  17  28
ENDBRANCH   1  19
TORSDOF 8
