REMARK  Name = 
REMARK  5 active torsions:
REMARK  status: ('A' for Active; 'I' for Inactive)
REMARK    1  A    between atoms: C_2  and  C_19
REMARK    2  A    between atoms: N_3  and  C_4
REMARK    3  A    between atoms: C_4  and  C_5
REMARK    4  A    between atoms: N_8  and  C_9
REMARK    5  A    between atoms: C_9  and  C_10
REMARK                            x       y       z     vdW  Elec       q    Type
REMARK                         _______ _______ _______ _____ _____    ______ ____
ROOT
ATOM      1  O   UNL     1       0.843   2.558   3.295  0.00  0.00    +0.000 OA
ATOM      2  C   UNL     1       0.289   3.049   2.322  0.00  0.00    +0.000 C 
ATOM      3  N   UNL     1       0.891   3.196   1.095  0.00  0.00    +0.000 N 
ATOM      4  H   UNL     1       0.324   3.517   0.321  0.00  0.00    +0.000 HD
ENDROOT
BRANCH   2   5
ATOM      5  C   UNL     1      -1.078   3.573   2.382  0.00  0.00    +0.000 A 
ATOM      6  C   UNL     1      -1.545   4.201   3.524  0.00  0.00    +0.000 A 
ATOM      7  S   UNL     1      -3.139   4.793   3.362  0.00  0.00    +0.000 S 
ATOM      8  C   UNL     1      -3.280   4.155   1.789  0.00  0.00    +0.000 A 
ATOM      9  N   UNL     1      -4.432   4.287   1.071  0.00  0.00    +0.000 NA
ATOM     10  C   UNL     1      -4.410   3.707  -0.080  0.00  0.00    +0.000 A 
ATOM     11  N   UNL     1      -3.342   3.013  -0.588  0.00  0.00    +0.000 N 
ATOM     12  C   UNL     1      -2.139   2.907   0.066  0.00  0.00    +0.000 A 
ATOM     13  O   UNL     1      -1.171   2.369  -0.458  0.00  0.00    +0.000 OA
ATOM     14  C   UNL     1      -2.121   3.518   1.386  0.00  0.00    +0.000 A 
ATOM     15  H   UNL     1      -3.387   2.599  -1.509  0.00  0.00    +0.000 HD
ENDBRANCH   2   5
BRANCH   3  16
ATOM     16  C   UNL     1       2.138   2.560   0.743  0.00  0.00    +0.000 C 
BRANCH  16  17
ATOM     17  C   UNL     1       3.344   3.515   0.793  0.00  0.00    +0.000 C 
ATOM     18  C   UNL     1       3.200   4.761  -0.089  0.00  0.00    +0.000 C 
ATOM     19  C   UNL     1       3.222   4.436  -1.586  0.00  0.00    +0.000 C 
ATOM     20  N   UNL     1       4.344   3.581  -2.021  0.00  0.00    +0.000 NA
ATOM     21  C   UNL     1       4.554   2.417  -1.143  0.00  0.00    +0.000 C 
ATOM     22  C   UNL     1       4.617   2.793   0.341  0.00  0.00    +0.000 C 
BRANCH  20  23
ATOM     23  C   UNL     1       4.102   3.168  -3.431  0.00  0.00    +0.000 C 
BRANCH  23  24
ATOM     24  C   UNL     1       5.129   2.207  -4.000  0.00  0.00    +0.000 A 
ATOM     25  C   UNL     1       6.463   2.635  -4.125  0.00  0.00    +0.000 A 
ATOM     26  C   UNL     1       7.464   1.753  -4.540  0.00  0.00    +0.000 A 
ATOM     27  C   UNL     1       7.150   0.430  -4.835  0.00  0.00    +0.000 A 
ATOM     28  C   UNL     1       5.827  -0.001  -4.759  0.00  0.00    +0.000 A 
ATOM     29  C   UNL     1       4.818   0.883  -4.363  0.00  0.00    +0.000 A 
ATOM     30 CL   UNL     1       3.203   0.267  -4.344  0.00  0.00    +0.000 Cl
ENDBRANCH  23  24
ENDBRANCH  20  23
ENDBRANCH  16  17
ENDBRANCH   3  16
TORSDOF 5
