REMARK  Name = 
REMARK  11 active torsions:
REMARK  status: ('A' for Active; 'I' for Inactive)
REMARK    1  A    between atoms: C_1  and  C_2
REMARK    2  A    between atoms: C_2  and  C_3
REMARK    3  A    between atoms: C_2  and  C_4
REMARK    4  A    between atoms: C_2  and  C_5
REMARK    5  A    between atoms: C_8  and  C_9
REMARK    6  A    between atoms: C_9  and  N_10
REMARK    7  A    between atoms: C_16  and  C_17
REMARK    8  A    between atoms: N_19  and  C_20
REMARK    9  A    between atoms: C_20  and  C_21
REMARK   10  A    between atoms: C_21  and  C_22
REMARK   11  A    between atoms: C_22  and  N_23
REMARK                            x       y       z     vdW  Elec       q    Type
REMARK                         _______ _______ _______ _____ _____    ______ ____
ROOT
ATOM      1  N   UNL     1       3.852   4.837  -4.020  0.00  0.00    +0.000 N 
ATOM      2  C   UNL     1       2.894   5.546  -4.709  0.00  0.00    +0.000 A 
ATOM      3  C   UNL     1       2.752   6.773  -4.107  0.00  0.00    +0.000 A 
ATOM      4  C   UNL     1       3.631   6.811  -2.990  0.00  0.00    +0.000 A 
ATOM      5  C   UNL     1       3.877   7.765  -1.983  0.00  0.00    +0.000 A 
ATOM      6  C   UNL     1       4.799   7.480  -0.964  0.00  0.00    +0.000 A 
ATOM      7  C   UNL     1       5.494   6.269  -0.956  0.00  0.00    +0.000 A 
ATOM      8  C   UNL     1       5.266   5.310  -1.960  0.00  0.00    +0.000 A 
ATOM      9  C   UNL     1       4.322   5.596  -2.963  0.00  0.00    +0.000 A 
ENDROOT
BRANCH   7  10
ATOM     10  C   UNL     1       6.438   5.906   0.141  0.00  0.00    +0.000 C 
ATOM     11  O   UNL     1       6.596   4.724   0.435  0.00  0.00    +0.000 OA
ATOM     12  N   UNL     1       7.103   6.934   0.780  0.00  0.00    +0.000 N 
ATOM     13  H   UNL     1       7.010   7.882   0.436  0.00  0.00    +0.000 HD
BRANCH  12  14
ATOM     14  C   UNL     1       8.041   6.686   1.854  0.00  0.00    +0.000 C 
BRANCH  14  15
ATOM     15  C   UNL     1       7.625   7.369   3.156  0.00  0.00    +0.000 C 
BRANCH  15  16
ATOM     16  C   UNL     1       6.267   6.871   3.649  0.00  0.00    +0.000 C 
BRANCH  16  17
ATOM     17  N   UNL     1       5.895   7.542   4.892  0.00  0.00    +0.000 NA
ATOM     18  H   UNL     1       6.557   7.292   5.625  0.00  0.00    +0.000 HD
ATOM     19  H   UNL     1       4.990   7.183   5.198  0.00  0.00    +0.000 HD
ENDBRANCH  16  17
ENDBRANCH  15  16
ENDBRANCH  14  15
ENDBRANCH  12  14
ENDBRANCH   7  10
BRANCH   1  20
ATOM     20  C   UNL     1       4.152   3.428  -4.261  0.00  0.00    +0.000 C 
BRANCH  20  24
ATOM     21  C   UNL     1       7.138   2.582  -7.227  0.00  0.00    +0.000 A 
ATOM     22  C   UNL     1       5.984   3.294  -7.579  0.00  0.00    +0.000 A 
ATOM     23  C   UNL     1       5.022   3.615  -6.625  0.00  0.00    +0.000 A 
ATOM     24  C   UNL     1       5.210   3.204  -5.311  0.00  0.00    +0.000 A 
ATOM     25  N   UNL     1       6.305   2.497  -4.940  0.00  0.00    +0.000 NA
ATOM     26  C   UNL     1       7.235   2.216  -5.889  0.00  0.00    +0.000 A 
BRANCH  21  28
ATOM     27  C   UNL     1       8.749   3.638  -8.808  0.00  0.00    +0.000 C 
ATOM     28  C   UNL     1       8.216   2.291  -8.275  0.00  0.00    +0.000 C 
ATOM     29  C   UNL     1       7.618   1.479  -9.445  0.00  0.00    +0.000 C 
ATOM     30  C   UNL     1       9.419   1.493  -7.729  0.00  0.00    +0.000 C 
ENDBRANCH  21  28
ENDBRANCH  20  24
ENDBRANCH   1  20
TORSDOF 8
