REMARK  Name = 
REMARK  6 active torsions:
REMARK  status: ('A' for Active; 'I' for Inactive)
REMARK    1  A    between atoms: C_2  and  C_4
REMARK    2  A    between atoms: C_7  and  N_8
REMARK    3  A    between atoms: N_8  and  C_9
REMARK    4  A    between atoms: C_9  and  C_10
REMARK    5  A    between atoms: C_10  and  C_11
REMARK    6  A    between atoms: C_15  and  N_16
REMARK                            x       y       z     vdW  Elec       q    Type
REMARK                         _______ _______ _______ _____ _____    ______ ____
ROOT
ATOM      1  C   UNL     1       4.852   3.504  -5.070  0.00  0.00    +0.000 C 
ENDROOT
BRANCH   1   2
ATOM      2  N   UNL     1       5.320   2.309  -4.373  0.00  0.00    +0.000 N 
ATOM      3  H   UNL     1       5.442   1.490  -4.964  0.00  0.00    +0.000 HD
BRANCH   2   7
ATOM      4  C   UNL     1       3.866   1.315  -0.530  0.00  0.00    +0.000 A 
ATOM      5  C   UNL     1       3.367   2.444  -1.181  0.00  0.00    +0.000 A 
ATOM      6  C   UNL     1       3.830   2.775  -2.460  0.00  0.00    +0.000 A 
ATOM      7  C   UNL     1       4.774   1.982  -3.128  0.00  0.00    +0.000 A 
ATOM      8  C   UNL     1       5.276   0.863  -2.450  0.00  0.00    +0.000 A 
ATOM      9  C   UNL     1       4.836   0.534  -1.161  0.00  0.00    +0.000 A 
BRANCH   4  11
ATOM     10  N   UNL     1       2.157   1.328   1.207  0.00  0.00    +0.000 N 
ATOM     11  C   UNL     1       3.419   0.947   0.838  0.00  0.00    +0.000 C 
ATOM     12  O   UNL     1       4.133   0.304   1.601  0.00  0.00    +0.000 OA
ATOM     13  H   UNL     1       1.828   0.980   2.098  0.00  0.00    +0.000 HD
ATOM     14  H   UNL     1       1.469   1.625   0.538  0.00  0.00    +0.000 HD
ENDBRANCH   4  11
ENDBRANCH   2   7
ENDBRANCH   1   2
BRANCH   1  15
ATOM     15  C   UNL     1       5.556   3.680  -6.419  0.00  0.00    +0.000 C 
BRANCH  15  16
ATOM     16  C   UNL     1       5.074   4.950  -7.077  0.00  0.00    +0.000 A 
ATOM     17  C   UNL     1       3.988   4.932  -7.957  0.00  0.00    +0.000 A 
ATOM     18  C   UNL     1       3.496   6.127  -8.467  0.00  0.00    +0.000 A 
ATOM     19  C   UNL     1       4.072   7.345  -8.086  0.00  0.00    +0.000 A 
ATOM     20  C   UNL     1       5.150   7.407  -7.192  0.00  0.00    +0.000 A 
ATOM     21  C   UNL     1       5.648   6.184  -6.720  0.00  0.00    +0.000 A 
BRANCH  20  22
ATOM     22  N   UNL     1       5.693   8.621  -6.819  0.00  0.00    +0.000 N 
ATOM     23  C   UNL     1       4.837   9.781  -6.553  0.00  0.00    +0.000 C 
ATOM     24  C   UNL     1       5.410  10.994  -7.283  0.00  0.00    +0.000 C 
ATOM     25  C   UNL     1       6.880  11.217  -6.923  0.00  0.00    +0.000 C 
ATOM     26  C   UNL     1       7.702   9.943  -7.118  0.00  0.00    +0.000 C 
ATOM     27  C   UNL     1       7.082   8.755  -6.381  0.00  0.00    +0.000 C 
ENDBRANCH  20  22
ENDBRANCH  15  16
ENDBRANCH   1  15
TORSDOF 6
