REMARK  Name = 
REMARK  5 active torsions:
REMARK  status: ('A' for Active; 'I' for Inactive)
REMARK    1  A    between atoms: C_1  and  C_2
REMARK    2  A    between atoms: N_5  and  C_6
REMARK    3  A    between atoms: C_6  and  C_7
REMARK    4  A    between atoms: C_11  and  C_12
REMARK    5  A    between atoms: C_21  and  C_22
REMARK                            x       y       z     vdW  Elec       q    Type
REMARK                         _______ _______ _______ _____ _____    ______ ____
ROOT
ATOM      1  C   UNL     1       4.540   3.598   0.200  0.00  0.00    +0.000 C 
ENDROOT
BRANCH   1   6
ATOM      2  C   UNL     1       0.898   0.322   0.240  0.00  0.00    +0.000 C 
ATOM      3  C   UNL     1       2.324   0.202  -0.222  0.00  0.00    +0.000 A 
ATOM      4  N   UNL     1       3.092   1.320  -0.079  0.00  0.00    +0.000 NA
ATOM      5  C   UNL     1       4.375   1.294  -0.496  0.00  0.00    +0.000 A 
ATOM      6  N   UNL     1       5.180   2.442  -0.419  0.00  0.00    +0.000 N 
ATOM      7  C   UNL     1       4.918   0.153  -1.078  0.00  0.00    +0.000 A 
ATOM      8  C   UNL     1       4.133  -0.991  -1.225  0.00  0.00    +0.000 A 
ATOM      9  C   UNL     1       2.809  -0.974  -0.793  0.00  0.00    +0.000 A 
ATOM     10  H   UNL     1       6.061   2.211   0.032  0.00  0.00    +0.000 HD
BRANCH   9  11
ATOM     11  C   UNL     1       1.988  -2.138  -0.953  0.00  0.00    +0.000 C 
ATOM     12  N   UNL     1       1.326  -3.082  -1.079  0.00  0.00    +0.000 NA
ENDBRANCH   9  11
ENDBRANCH   1   6
BRANCH   1  13
ATOM     13  C   UNL     1       5.485   4.773   0.178  0.00  0.00    +0.000 A 
ATOM     14  C   UNL     1       5.908   5.382   1.351  0.00  0.00    +0.000 A 
ATOM     15  N   UNL     1       6.738   6.445   1.392  0.00  0.00    +0.000 NA
ATOM     16  C   UNL     1       7.156   6.943   0.201  0.00  0.00    +0.000 A 
ATOM     17  C   UNL     1       6.789   6.446  -1.052  0.00  0.00    +0.000 A 
ATOM     18  C   UNL     1       5.940   5.326  -1.030  0.00  0.00    +0.000 A 
BRANCH  17  19
ATOM     19  C   UNL     1       7.231   7.072  -2.314  0.00  0.00    +0.000 A 
ATOM     20  C   UNL     1       7.467   6.327  -3.479  0.00  0.00    +0.000 A 
ATOM     21  C   UNL     1       7.832   6.958  -4.670  0.00  0.00    +0.000 A 
ATOM     22  C   UNL     1       7.971   8.333  -4.669  0.00  0.00    +0.000 A 
ATOM     23  N   UNL     1       7.777   9.098  -3.578  0.00  0.00    +0.000 NA
ATOM     24  C   UNL     1       7.411   8.454  -2.440  0.00  0.00    +0.000 A 
ENDBRANCH  17  19
ENDBRANCH   1  13
TORSDOF 4
