REMARK  Name = 
REMARK  4 active torsions:
REMARK  status: ('A' for Active; 'I' for Inactive)
REMARK    1  A    between atoms: C_2  and  C_4
REMARK    2  A    between atoms: N_8  and  C_9
REMARK    3  A    between atoms: C_9  and  C_10
REMARK    4  A    between atoms: C_14  and  C_15
REMARK                            x       y       z     vdW  Elec       q    Type
REMARK                         _______ _______ _______ _____ _____    ______ ____
ROOT
ATOM      1  C   UNL     1       2.276   2.054   1.869  0.00  0.00    +0.000 A 
ATOM      2  C   UNL     1       1.946   2.000   3.218  0.00  0.00    +0.000 A 
ATOM      3  C   UNL     1       2.944   1.729   4.153  0.00  0.00    +0.000 A 
ATOM      4  C   UNL     1       4.247   1.493   3.727  0.00  0.00    +0.000 A 
ATOM      5  N   UNL     1       5.302   1.326   4.601  0.00  0.00    +0.000 N 
ATOM      6  N   UNL     1       4.576   1.518   2.420  0.00  0.00    +0.000 NA
ATOM      7  C   UNL     1       3.591   1.790   1.520  0.00  0.00    +0.000 A 
ATOM      8  H   UNL     1       6.128   1.076   4.060  0.00  0.00    +0.000 HD
ENDROOT
BRANCH   1  10
ATOM      9  N   UNL     1       0.215   3.143   1.194  0.00  0.00    +0.000 N 
ATOM     10  C   UNL     1       1.285   2.373   0.824  0.00  0.00    +0.000 C 
ATOM     11  O   UNL     1       1.431   1.996  -0.328  0.00  0.00    +0.000 OA
ATOM     12  H   UNL     1      -0.406   3.438   0.450  0.00  0.00    +0.000 HD
ATOM     13  H   UNL     1       0.196   3.673   2.053  0.00  0.00    +0.000 HD
ENDBRANCH   1  10
BRANCH   5  14
ATOM     14  C   UNL     1       5.137   0.583   5.837  0.00  0.00    +0.000 C 
BRANCH  14  15
ATOM     15  C   UNL     1       6.146   1.023   6.865  0.00  0.00    +0.000 A 
ATOM     16  C   UNL     1       6.540   0.156   7.875  0.00  0.00    +0.000 A 
ATOM     17  N   UNL     1       7.369   0.500   8.882  0.00  0.00    +0.000 NA
ATOM     18  C   UNL     1       7.825   1.777   8.890  0.00  0.00    +0.000 A 
ATOM     19  C   UNL     1       7.493   2.757   7.953  0.00  0.00    +0.000 A 
ATOM     20  C   UNL     1       6.625   2.341   6.933  0.00  0.00    +0.000 A 
BRANCH  19  21
ATOM     21  C   UNL     1       7.997   4.142   8.033  0.00  0.00    +0.000 A 
ATOM     22  C   UNL     1       8.242   4.918   6.890  0.00  0.00    +0.000 A 
ATOM     23  C   UNL     1       8.699   6.231   7.003  0.00  0.00    +0.000 A 
ATOM     24  C   UNL     1       8.912   6.745   8.268  0.00  0.00    +0.000 A 
ATOM     25  N   UNL     1       8.698   6.047   9.399  0.00  0.00    +0.000 NA
ATOM     26  C   UNL     1       8.247   4.776   9.254  0.00  0.00    +0.000 A 
ENDBRANCH  19  21
ENDBRANCH  14  15
ENDBRANCH   5  14
TORSDOF 4
