REMARK  Name = 
REMARK  8 active torsions:
REMARK  status: ('A' for Active; 'I' for Inactive)
REMARK    1  A    between atoms: C_1  and  O_2
REMARK    2  A    between atoms: O_2  and  C_3
REMARK    3  A    between atoms: C_5  and  C_6
REMARK    4  A    between atoms: C_6  and  N_7
REMARK    5  A    between atoms: C_8  and  C_10
REMARK    6  A    between atoms: C_17  and  C_18
REMARK    7  A    between atoms: C_18  and  N_19
REMARK    8  A    between atoms: C_20  and  C_22
REMARK                            x       y       z     vdW  Elec       q    Type
REMARK                         _______ _______ _______ _____ _____    ______ ____
ROOT
ATOM      1  C   UNL     1       2.960  -1.004  -0.577  0.00  0.00    +0.000 A 
ATOM      2  C   UNL     1       2.698  -1.526  -1.854  0.00  0.00    +0.000 A 
ATOM      3  C   UNL     1       3.482  -2.558  -2.394  0.00  0.00    +0.000 A 
ATOM      4  C   UNL     1       4.535  -3.072  -1.631  0.00  0.00    +0.000 A 
ATOM      5  C   UNL     1       4.804  -2.557  -0.360  0.00  0.00    +0.000 A 
ATOM      6  C   UNL     1       4.029  -1.516   0.180  0.00  0.00    +0.000 A 
ENDROOT
BRANCH   1   8
ATOM      7  C   UNL     1       0.942   0.251  -0.537  0.00  0.00    +0.000 C 
ATOM      8  O   UNL     1       2.246   0.021  -0.013  0.00  0.00    +0.000 OA
ENDBRANCH   1   8
BRANCH   3   9
ATOM      9  C   UNL     1       3.166  -3.126  -3.754  0.00  0.00    +0.000 C 
BRANCH   9  10
ATOM     10  N   UNL     1       2.259  -4.244  -3.654  0.00  0.00    +0.000 N 
ATOM     11  C   UNL     1       1.798  -4.902  -4.771  0.00  0.00    +0.000 C 
ATOM     12  O   UNL     1       2.095  -4.550  -5.909  0.00  0.00    +0.000 OA
ATOM     13  H   UNL     1       2.059  -4.619  -2.739  0.00  0.00    +0.000 HD
BRANCH  11  14
ATOM     14  C   UNL     1       0.947  -6.041  -4.509  0.00  0.00    +0.000 A 
ATOM     15  C   UNL     1       0.460  -6.588  -3.329  0.00  0.00    +0.000 A 
ATOM     16  C   UNL     1      -0.333  -7.716  -3.658  0.00  0.00    +0.000 A 
ATOM     17  C   UNL     1      -0.322  -7.837  -5.026  0.00  0.00    +0.000 A 
ATOM     18  N   UNL     1       0.447  -6.822  -5.530  0.00  0.00    +0.000 N 
ATOM     19  H   UNL     1       0.638  -6.651  -6.514  0.00  0.00    +0.000 HD
ENDBRANCH  11  14
ENDBRANCH   9  10
ENDBRANCH   3   9
BRANCH   6  20
ATOM     20  C   UNL     1       4.332  -1.040   1.583  0.00  0.00    +0.000 C 
BRANCH  20  21
ATOM     21  N   UNL     1       3.592  -1.816   2.555  0.00  0.00    +0.000 N 
ATOM     22  C   UNL     1       4.039  -2.011   3.837  0.00  0.00    +0.000 C 
ATOM     23  O   UNL     1       5.168  -1.695   4.200  0.00  0.00    +0.000 OA
ATOM     24  H   UNL     1       2.599  -1.900   2.367  0.00  0.00    +0.000 HD
BRANCH  22  25
ATOM     25  C   UNL     1       3.102  -2.674   4.756  0.00  0.00    +0.000 A 
ATOM     26  C   UNL     1       3.583  -3.420   5.825  0.00  0.00    +0.000 A 
ATOM     27  S   UNL     1       2.353  -4.105   6.790  0.00  0.00    +0.000 S 
ATOM     28  C   UNL     1       1.134  -3.391   5.840  0.00  0.00    +0.000 A 
ATOM     29  N   UNL     1      -0.179  -3.549   6.154  0.00  0.00    +0.000 NA
ATOM     30  C   UNL     1      -0.993  -2.915   5.376  0.00  0.00    +0.000 A 
ATOM     31  N   UNL     1      -0.611  -2.152   4.303  0.00  0.00    +0.000 N 
ATOM     32  C   UNL     1       0.699  -2.019   3.910  0.00  0.00    +0.000 A 
ATOM     33  O   UNL     1       0.996  -1.422   2.881  0.00  0.00    +0.000 OA
ATOM     34  C   UNL     1       1.658  -2.670   4.781  0.00  0.00    +0.000 A 
ATOM     35  H   UNL     1      -1.298  -1.704   3.714  0.00  0.00    +0.000 HD
ENDBRANCH  22  25
ENDBRANCH  20  21
ENDBRANCH   6  20
TORSDOF 7
