REMARK  Name = 
REMARK  6 active torsions:
REMARK  status: ('A' for Active; 'I' for Inactive)
REMARK    1  A    between atoms: C_1  and  N_2
REMARK    2  A    between atoms: N_2  and  C_3
REMARK    3  A    between atoms: C_3  and  C_4
REMARK    4  A    between atoms: C_7  and  C_8
REMARK    5  A    between atoms: C_8  and  C_9
REMARK    6  A    between atoms: C_18  and  C_20
REMARK                            x       y       z     vdW  Elec       q    Type
REMARK                         _______ _______ _______ _____ _____    ______ ____
ROOT
ATOM      1  C   UNL     1       4.786  -0.540  -2.767  0.00  0.00    +0.000 C 
ATOM      2  N   UNL     1       4.305  -0.316  -1.412  0.00  0.00    +0.000 N 
ATOM      3  C   UNL     1       4.951   0.727  -0.708  0.00  0.00    +0.000 C 
ATOM      4  O   UNL     1       5.872   1.355  -1.218  0.00  0.00    +0.000 OA
ENDROOT
BRANCH   3   5
ATOM      5  C   UNL     1       4.516   1.036   0.661  0.00  0.00    +0.000 A 
ATOM      6  C   UNL     1       4.125   0.085   1.596  0.00  0.00    +0.000 A 
ATOM      7  S   UNL     1       3.726   0.725   3.119  0.00  0.00    +0.000 S 
ATOM      8  C   UNL     1       4.183   2.283   2.629  0.00  0.00    +0.000 A 
ATOM      9  N   UNL     1       4.185   3.311   3.516  0.00  0.00    +0.000 NA
ATOM     10  C   UNL     1       4.621   4.420   3.031  0.00  0.00    +0.000 A 
ATOM     11  N   UNL     1       5.021   4.614   1.731  0.00  0.00    +0.000 N 
ATOM     12  C   UNL     1       4.886   3.638   0.760  0.00  0.00    +0.000 A 
ATOM     13  O   UNL     1       4.986   3.919  -0.427  0.00  0.00    +0.000 OA
ATOM     14  C   UNL     1       4.539   2.333   1.290  0.00  0.00    +0.000 A 
ATOM     15  H   UNL     1       5.278   5.525   1.403  0.00  0.00    +0.000 HD
ENDBRANCH   3   5
BRANCH   2  16
ATOM     16  C   UNL     1       3.016  -0.842  -0.983  0.00  0.00    +0.000 C 
BRANCH  16  17
ATOM     17  C   UNL     1       2.188  -1.580  -1.991  0.00  0.00    +0.000 A 
ATOM     18  C   UNL     1       2.341  -2.966  -2.112  0.00  0.00    +0.000 A 
ATOM     19  C   UNL     1       1.537  -3.683  -2.988  0.00  0.00    +0.000 A 
ATOM     20  C   UNL     1       0.560  -3.028  -3.747  0.00  0.00    +0.000 A 
ATOM     21  C   UNL     1       0.443  -1.632  -3.651  0.00  0.00    +0.000 A 
ATOM     22  C   UNL     1       1.256  -0.908  -2.785  0.00  0.00    +0.000 A 
BRANCH  20  23
ATOM     23  C   UNL     1      -0.323  -3.800  -4.695  0.00  0.00    +0.000 C 
BRANCH  23  24
ATOM     24  C   UNL     1      -1.820  -3.725  -4.417  0.00  0.00    +0.000 C 
ATOM     25  O   UNL     1      -2.309  -3.118  -3.464  0.00  0.00    +0.000 OA
ATOM     26  N   UNL     1      -2.618  -4.432  -5.300  0.00  0.00    +0.000 N 
ATOM     27  C   UNL     1      -2.193  -5.179  -6.465  0.00  0.00    +0.000 C 
ATOM     28  C   UNL     1      -3.485  -5.367  -7.239  0.00  0.00    +0.000 C 
ATOM     29  C   UNL     1      -4.537  -5.530  -6.146  0.00  0.00    +0.000 C 
ATOM     30  C   UNL     1      -3.984  -4.761  -4.950  0.00  0.00    +0.000 C 
ENDBRANCH  23  24
ENDBRANCH  20  23
ENDBRANCH  16  17
ENDBRANCH   2  16
TORSDOF 5
