REMARK  Name = 
REMARK  7 active torsions:
REMARK  status: ('A' for Active; 'I' for Inactive)
REMARK    1  A    between atoms: C_2  and  C_20
REMARK    2  A    between atoms: N_3  and  C_4
REMARK    3  A    between atoms: C_4  and  C_5
REMARK    4  A    between atoms: C_8  and  C_9
REMARK    5  A    between atoms: C_9  and  C_10
REMARK    6  A    between atoms: C_10  and  O_11
REMARK    7  A    between atoms: C_10  and  C_12
REMARK                            x       y       z     vdW  Elec       q    Type
REMARK                         _______ _______ _______ _____ _____    ______ ____
ROOT
ATOM      1  C   UNL     1       2.104  -1.585   1.804  0.00  0.00    +0.000 C 
ENDROOT
BRANCH   1   2
ATOM      2  C   UNL     1       3.048  -2.313   2.719  0.00  0.00    +0.000 A 
ATOM      3  C   UNL     1       3.950  -1.595   3.511  0.00  0.00    +0.000 A 
ATOM      4  C   UNL     1       4.793  -2.254   4.408  0.00  0.00    +0.000 A 
ATOM      5  C   UNL     1       4.763  -3.649   4.531  0.00  0.00    +0.000 A 
ATOM      6  C   UNL     1       3.894  -4.370   3.696  0.00  0.00    +0.000 A 
ATOM      7  C   UNL     1       3.050  -3.710   2.796  0.00  0.00    +0.000 A 
BRANCH   5   8
ATOM      8  C   UNL     1       5.593  -4.416   5.548  0.00  0.00    +0.000 C 
BRANCH   8   9
ATOM      9  C   UNL     1       6.512  -3.585   6.468  0.00  0.00    +0.000 C 
BRANCH   9  10
ATOM     10  C   UNL     1       7.360  -4.433   7.400  0.00  0.00    +0.000 A 
ATOM     11  C   UNL     1       8.608  -3.961   7.807  0.00  0.00    +0.000 A 
ATOM     12  C   UNL     1       9.339  -4.692   8.739  0.00  0.00    +0.000 A 
ATOM     13  C   UNL     1       8.805  -5.868   9.248  0.00  0.00    +0.000 A 
ATOM     14  C   UNL     1       7.554  -6.263   8.806  0.00  0.00    +0.000 A 
ATOM     15  N   UNL     1       6.818  -5.572   7.906  0.00  0.00    +0.000 NA
ENDBRANCH   9  10
BRANCH   9  16
ATOM     16  O   UNL     1       5.735  -2.706   7.293  0.00  0.00    +0.000 OA
ATOM     17  H   UNL     1       5.156  -3.286   7.821  0.00  0.00    +0.000 HD
ENDBRANCH   9  16
ENDBRANCH   8   9
ENDBRANCH   5   8
ENDBRANCH   1   2
BRANCH   1  20
ATOM     18  O   UNL     1       0.769  -0.473  -0.335  0.00  0.00    +0.000 OA
ATOM     19  C   UNL     1       1.966  -0.717  -0.467  0.00  0.00    +0.000 C 
ATOM     20  N   UNL     1       2.691  -1.347   0.511  0.00  0.00    +0.000 N 
ATOM     21  H   UNL     1       3.705  -1.355   0.458  0.00  0.00    +0.000 HD
BRANCH  19  22
ATOM     22  C   UNL     1       2.681  -0.370  -1.700  0.00  0.00    +0.000 A 
ATOM     23  C   UNL     1       1.972  -0.217  -2.883  0.00  0.00    +0.000 A 
ATOM     24  S   UNL     1       2.950   0.209  -4.213  0.00  0.00    +0.000 S 
ATOM     25  C   UNL     1       4.347   0.248  -3.245  0.00  0.00    +0.000 A 
ATOM     26  N   UNL     1       5.551   0.603  -3.767  0.00  0.00    +0.000 NA
ATOM     27  C   UNL     1       6.517   0.630  -2.912  0.00  0.00    +0.000 A 
ATOM     28  N   UNL     1       6.392   0.319  -1.582  0.00  0.00    +0.000 N 
ATOM     29  C   UNL     1       5.205  -0.090  -1.019  0.00  0.00    +0.000 A 
ATOM     30  O   UNL     1       5.147  -0.439   0.155  0.00  0.00    +0.000 OA
ATOM     31  C   UNL     1       4.078  -0.098  -1.932  0.00  0.00    +0.000 A 
ATOM     32  H   UNL     1       7.192   0.334  -0.968  0.00  0.00    +0.000 HD
ENDBRANCH  19  22
ENDBRANCH   1  20
TORSDOF 7
