REMARK  Name = 
REMARK  7 active torsions:
REMARK  status: ('A' for Active; 'I' for Inactive)
REMARK    1  A    between atoms: C_1  and  C_2
REMARK    2  A    between atoms: C_2  and  C_3
REMARK    3  A    between atoms: C_2  and  C_4
REMARK    4  A    between atoms: C_2  and  C_5
REMARK    5  A    between atoms: C_7  and  C_8
REMARK    6  A    between atoms: N_13  and  C_14
REMARK    7  A    between atoms: C_14  and  C_15
REMARK                            x       y       z     vdW  Elec       q    Type
REMARK                         _______ _______ _______ _____ _____    ______ ____
ROOT
ATOM      1  C   UNL     1       2.884   0.939  -1.100  0.00  0.00    +0.000 A 
ATOM      2  C   UNL     1       2.593   2.282  -1.025  0.00  0.00    +0.000 A 
ATOM      3  C   UNL     1       2.937   3.042  -2.111  0.00  0.00    +0.000 A 
ATOM      4  N   UNL     1       3.545   2.560  -3.218  0.00  0.00    +0.000 NA
ATOM      5  C   UNL     1       3.809   1.252  -3.208  0.00  0.00    +0.000 A 
ATOM      6  N   UNL     1       4.384   0.659  -4.306  0.00  0.00    +0.000 N 
ATOM      7  N   UNL     1       3.507   0.428  -2.189  0.00  0.00    +0.000 NA
ATOM      8  H   UNL     1       4.681  -0.291  -4.163  0.00  0.00    +0.000 HD
ENDROOT
BRANCH   3   9
ATOM      9  C   UNL     1       2.602   4.498  -2.087  0.00  0.00    +0.000 C 
ATOM     10  N   UNL     1       2.957   5.221  -3.187  0.00  0.00    +0.000 N 
ATOM     11  O   UNL     1       2.034   5.020  -1.134  0.00  0.00    +0.000 OA
ATOM     12  H   UNL     1       3.401   4.768  -3.979  0.00  0.00    +0.000 HD
ATOM     13  H   UNL     1       2.724   6.204  -3.219  0.00  0.00    +0.000 HD
ENDBRANCH   3   9
BRANCH   1  15
ATOM     14  C   UNL     1       0.903   0.059   0.146  0.00  0.00    +0.000 C 
ATOM     15  C   UNL     1       2.441   0.002   0.032  0.00  0.00    +0.000 C 
ATOM     16  C   UNL     1       3.073   0.443   1.369  0.00  0.00    +0.000 C 
ATOM     17  C   UNL     1       2.847  -1.466  -0.215  0.00  0.00    +0.000 C 
ENDBRANCH   1  15
BRANCH   6  18
ATOM     18  C   UNL     1       4.794   1.430  -5.449  0.00  0.00    +0.000 C 
BRANCH  18  19
ATOM     19  C   UNL     1       4.752   0.577  -6.703  0.00  0.00    +0.000 A 
ATOM     20  C   UNL     1       5.890  -0.113  -7.171  0.00  0.00    +0.000 A 
ATOM     21  C   UNL     1       5.813  -0.908  -8.322  0.00  0.00    +0.000 A 
ATOM     22  C   UNL     1       4.604  -1.038  -8.997  0.00  0.00    +0.000 A 
ATOM     23  F   UNL     1       4.533  -1.829 -10.077  0.00  0.00    +0.000 F 
ATOM     24  C   UNL     1       3.478  -0.365  -8.546  0.00  0.00    +0.000 A 
ATOM     25  F   UNL     1       2.309  -0.501  -9.182  0.00  0.00    +0.000 F 
ATOM     26  C   UNL     1       3.550   0.446  -7.412  0.00  0.00    +0.000 A 
ENDBRANCH  18  19
ENDBRANCH   6  18
TORSDOF 4
