REMARK  Name = 
REMARK  10 active torsions:
REMARK  status: ('A' for Active; 'I' for Inactive)
REMARK    1  A    between atoms: C_2  and  C_3
REMARK    2  A    between atoms: C_4  and  C_5
REMARK    3  A    between atoms: C_7  and  C_8
REMARK    4  A    between atoms: C_13  and  N_14
REMARK    5  A    between atoms: N_14  and  C_15
REMARK    6  A    between atoms: C_15  and  C_16
REMARK    7  A    between atoms: C_16  and  C_17
REMARK    8  A    between atoms: C_16  and  C_18
REMARK    9  A    between atoms: C_16  and  C_19
REMARK   10  A    between atoms: C_23  and  C_24
REMARK                            x       y       z     vdW  Elec       q    Type
REMARK                         _______ _______ _______ _____ _____    ______ ____
ROOT
ATOM      1  N   UNL     1       6.090   1.578  -2.877  0.00  0.00    +0.000 N 
ATOM      2  H   UNL     1       6.618   1.582  -3.743  0.00  0.00    +0.000 HD
ENDROOT
BRANCH   1   8
ATOM      3  C   UNL     1       8.041   0.520  -1.833  0.00  0.00    +0.000 A 
ATOM      4  C   UNL     1       8.540  -0.372  -0.868  0.00  0.00    +0.000 A 
ATOM      5  C   UNL     1       7.665  -1.091  -0.051  0.00  0.00    +0.000 A 
ATOM      6  C   UNL     1       6.312  -0.892  -0.251  0.00  0.00    +0.000 A 
ATOM      7  N   UNL     1       5.795  -0.057  -1.186  0.00  0.00    +0.000 NA
ATOM      8  C   UNL     1       6.640   0.643  -1.977  0.00  0.00    +0.000 A 
BRANCH   5   9
ATOM      9  C   UNL     1       8.212  -2.005   0.981  0.00  0.00    +0.000 C 
ATOM     10  N   UNL     1       7.352  -2.695   1.791  0.00  0.00    +0.000 N 
ATOM     11  O   UNL     1       9.424  -2.149   1.118  0.00  0.00    +0.000 OA
ATOM     12  H   UNL     1       6.345  -2.651   1.773  0.00  0.00    +0.000 HD
ATOM     13  H   UNL     1       7.775  -3.303   2.481  0.00  0.00    +0.000 HD
ENDBRANCH   5   9
BRANCH   3  15
ATOM     14  C   UNL     1       9.568   0.755  -3.755  0.00  0.00    +0.000 C 
ATOM     15  C   UNL     1       8.998   1.274  -2.657  0.00  0.00    +0.000 C 
BRANCH  14  17
ATOM     16  C   UNL     1      11.194   2.337  -5.437  0.00  0.00    +0.000 C 
ATOM     17  C   UNL     1      10.443   1.607  -4.660  0.00  0.00    +0.000 C 
ENDBRANCH  14  17
ENDBRANCH   3  15
ENDBRANCH   1   8
BRANCH   1  18
ATOM     18  C   UNL     1       4.631   1.463  -3.055  0.00  0.00    +0.000 C 
BRANCH  18  19
ATOM     19  C   UNL     1       4.065   2.365  -4.203  0.00  0.00    +0.000 C 
ATOM     20  C   UNL     1       4.592   3.807  -4.002  0.00  0.00    +0.000 C 
ATOM     21  C   UNL     1       4.563   1.868  -5.579  0.00  0.00    +0.000 C 
BRANCH  19  22
ATOM     22  C   UNL     1       2.514   2.288  -4.158  0.00  0.00    +0.000 A 
ATOM     23  C   UNL     1       1.845   1.065  -4.363  0.00  0.00    +0.000 A 
ATOM     24  C   UNL     1       0.455   0.958  -4.231  0.00  0.00    +0.000 A 
ATOM     25  C   UNL     1      -0.302   2.069  -3.863  0.00  0.00    +0.000 A 
ATOM     26  C   UNL     1       0.335   3.291  -3.642  0.00  0.00    +0.000 A 
ATOM     27  C   UNL     1       1.721   3.406  -3.835  0.00  0.00    +0.000 A 
BRANCH  26  28
ATOM     28  C   UNL     1      -0.477   4.437  -3.155  0.00  0.00    +0.000 C 
ATOM     29  N   UNL     1       0.176   5.397  -2.424  0.00  0.00    +0.000 N 
ATOM     30  O   UNL     1      -1.685   4.501  -3.334  0.00  0.00    +0.000 OA
ATOM     31  H   UNL     1       1.108   5.263  -2.057  0.00  0.00    +0.000 HD
ATOM     32  H   UNL     1      -0.407   6.086  -1.967  0.00  0.00    +0.000 HD
ENDBRANCH  26  28
ENDBRANCH  19  22
ENDBRANCH  18  19
ENDBRANCH   1  18
TORSDOF 8
