REMARK  Name = 
REMARK  8 active torsions:
REMARK  status: ('A' for Active; 'I' for Inactive)
REMARK    1  A    between atoms: C_1  and  C_2
REMARK    2  A    between atoms: C_2  and  C_3
REMARK    3  A    between atoms: C_2  and  C_4
REMARK    4  A    between atoms: C_2  and  C_5
REMARK    5  A    between atoms: C_8  and  C_9
REMARK    6  A    between atoms: C_9  and  N_10
REMARK    7  A    between atoms: C_15  and  C_16
REMARK    8  A    between atoms: C_16  and  O_18
REMARK                            x       y       z     vdW  Elec       q    Type
REMARK                         _______ _______ _______ _____ _____    ______ ____
ROOT
ATOM      1  N   UNL     1       5.185   1.834  -5.740  0.00  0.00    +0.000 NA
ATOM      2  C   UNL     1       4.803   2.289  -7.067  0.00  0.00    +0.000 C 
ATOM      3  C   UNL     1       5.853   1.981  -7.993  0.00  0.00    +0.000 C 
ATOM      4  C   UNL     1       6.899   1.663  -7.233  0.00  0.00    +0.000 C 
ATOM      5  C   UNL     1       8.250   1.419  -7.662  0.00  0.00    +0.000 C 
ATOM      6  C   UNL     1       9.246   1.518  -6.759  0.00  0.00    +0.000 C 
ATOM      7  C   UNL     1       8.922   1.822  -5.349  0.00  0.00    +0.000 C 
ATOM      8  C   UNL     1       7.622   1.903  -4.958  0.00  0.00    +0.000 C 
ATOM      9  N   UNL     1       6.595   1.747  -5.870  0.00  0.00    +0.000 N 
ENDROOT
BRANCH   6  10
ATOM     10  C   UNL     1      10.609   1.481  -7.357  0.00  0.00    +0.000 C 
ATOM     11  O   UNL     1      10.828   1.731  -8.532  0.00  0.00    +0.000 OA
BRANCH  10  12
ATOM     12  O   UNL     1      11.597   1.153  -6.502  0.00  0.00    +0.000 OA
ATOM     13  H   UNL     1      11.295   0.806  -5.646  0.00  0.00    +0.000 HD
ENDBRANCH  10  12
ENDBRANCH   6  10
BRANCH   1  14
ATOM     14  C   UNL     1       4.498   2.501  -4.652  0.00  0.00    +0.000 C 
BRANCH  14  18
ATOM     15  C   UNL     1       2.958   0.450  -1.091  0.00  0.00    +0.000 A 
ATOM     16  C   UNL     1       2.808   1.813  -1.358  0.00  0.00    +0.000 A 
ATOM     17  C   UNL     1       3.337   2.407  -2.494  0.00  0.00    +0.000 A 
ATOM     18  C   UNL     1       4.070   1.678  -3.437  0.00  0.00    +0.000 A 
ATOM     19  C   UNL     1       4.222   0.303  -3.215  0.00  0.00    +0.000 A 
ATOM     20  C   UNL     1       3.672  -0.294  -2.047  0.00  0.00    +0.000 A 
BRANCH  15  22
ATOM     21  C   UNL     1       1.155   0.655   0.737  0.00  0.00    +0.000 C 
ATOM     22  C   UNL     1       2.414  -0.113   0.235  0.00  0.00    +0.000 C 
ATOM     23  C   UNL     1       3.523   0.055   1.292  0.00  0.00    +0.000 C 
ATOM     24  C   UNL     1       2.002  -1.596   0.170  0.00  0.00    +0.000 C 
ENDBRANCH  15  22
ENDBRANCH  14  18
ENDBRANCH   1  14
TORSDOF 5
