REMARK  Name = 
REMARK  7 active torsions:
REMARK  status: ('A' for Active; 'I' for Inactive)
REMARK    1  A    between atoms: C_2  and  O_3
REMARK    2  A    between atoms: C_2  and  C_4
REMARK    3  A    between atoms: C_7  and  N_8
REMARK    4  A    between atoms: N_8  and  C_9
REMARK    5  A    between atoms: C_9  and  C_10
REMARK    6  A    between atoms: C_10  and  C_13
REMARK    7  A    between atoms: C_17  and  C_18
REMARK                            x       y       z     vdW  Elec       q    Type
REMARK                         _______ _______ _______ _____ _____    ______ ____
ROOT
ATOM      1  C   UNL     1       5.958  -6.370  -3.412  0.00  0.00    +0.000 C 
ATOM      2  F   UNL     1       7.239  -5.912  -3.526  0.00  0.00    +0.000 F 
ATOM      3  F   UNL     1       5.956  -7.140  -2.276  0.00  0.00    +0.000 F 
ENDROOT
BRANCH   1   4
ATOM      4  C   UNL     1       5.518  -7.158  -4.631  0.00  0.00    +0.000 A 
ATOM      5  C   UNL     1       4.640  -8.240  -4.483  0.00  0.00    +0.000 A 
ATOM      6  C   UNL     1       4.219  -8.961  -5.595  0.00  0.00    +0.000 A 
ATOM      7  C   UNL     1       4.647  -8.589  -6.870  0.00  0.00    +0.000 A 
ATOM      8  C   UNL     1       5.491  -7.480  -7.072  0.00  0.00    +0.000 A 
ATOM      9  C   UNL     1       5.945  -6.797  -5.925  0.00  0.00    +0.000 A 
BRANCH   8  10
ATOM     10  C   UNL     1       5.847  -7.029  -8.436  0.00  0.00    +0.000 A 
ATOM     11  C   UNL     1       4.952  -7.136  -9.505  0.00  0.00    +0.000 A 
ATOM     12  C   UNL     1       5.322  -6.679 -10.766  0.00  0.00    +0.000 A 
ATOM     13  C   UNL     1       6.577  -6.121 -10.940  0.00  0.00    +0.000 A 
ATOM     14  C   UNL     1       7.410  -6.038  -9.833  0.00  0.00    +0.000 A 
ATOM     15  N   UNL     1       7.073  -6.467  -8.594  0.00  0.00    +0.000 NA
ENDBRANCH   8  10
ENDBRANCH   1   4
BRANCH   1  16
ATOM     16  C   UNL     1       5.008  -5.166  -3.162  0.00  0.00    +0.000 C 
BRANCH  16  17
ATOM     17  N   UNL     1       5.341  -4.416  -1.935  0.00  0.00    +0.000 N 
ATOM     18  H   UNL     1       5.693  -5.004  -1.180  0.00  0.00    +0.000 HD
BRANCH  17  22
ATOM     19  C   UNL     1       3.227  -1.011  -0.633  0.00  0.00    +0.000 A 
ATOM     20  C   UNL     1       2.835  -1.653  -1.808  0.00  0.00    +0.000 A 
ATOM     21  C   UNL     1       3.515  -2.796  -2.245  0.00  0.00    +0.000 A 
ATOM     22  C   UNL     1       4.568  -3.344  -1.502  0.00  0.00    +0.000 A 
ATOM     23  C   UNL     1       4.942  -2.686  -0.320  0.00  0.00    +0.000 A 
ATOM     24  C   UNL     1       4.277  -1.537   0.124  0.00  0.00    +0.000 A 
BRANCH  19  26
ATOM     25  O   UNL     1       1.299   0.362  -0.414  0.00  0.00    +0.000 OA
ATOM     26  C   UNL     1       2.494   0.210  -0.220  0.00  0.00    +0.000 C 
BRANCH  26  27
ATOM     27  O   UNL     1       3.282   1.148   0.341  0.00  0.00    +0.000 OA
ATOM     28  H   UNL     1       4.238   0.976   0.264  0.00  0.00    +0.000 HD
ENDBRANCH  26  27
ENDBRANCH  19  26
ENDBRANCH  17  22
ENDBRANCH  16  17
ENDBRANCH   1  16
TORSDOF 7
