REMARK  Name = 
REMARK  5 active torsions:
REMARK  status: ('A' for Active; 'I' for Inactive)
REMARK    1  A    between atoms: C_2  and  C_4
REMARK    2  A    between atoms: C_7  and  O_8
REMARK    3  A    between atoms: O_8  and  C_9
REMARK    4  A    between atoms: C_9  and  C_10
REMARK    5  A    between atoms: C_14  and  C_15
REMARK                            x       y       z     vdW  Elec       q    Type
REMARK                         _______ _______ _______ _____ _____    ______ ____
ROOT
ATOM      1  C   UNL     1       5.123  -5.994   0.217  0.00  0.00    +0.000 C 
ENDROOT
BRANCH   1   2
ATOM      2  C   UNL     1       6.022  -7.099   0.724  0.00  0.00    +0.000 A 
ATOM      3  C   UNL     1       7.202  -6.832   1.425  0.00  0.00    +0.000 A 
ATOM      4  C   UNL     1       7.970  -7.873   1.936  0.00  0.00    +0.000 A 
ATOM      5  C   UNL     1       7.548  -9.194   1.785  0.00  0.00    +0.000 A 
ATOM      6  C   UNL     1       6.349  -9.506   1.123  0.00  0.00    +0.000 A 
ATOM      7  C   UNL     1       5.612  -8.435   0.581  0.00  0.00    +0.000 A 
BRANCH   6   8
ATOM      8  C   UNL     1       5.851 -10.893   1.040  0.00  0.00    +0.000 A 
ATOM      9  C   UNL     1       5.115 -11.363  -0.057  0.00  0.00    +0.000 A 
ATOM     10  C   UNL     1       4.633 -12.673  -0.080  0.00  0.00    +0.000 A 
ATOM     11  C   UNL     1       4.907 -13.492   0.998  0.00  0.00    +0.000 A 
ATOM     12  N   UNL     1       5.607 -13.095   2.079  0.00  0.00    +0.000 NA
ATOM     13  C   UNL     1       6.054 -11.813   2.075  0.00  0.00    +0.000 A 
ENDBRANCH   6   8
ENDBRANCH   1   2
BRANCH   1  14
ATOM     14  O   UNL     1       5.882  -4.829  -0.098  0.00  0.00    +0.000 OA
BRANCH  14  18
ATOM     15  C   UNL     1       4.039  -1.391  -1.567  0.00  0.00    +0.000 A 
ATOM     16  C   UNL     1       3.237  -2.500  -1.273  0.00  0.00    +0.000 A 
ATOM     17  C   UNL     1       3.813  -3.673  -0.771  0.00  0.00    +0.000 A 
ATOM     18  C   UNL     1       5.193  -3.745  -0.564  0.00  0.00    +0.000 A 
ATOM     19  C   UNL     1       5.989  -2.635  -0.859  0.00  0.00    +0.000 A 
ATOM     20  C   UNL     1       5.420  -1.464  -1.364  0.00  0.00    +0.000 A 
BRANCH  15  22
ATOM     21  N   UNL     1       2.170   0.149  -1.817  0.00  0.00    +0.000 N 
ATOM     22  C   UNL     1       3.468  -0.143  -2.134  0.00  0.00    +0.000 C 
ATOM     23  O   UNL     1       4.133   0.610  -2.833  0.00  0.00    +0.000 OA
ATOM     24  H   UNL     1       1.827   1.048  -2.129  0.00  0.00    +0.000 HD
ATOM     25  H   UNL     1       1.689  -0.296  -1.049  0.00  0.00    +0.000 HD
ENDBRANCH  15  22
ENDBRANCH  14  18
ENDBRANCH   1  14
TORSDOF 5
