REMARK  Name = 
REMARK  6 active torsions:
REMARK  status: ('A' for Active; 'I' for Inactive)
REMARK    1  A    between atoms: C_2  and  C_4
REMARK    2  A    between atoms: C_7  and  N_8
REMARK    3  A    between atoms: N_8  and  C_9
REMARK    4  A    between atoms: C_9  and  C_10
REMARK    5  A    between atoms: C_12  and  C_13
REMARK    6  A    between atoms: C_17  and  O_18
REMARK                            x       y       z     vdW  Elec       q    Type
REMARK                         _______ _______ _______ _____ _____    ______ ____
ROOT
ATOM      1  C   UNL     1       4.793  -2.847   5.354  0.00  0.00    +0.000 C 
ATOM      2  C   UNL     1       4.711  -4.315   4.958  0.00  0.00    +0.000 C 
ATOM      3  C   UNL     1       3.457  -3.566   5.262  0.00  0.00    +0.000 C 
ENDROOT
BRANCH   1   4
ATOM      4  C   UNL     1       5.318  -2.473   6.744  0.00  0.00    +0.000 A 
ATOM      5  C   UNL     1       6.535  -3.003   7.171  0.00  0.00    +0.000 A 
ATOM      6  C   UNL     1       7.183  -2.532   8.317  0.00  0.00    +0.000 A 
ATOM      7  C   UNL     1       6.516  -1.546   9.050  0.00  0.00    +0.000 A 
ATOM      8  C   UNL     1       5.279  -1.101   8.610  0.00  0.00    +0.000 A 
ATOM      9  N   UNL     1       4.672  -1.535   7.485  0.00  0.00    +0.000 NA
BRANCH   6  10
ATOM     10  C   UNL     1       8.522  -3.029   8.680  0.00  0.00    +0.000 A 
ATOM     11  C   UNL     1       9.439  -3.461   7.707  0.00  0.00    +0.000 A 
ATOM     12  N   UNL     1      10.682  -3.938   7.957  0.00  0.00    +0.000 NA
ATOM     13  C   UNL     1      11.052  -3.985   9.249  0.00  0.00    +0.000 A 
ATOM     14  C   UNL     1      10.238  -3.579  10.293  0.00  0.00    +0.000 A 
ATOM     15  C   UNL     1       8.965  -3.103  10.007  0.00  0.00    +0.000 A 
BRANCH  14  16
ATOM     16  O   UNL     1      10.626  -3.625  11.596  0.00  0.00    +0.000 OA
ATOM     17  H   UNL     1      11.532  -3.972  11.644  0.00  0.00    +0.000 HD
ENDBRANCH  14  16
ENDBRANCH   6  10
ENDBRANCH   1   4
BRANCH   1  18
ATOM     18  N   UNL     1       5.151  -1.839   4.326  0.00  0.00    +0.000 N 
ATOM     19  H   UNL     1       4.407  -1.546   3.707  0.00  0.00    +0.000 HD
BRANCH  18  23
ATOM     20  C   UNL     1       8.800  -1.839   2.401  0.00  0.00    +0.000 A 
ATOM     21  C   UNL     1       8.423  -2.907   3.198  0.00  0.00    +0.000 A 
ATOM     22  N   UNL     1       7.236  -2.943   3.864  0.00  0.00    +0.000 NA
ATOM     23  C   UNL     1       6.408  -1.886   3.689  0.00  0.00    +0.000 A 
ATOM     24  C   UNL     1       6.825  -0.802   2.903  0.00  0.00    +0.000 A 
ATOM     25  N   UNL     1       8.013  -0.742   2.238  0.00  0.00    +0.000 NA
BRANCH  20  27
ATOM     26  N   UNL     1      10.438  -0.767   0.965  0.00  0.00    +0.000 N 
ATOM     27  C   UNL     1      10.106  -1.881   1.687  0.00  0.00    +0.000 C 
ATOM     28  O   UNL     1      10.848  -2.854   1.743  0.00  0.00    +0.000 OA
ATOM     29  H   UNL     1      11.334  -0.735   0.499  0.00  0.00    +0.000 HD
ATOM     30  H   UNL     1       9.842   0.052   0.982  0.00  0.00    +0.000 HD
ENDBRANCH  20  27
ENDBRANCH  18  23
ENDBRANCH   1  18
TORSDOF 6
