REMARK  Name = 
REMARK  7 active torsions:
REMARK  status: ('A' for Active; 'I' for Inactive)
REMARK    1  A    between atoms: N_1  and  C_2
REMARK    2  A    between atoms: C_2  and  C_3
REMARK    3  A    between atoms: C_2  and  C_17
REMARK    4  A    between atoms: C_3  and  N_4
REMARK    5  A    between atoms: C_5  and  C_7
REMARK    6  A    between atoms: C_20  and  C_21
REMARK    7  A    between atoms: C_21  and  N_22
REMARK                            x       y       z     vdW  Elec       q    Type
REMARK                         _______ _______ _______ _____ _____    ______ ____
ROOT
ATOM      1  C   UNL     1       2.435  -0.110  -0.007  0.00  0.00    +0.000 C 
ENDROOT
BRANCH   1   2
ATOM      2  C   UNL     1       2.871  -0.288   1.447  0.00  0.00    +0.000 A 
ATOM      3  C   UNL     1       3.140   0.824   2.266  0.00  0.00    +0.000 A 
ATOM      4  C   UNL     1       3.520   0.670   3.606  0.00  0.00    +0.000 A 
ATOM      5  C   UNL     1       3.631  -0.605   4.174  0.00  0.00    +0.000 A 
ATOM      6  C   UNL     1       3.311  -1.713   3.387  0.00  0.00    +0.000 A 
ATOM      7  C   UNL     1       2.935  -1.556   2.048  0.00  0.00    +0.000 A 
BRANCH   5   8
ATOM      8  C   UNL     1       4.046  -0.783   5.612  0.00  0.00    +0.000 C 
BRANCH   8   9
ATOM      9  N   UNL     1       2.909  -0.718   6.499  0.00  0.00    +0.000 N 
ATOM     10  C   UNL     1       3.082  -0.919   7.843  0.00  0.00    +0.000 C 
ATOM     11  O   UNL     1       4.163  -1.245   8.327  0.00  0.00    +0.000 OA
ATOM     12  N   UNL     1       1.958  -0.721   8.608  0.00  0.00    +0.000 N 
ATOM     13  C   UNL     1       0.596  -0.479   8.170  0.00  0.00    +0.000 C 
ATOM     14  C   UNL     1      -0.016   0.246   9.354  0.00  0.00    +0.000 C 
ATOM     15  C   UNL     1       0.623  -0.449  10.552  0.00  0.00    +0.000 C 
ATOM     16  C   UNL     1       2.003  -0.877  10.053  0.00  0.00    +0.000 C 
ATOM     17  H   UNL     1       2.203  -0.052   6.241  0.00  0.00    +0.000 HD
ENDBRANCH   8   9
ENDBRANCH   5   8
ENDBRANCH   1   2
BRANCH   1  18
ATOM     18  N   UNL     1       2.975   1.141  -0.593  0.00  0.00    +0.000 NA
ATOM     19  H   UNL     1       2.704   1.162  -1.576  0.00  0.00    +0.000 HD
ATOM     20  H   UNL     1       3.993   1.086  -0.585  0.00  0.00    +0.000 HD
ENDBRANCH   1  18
BRANCH   1  21
ATOM     21  C   UNL     1       2.822  -1.299  -0.937  0.00  0.00    +0.000 C 
BRANCH  21  22
ATOM     22  N   UNL     1       2.341  -1.140  -2.301  0.00  0.00    +0.000 N 
ATOM     23  C   UNL     1       1.069  -1.519  -2.658  0.00  0.00    +0.000 C 
ATOM     24  O   UNL     1       0.259  -1.929  -1.831  0.00  0.00    +0.000 OA
ATOM     25  H   UNL     1       3.033  -0.963  -3.022  0.00  0.00    +0.000 HD
BRANCH  23  26
ATOM     26  C   UNL     1       0.711  -1.371  -4.073  0.00  0.00    +0.000 A 
ATOM     27  C   UNL     1      -0.626  -1.288  -4.437  0.00  0.00    +0.000 A 
ATOM     28  S   UNL     1      -0.868  -1.096  -6.113  0.00  0.00    +0.000 S 
ATOM     29  C   UNL     1       0.804  -1.174  -6.419  0.00  0.00    +0.000 A 
ATOM     30  N   UNL     1       1.286  -1.097  -7.686  0.00  0.00    +0.000 NA
ATOM     31  C   UNL     1       2.568  -1.209  -7.779  0.00  0.00    +0.000 A 
ATOM     32  N   UNL     1       3.415  -1.379  -6.714  0.00  0.00    +0.000 N 
ATOM     33  C   UNL     1       2.978  -1.396  -5.411  0.00  0.00    +0.000 A 
ATOM     34  O   UNL     1       3.771  -1.445  -4.476  0.00  0.00    +0.000 OA
ATOM     35  C   UNL     1       1.541  -1.313  -5.254  0.00  0.00    +0.000 A 
ATOM     36  H   UNL     1       4.413  -1.437  -6.853  0.00  0.00    +0.000 HD
ENDBRANCH  23  26
ENDBRANCH  21  22
ENDBRANCH   1  21
TORSDOF 7
