REMARK  Name = 
REMARK  8 active torsions:
REMARK  status: ('A' for Active; 'I' for Inactive)
REMARK    1  A    between atoms: C_1  and  C_2
REMARK    2  A    between atoms: C_2  and  C_3
REMARK    3  A    between atoms: C_3  and  N_4
REMARK    4  A    between atoms: C_3  and  C_18
REMARK    5  A    between atoms: C_5  and  C_7
REMARK    6  A    between atoms: N_13  and  C_14
REMARK    7  A    between atoms: C_21  and  O_22
REMARK    8  A    between atoms: O_22  and  C_23
REMARK                            x       y       z     vdW  Elec       q    Type
REMARK                         _______ _______ _______ _____ _____    ______ ____
ROOT
ATOM      1  C   UNL     1       3.055   1.218   0.816  0.00  0.00    +0.000 C 
ENDROOT
BRANCH   1   2
ATOM      2  C   UNL     1       4.568   1.203   0.611  0.00  0.00    +0.000 A 
ATOM      3  C   UNL     1       5.115   1.972  -0.429  0.00  0.00    +0.000 A 
ATOM      4  C   UNL     1       6.489   1.974  -0.677  0.00  0.00    +0.000 A 
ATOM      5  C   UNL     1       7.353   1.234   0.132  0.00  0.00    +0.000 A 
ATOM      6  C   UNL     1       6.821   0.423   1.134  0.00  0.00    +0.000 A 
ATOM      7  C   UNL     1       5.439   0.401   1.367  0.00  0.00    +0.000 A 
BRANCH   5   8
ATOM      8  O   UNL     1       8.718   1.189  -0.053  0.00  0.00    +0.000 OA
BRANCH   8   9
ATOM      9  C   UNL     1       9.367   2.360  -0.434  0.00  0.00    +0.000 A 
ATOM     10  C   UNL     1      10.547   2.215  -1.151  0.00  0.00    +0.000 A 
ATOM     11  C   UNL     1      11.212   3.366  -1.567  0.00  0.00    +0.000 A 
ATOM     12  C   UNL     1      10.682   4.612  -1.248  0.00  0.00    +0.000 A 
ATOM     13  C   UNL     1       9.514   4.658  -0.507  0.00  0.00    +0.000 A 
ATOM     14  N   UNL     1       8.855   3.561  -0.081  0.00  0.00    +0.000 NA
ENDBRANCH   8   9
ENDBRANCH   5   8
ENDBRANCH   1   2
BRANCH   1  15
ATOM     15  N   UNL     1       2.473   0.115   0.068  0.00  0.00    +0.000 N 
ATOM     16  C   UNL     1       1.196   0.142  -0.436  0.00  0.00    +0.000 C 
ATOM     17  O   UNL     1       0.404   1.045  -0.179  0.00  0.00    +0.000 OA
ATOM     18  H   UNL     1       3.133  -0.549  -0.322  0.00  0.00    +0.000 HD
BRANCH  16  19
ATOM     19  C   UNL     1       0.805  -1.003  -1.272  0.00  0.00    +0.000 A 
ATOM     20  C   UNL     1      -0.530  -1.367  -1.385  0.00  0.00    +0.000 A 
ATOM     21  S   UNL     1      -0.780  -2.745  -2.361  0.00  0.00    +0.000 S 
ATOM     22  C   UNL     1       0.879  -2.864  -2.717  0.00  0.00    +0.000 A 
ATOM     23  N   UNL     1       1.354  -3.832  -3.543  0.00  0.00    +0.000 NA
ATOM     24  C   UNL     1       2.627  -3.770  -3.766  0.00  0.00    +0.000 A 
ATOM     25  N   UNL     1       3.486  -2.829  -3.239  0.00  0.00    +0.000 N 
ATOM     26  C   UNL     1       4.893  -2.821  -3.579  0.00  0.00    +0.000 C 
ATOM     27  C   UNL     1       3.037  -1.847  -2.365  0.00  0.00    +0.000 A 
ATOM     28  O   UNL     1       3.790  -1.028  -1.850  0.00  0.00    +0.000 OA
ATOM     29  C   UNL     1       1.613  -1.877  -2.092  0.00  0.00    +0.000 A 
ENDBRANCH  16  19
ENDBRANCH   1  15
BRANCH   1  31
ATOM     30  C   UNL     1       3.015   2.423   3.066  0.00  0.00    +0.000 C 
ATOM     31  C   UNL     1       2.605   1.178   2.289  0.00  0.00    +0.000 C 
ENDBRANCH   1  31
TORSDOF 6
