REMARK  Name = 
REMARK  11 active torsions:
REMARK  status: ('A' for Active; 'I' for Inactive)
REMARK    1  A    between atoms: N_1  and  C_2
REMARK    2  A    between atoms: C_2  and  C_3
REMARK    3  A    between atoms: C_3  and  N_4
REMARK    4  A    between atoms: C_3  and  C_22
REMARK    5  A    between atoms: N_4  and  C_5
REMARK    6  A    between atoms: C_5  and  C_6
REMARK    7  A    between atoms: C_9  and  C_10
REMARK    8  A    between atoms: C_10  and  C_11
REMARK    9  A    between atoms: C_11  and  C_12
REMARK   10  A    between atoms: C_12  and  O_13
REMARK   11  A    between atoms: C_12  and  C_14
REMARK                            x       y       z     vdW  Elec       q    Type
REMARK                         _______ _______ _______ _____ _____    ______ ____
ROOT
ATOM      1  N   UNL     1       3.387   2.228 -13.478  0.00  0.00    +0.000 NA
ATOM      2  H   UNL     1       2.904   1.572 -14.091  0.00  0.00    +0.000 HD
ENDROOT
BRANCH   1   3
ATOM      3  C   UNL     1       4.429   2.902 -14.280  0.00  0.00    +0.000 C 
BRANCH   3   4
ATOM      4  C   UNL     1       3.769   3.479 -15.523  0.00  0.00    +0.000 A 
ATOM      5  C   UNL     1       2.482   3.991 -15.595  0.00  0.00    +0.000 A 
ATOM      6  S   UNL     1       2.083   4.599 -17.141  0.00  0.00    +0.000 S 
ATOM      7  C   UNL     1       3.627   4.228 -17.755  0.00  0.00    +0.000 A 
ATOM      8  N   UNL     1       3.973   4.517 -19.034  0.00  0.00    +0.000 NA
ATOM      9  C   UNL     1       5.191   4.197 -19.338  0.00  0.00    +0.000 A 
ATOM     10  N   UNL     1       6.089   3.611 -18.484  0.00  0.00    +0.000 N 
ATOM     11  C   UNL     1       5.784   3.294 -17.181  0.00  0.00    +0.000 A 
ATOM     12  O   UNL     1       6.608   2.774 -16.435  0.00  0.00    +0.000 OA
ATOM     13  C   UNL     1       4.429   3.638 -16.790  0.00  0.00    +0.000 A 
ATOM     14  H   UNL     1       7.025   3.393 -18.787  0.00  0.00    +0.000 HD
ENDBRANCH   3   4
BRANCH   3  15
ATOM     15  C   UNL     1       5.211   4.010 -13.502  0.00  0.00    +0.000 C 
BRANCH  15  16
ATOM     16  N   UNL     1       4.357   5.061 -12.931  0.00  0.00    +0.000 NA
ATOM     17  H   UNL     1       4.897   5.645 -12.299  0.00  0.00    +0.000 HD
ATOM     18  H   UNL     1       3.616   4.612 -12.391  0.00  0.00    +0.000 HD
ENDBRANCH  15  16
ENDBRANCH   3  15
ENDBRANCH   1   3
BRANCH   1  19
ATOM     19  C   UNL     1       3.966   1.475 -12.368  0.00  0.00    +0.000 C 
BRANCH  19  20
ATOM     20  C   UNL     1       2.913   0.737 -11.582  0.00  0.00    +0.000 A 
ATOM     21  C   UNL     1       2.142  -0.277 -12.166  0.00  0.00    +0.000 A 
ATOM     22  C   UNL     1       1.191  -0.964 -11.412  0.00  0.00    +0.000 A 
ATOM     23  C   UNL     1       1.011  -0.668 -10.056  0.00  0.00    +0.000 A 
ATOM     24  C   UNL     1       1.779   0.344  -9.472  0.00  0.00    +0.000 A 
ATOM     25  C   UNL     1       2.717   1.043 -10.228  0.00  0.00    +0.000 A 
BRANCH  23  26
ATOM     26  C   UNL     1       0.004  -1.420  -9.224  0.00  0.00    +0.000 C 
BRANCH  26  27
ATOM     27  C   UNL     1       0.329  -2.914  -9.145  0.00  0.00    +0.000 C 
BRANCH  27  28
ATOM     28  C   UNL     1      -0.676  -3.653  -8.260  0.00  0.00    +0.000 C 
BRANCH  28  29
ATOM     29  C   UNL     1      -0.364  -5.137  -8.205  0.00  0.00    +0.000 A 
ATOM     30  C   UNL     1      -1.269  -6.067  -8.711  0.00  0.00    +0.000 A 
ATOM     31  C   UNL     1      -0.965  -7.422  -8.614  0.00  0.00    +0.000 A 
ATOM     32  C   UNL     1       0.231  -7.812  -8.026  0.00  0.00    +0.000 A 
ATOM     33  C   UNL     1       1.080  -6.825  -7.554  0.00  0.00    +0.000 A 
ATOM     34  N   UNL     1       0.808  -5.502  -7.619  0.00  0.00    +0.000 NA
ENDBRANCH  28  29
BRANCH  28  35
ATOM     35  O   UNL     1      -0.613  -3.111  -6.939  0.00  0.00    +0.000 OA
ATOM     36  H   UNL     1       0.185  -3.513  -6.542  0.00  0.00    +0.000 HD
ENDBRANCH  28  35
ENDBRANCH  27  28
ENDBRANCH  26  27
ENDBRANCH  23  26
ENDBRANCH  19  20
ENDBRANCH   1  19
TORSDOF 11
