REMARK  Name = 
REMARK  8 active torsions:
REMARK  status: ('A' for Active; 'I' for Inactive)
REMARK    1  A    between atoms: C_1  and  C_2
REMARK    2  A    between atoms: C_2  and  N_3
REMARK    3  A    between atoms: C_2  and  C_25
REMARK    4  A    between atoms: N_3  and  C_4
REMARK    5  A    between atoms: C_4  and  C_5
REMARK    6  A    between atoms: C_8  and  C_9
REMARK    7  A    between atoms: C_9  and  N_10
REMARK    8  A    between atoms: C_11  and  C_13
REMARK                            x       y       z     vdW  Elec       q    Type
REMARK                         _______ _______ _______ _____ _____    ______ ____
ROOT
ATOM      1  C   UNL     1       3.105  -3.715   0.826  0.00  0.00    +0.000 A 
ATOM      2  C   UNL     1       4.395  -3.927   0.343  0.00  0.00    +0.000 A 
ATOM      3  C   UNL     1       4.841  -5.233   0.152  0.00  0.00    +0.000 A 
ATOM      4  C   UNL     1       4.006  -6.305   0.469  0.00  0.00    +0.000 A 
ATOM      5  C   UNL     1       2.734  -6.000   0.942  0.00  0.00    +0.000 A 
ATOM      6  N   UNL     1       2.265  -4.740   1.124  0.00  0.00    +0.000 NA
ENDROOT
BRANCH   1   7
ATOM      7  C   UNL     1       2.590  -2.297   1.021  0.00  0.00    +0.000 C 
BRANCH   7   8
ATOM      8  N   UNL     1       2.265  -2.034   2.423  0.00  0.00    +0.000 NA
ATOM      9  H   UNL     1       1.552  -2.720   2.689  0.00  0.00    +0.000 HD
BRANCH   8  11
ATOM     10  C   UNL     1       2.736   0.421   2.341  0.00  0.00    +0.000 C 
ATOM     11  C   UNL     1       1.725  -0.682   2.678  0.00  0.00    +0.000 C 
BRANCH  11  12
ATOM     12  C   UNL     1       1.288  -0.525   4.139  0.00  0.00    +0.000 A 
ATOM     13  C   UNL     1       1.988  -1.162   5.167  0.00  0.00    +0.000 A 
ATOM     14  C   UNL     1       1.527  -1.057   6.475  0.00  0.00    +0.000 A 
ATOM     15  C   UNL     1       0.396  -0.297   6.735  0.00  0.00    +0.000 A 
ATOM     16  C   UNL     1      -0.222   0.337   5.671  0.00  0.00    +0.000 A 
ATOM     17  N   UNL     1       0.192   0.241   4.386  0.00  0.00    +0.000 NA
ENDBRANCH  11  12
ENDBRANCH   8  11
ENDBRANCH   7   8
ENDBRANCH   1   7
BRANCH   4  18
ATOM     18  C   UNL     1       4.443  -7.724   0.259  0.00  0.00    +0.000 C 
BRANCH  18  19
ATOM     19  N   UNL     1       4.105  -8.181  -1.065  0.00  0.00    +0.000 N 
ATOM     20  C   UNL     1       4.303  -9.485  -1.443  0.00  0.00    +0.000 C 
ATOM     21  O   UNL     1       4.734 -10.330  -0.664  0.00  0.00    +0.000 OA
ATOM     22  H   UNL     1       3.979  -7.473  -1.782  0.00  0.00    +0.000 HD
BRANCH  20  23
ATOM     23  C   UNL     1       3.908  -9.835  -2.815  0.00  0.00    +0.000 A 
ATOM     24  C   UNL     1       3.596 -11.150  -3.126  0.00  0.00    +0.000 A 
ATOM     25  S   UNL     1       3.111 -11.372  -4.747  0.00  0.00    +0.000 S 
ATOM     26  C   UNL     1       3.350  -9.726  -5.099  0.00  0.00    +0.000 A 
ATOM     27  N   UNL     1       3.137  -9.242  -6.356  0.00  0.00    +0.000 NA
ATOM     28  C   UNL     1       3.380  -7.979  -6.490  0.00  0.00    +0.000 A 
ATOM     29  N   UNL     1       3.822  -7.159  -5.481  0.00  0.00    +0.000 N 
ATOM     30  C   UNL     1       4.023  -7.598  -4.196  0.00  0.00    +0.000 A 
ATOM     31  O   UNL     1       4.375  -6.827  -3.307  0.00  0.00    +0.000 OA
ATOM     32  C   UNL     1       3.773  -9.013  -3.994  0.00  0.00    +0.000 A 
ATOM     33  H   UNL     1       3.983  -6.179  -5.651  0.00  0.00    +0.000 HD
ENDBRANCH  20  23
ENDBRANCH  18  19
ENDBRANCH   4  18
TORSDOF 7
