REMARK  Name = 
REMARK  8 active torsions:
REMARK  status: ('A' for Active; 'I' for Inactive)
REMARK    1  A    between atoms: C_1  and  C_2
REMARK    2  A    between atoms: C_2  and  C_3
REMARK    3  A    between atoms: C_2  and  C_4
REMARK    4  A    between atoms: C_2  and  C_5
REMARK    5  A    between atoms: C_6  and  C_7
REMARK    6  A    between atoms: C_10  and  C_11
REMARK    7  A    between atoms: C_11  and  N_12
REMARK    8  A    between atoms: C_16  and  C_17
REMARK                            x       y       z     vdW  Elec       q    Type
REMARK                         _______ _______ _______ _____ _____    ______ ____
ROOT
ATOM      1  C   UNL     1       4.405  -7.400  -3.972  0.00  0.00    +0.000 C 
ENDROOT
BRANCH   1   2
ATOM      2  N   UNL     1       5.724  -8.068  -3.846  0.00  0.00    +0.000 N 
ATOM      3  C   UNL     1       5.790  -9.305  -4.531  0.00  0.00    +0.000 A 
ATOM      4  C   UNL     1       6.968 -10.077  -4.539  0.00  0.00    +0.000 A 
ATOM      5  N   UNL     1       7.094 -11.247  -5.229  0.00  0.00    +0.000 NA
ATOM      6  C   UNL     1       5.973 -11.639  -5.907  0.00  0.00    +0.000 A 
ATOM      7  C   UNL     1       4.797 -10.918  -5.853  0.00  0.00    +0.000 A 
ATOM      8  N   UNL     1       4.697  -9.739  -5.184  0.00  0.00    +0.000 NA
ATOM      9  H   UNL     1       5.911  -8.284  -2.869  0.00  0.00    +0.000 HD
BRANCH   6  10
ATOM     10  C   UNL     1       6.054 -12.856  -6.754  0.00  0.00    +0.000 C 
ATOM     11  N   UNL     1       7.284 -13.471  -6.775  0.00  0.00    +0.000 N 
ATOM     12  O   UNL     1       5.110 -13.267  -7.407  0.00  0.00    +0.000 OA
ATOM     13  H   UNL     1       8.054 -13.078  -6.252  0.00  0.00    +0.000 HD
ATOM     14  H   UNL     1       7.434 -14.258  -7.391  0.00  0.00    +0.000 HD
ENDBRANCH   6  10
ENDBRANCH   1   2
BRANCH   1  18
ATOM     15  C   UNL     1       3.824  -3.671  -1.886  0.00  0.00    +0.000 A 
ATOM     16  C   UNL     1       4.396  -3.655  -3.152  0.00  0.00    +0.000 A 
ATOM     17  C   UNL     1       4.655  -4.863  -3.820  0.00  0.00    +0.000 A 
ATOM     18  C   UNL     1       4.329  -6.076  -3.203  0.00  0.00    +0.000 A 
ATOM     19  N   UNL     1       3.841  -6.109  -1.934  0.00  0.00    +0.000 NA
ATOM     20  C   UNL     1       3.609  -4.915  -1.310  0.00  0.00    +0.000 A 
BRANCH  15  22
ATOM     21  C   UNL     1       2.980  -1.347  -0.701  0.00  0.00    +0.000 C 
ATOM     22  C   UNL     1       3.414  -2.446  -1.252  0.00  0.00    +0.000 C 
BRANCH  21  24
ATOM     23  C   UNL     1       0.939  -0.075  -0.064  0.00  0.00    +0.000 C 
ATOM     24  C   UNL     1       2.473  -0.065  -0.059  0.00  0.00    +0.000 C 
ATOM     25  C   UNL     1       2.989   1.135  -0.862  0.00  0.00    +0.000 C 
ATOM     26  C   UNL     1       2.989   0.010   1.383  0.00  0.00    +0.000 C 
ENDBRANCH  21  24
ENDBRANCH  15  22
ENDBRANCH   1  18
TORSDOF 5
