REMARK  Name = 
REMARK  8 active torsions:
REMARK  status: ('A' for Active; 'I' for Inactive)
REMARK    1  A    between atoms: C_1  and  C_2
REMARK    2  A    between atoms: C_2  and  C_3
REMARK    3  A    between atoms: C_2  and  C_4
REMARK    4  A    between atoms: C_2  and  C_22
REMARK    5  A    between atoms: C_5  and  C_6
REMARK    6  A    between atoms: C_8  and  C_9
REMARK    7  A    between atoms: C_13  and  C_14
REMARK    8  A    between atoms: C_25  and  C_26
REMARK                            x       y       z     vdW  Elec       q    Type
REMARK                         _______ _______ _______ _____ _____    ______ ____
ROOT
ATOM      1  C   UNL     1       2.878  -1.028  -0.870  0.00  0.00    +0.000 C 
ATOM      2  C   UNL     1       2.701  -2.349  -0.671  0.00  0.00    +0.000 C 
ENDROOT
BRANCH   2   3
ATOM      3  C   UNL     1       3.203  -3.374  -1.599  0.00  0.00    +0.000 A 
ATOM      4  C   UNL     1       3.003  -4.727  -1.332  0.00  0.00    +0.000 A 
ATOM      5  C   UNL     1       3.460  -5.696  -2.241  0.00  0.00    +0.000 A 
ATOM      6  C   UNL     1       4.123  -5.227  -3.384  0.00  0.00    +0.000 A 
ATOM      7  C   UNL     1       4.297  -3.866  -3.565  0.00  0.00    +0.000 A 
ATOM      8  N   UNL     1       3.849  -2.937  -2.704  0.00  0.00    +0.000 NA
BRANCH   5   9
ATOM      9  C   UNL     1       3.230  -7.147  -2.029  0.00  0.00    +0.000 A 
ATOM     10  C   UNL     1       2.092  -7.627  -1.356  0.00  0.00    +0.000 A 
ATOM     11  C   UNL     1       1.852  -8.997  -1.207  0.00  0.00    +0.000 A 
ATOM     12  C   UNL     1       2.735  -9.926  -1.750  0.00  0.00    +0.000 A 
ATOM     13  C   UNL     1       3.876  -9.493  -2.431  0.00  0.00    +0.000 A 
ATOM     14  C   UNL     1       4.123  -8.111  -2.537  0.00  0.00    +0.000 A 
BRANCH  13  15
ATOM     15  C   UNL     1       4.825 -10.468  -3.082  0.00  0.00    +0.000 C 
ATOM     16  F   UNL     1       4.447 -11.770  -2.956  0.00  0.00    +0.000 F 
ATOM     17  F   UNL     1       4.949 -10.246  -4.422  0.00  0.00    +0.000 F 
ATOM     18  F   UNL     1       6.086 -10.391  -2.575  0.00  0.00    +0.000 F 
ENDBRANCH  13  15
ENDBRANCH   5   9
ENDBRANCH   2   3
BRANCH   1  20
ATOM     19  C   UNL     1       3.633   0.382   0.985  0.00  0.00    +0.000 C 
ATOM     20  C   UNL     1       2.437   0.110   0.043  0.00  0.00    +0.000 C 
ATOM     21  C   UNL     1       2.241   1.381  -0.818  0.00  0.00    +0.000 C 
BRANCH  20  22
ATOM     22  C   UNL     1       1.117  -0.189   0.784  0.00  0.00    +0.000 A 
ATOM     23  C   UNL     1       1.039  -0.249   2.186  0.00  0.00    +0.000 A 
ATOM     24  C   UNL     1      -0.164  -0.540   2.834  0.00  0.00    +0.000 A 
ATOM     25  C   UNL     1      -1.329  -0.769   2.098  0.00  0.00    +0.000 A 
ATOM     26  C   UNL     1      -1.280  -0.714   0.704  0.00  0.00    +0.000 A 
ATOM     27  C   UNL     1      -0.069  -0.428   0.058  0.00  0.00    +0.000 A 
BRANCH  25  28
ATOM     28  C   UNL     1      -2.569  -1.103   2.846  0.00  0.00    +0.000 C 
ATOM     29  N   UNL     1      -3.766  -0.832   2.246  0.00  0.00    +0.000 N 
ATOM     30  O   UNL     1      -2.528  -1.577   3.975  0.00  0.00    +0.000 OA
ATOM     31  H   UNL     1      -3.849  -0.240   1.433  0.00  0.00    +0.000 HD
ATOM     32  H   UNL     1      -4.589  -0.966   2.820  0.00  0.00    +0.000 HD
ENDBRANCH  25  28
ENDBRANCH  20  22
ENDBRANCH   1  20
TORSDOF 6
