REMARK  Name = 
REMARK  3 active torsions:
REMARK  status: ('A' for Active; 'I' for Inactive)
REMARK    1  A    between atoms: C_2  and  C_4
REMARK    2  A    between atoms: N_8  and  C_9
REMARK    3  A    between atoms: C_9  and  C_10
REMARK                            x       y       z     vdW  Elec       q    Type
REMARK                         _______ _______ _______ _____ _____    ______ ____
ROOT
ATOM      1  C   UNL     1       3.300   0.957   0.860  0.00  0.00    +0.000 A 
ATOM      2  C   UNL     1       2.639   1.545   1.934  0.00  0.00    +0.000 A 
ATOM      3  C   UNL     1       3.322   2.469   2.725  0.00  0.00    +0.000 A 
ATOM      4  C   UNL     1       4.652   2.770   2.447  0.00  0.00    +0.000 A 
ATOM      5  N   UNL     1       5.370   3.721   3.132  0.00  0.00    +0.000 N 
ATOM      6  N   UNL     1       5.303   2.196   1.417  0.00  0.00    +0.000 NA
ATOM      7  C   UNL     1       4.625   1.302   0.651  0.00  0.00    +0.000 A 
ATOM      8  H   UNL     1       6.332   3.723   2.808  0.00  0.00    +0.000 HD
ENDROOT
BRANCH   1  10
ATOM      9  N   UNL     1       1.291   0.061  -0.168  0.00  0.00    +0.000 N 
ATOM     10  C   UNL     1       2.652  -0.009  -0.049  0.00  0.00    +0.000 C 
ATOM     11  O   UNL     1       3.305  -0.818  -0.694  0.00  0.00    +0.000 OA
ATOM     12  H   UNL     1       0.870  -0.538  -0.868  0.00  0.00    +0.000 HD
ATOM     13  H   UNL     1       0.755   0.858   0.143  0.00  0.00    +0.000 HD
ENDBRANCH   1  10
BRANCH   5  14
ATOM     14  C   UNL     1       5.180   3.971   4.546  0.00  0.00    +0.000 C 
BRANCH  14  15
ATOM     15  C   UNL     1       4.816   5.418   4.787  0.00  0.00    +0.000 A 
ATOM     16  C   UNL     1       4.101   6.172   3.847  0.00  0.00    +0.000 A 
ATOM     17  C   UNL     1       3.786   7.489   4.139  0.00  0.00    +0.000 A 
ATOM     18  N   UNL     1       4.110   8.097   5.299  0.00  0.00    +0.000 NA
ATOM     19  C   UNL     1       4.781   7.353   6.203  0.00  0.00    +0.000 A 
ATOM     20  C   UNL     1       5.145   6.029   6.001  0.00  0.00    +0.000 A 
ENDBRANCH  14  15
ENDBRANCH   5  14
TORSDOF 3
