REMARK  Name = 
REMARK  4 active torsions:
REMARK  status: ('A' for Active; 'I' for Inactive)
REMARK    1  A    between atoms: C_2  and  C_4
REMARK    2  A    between atoms: N_8  and  C_9
REMARK    3  A    between atoms: C_9  and  C_10
REMARK    4  A    between atoms: C_14  and  C_15
REMARK                            x       y       z     vdW  Elec       q    Type
REMARK                         _______ _______ _______ _____ _____    ______ ____
ROOT
ATOM      1  C   UNL     1       7.958  -1.267   0.327  0.00  0.00    +0.000 A 
ATOM      2  C   UNL     1       7.487  -2.525  -0.034  0.00  0.00    +0.000 A 
ATOM      3  C   UNL     1       6.750  -3.267   0.891  0.00  0.00    +0.000 A 
ATOM      4  C   UNL     1       6.501  -2.747   2.157  0.00  0.00    +0.000 A 
ATOM      5  N   UNL     1       5.722  -3.374   3.099  0.00  0.00    +0.000 N 
ATOM      6  N   UNL     1       6.951  -1.527   2.515  0.00  0.00    +0.000 NA
ATOM      7  C   UNL     1       7.677  -0.820   1.608  0.00  0.00    +0.000 A 
ATOM      8  H   UNL     1       5.733  -2.828   3.954  0.00  0.00    +0.000 HD
ENDROOT
BRANCH   1  10
ATOM      9  N   UNL     1       8.559  -0.574  -1.924  0.00  0.00    +0.000 N 
ATOM     10  C   UNL     1       8.751  -0.414  -0.581  0.00  0.00    +0.000 C 
ATOM     11  O   UNL     1       9.527   0.431  -0.147  0.00  0.00    +0.000 OA
ATOM     12  H   UNL     1       9.032   0.090  -2.525  0.00  0.00    +0.000 HD
ATOM     13  H   UNL     1       7.758  -1.056  -2.305  0.00  0.00    +0.000 HD
ENDBRANCH   1  10
BRANCH   5  14
ATOM     14  C   UNL     1       5.649  -4.813   3.254  0.00  0.00    +0.000 C 
BRANCH  14  15
ATOM     15  C   UNL     1       6.730  -5.423   4.124  0.00  0.00    +0.000 A 
ATOM     16  C   UNL     1       7.319  -4.737   5.194  0.00  0.00    +0.000 A 
ATOM     17  C   UNL     1       8.231  -5.377   6.030  0.00  0.00    +0.000 A 
ATOM     18  C   UNL     1       8.533  -6.725   5.838  0.00  0.00    +0.000 A 
ATOM     19  C   UNL     1       7.923  -7.472   4.816  0.00  0.00    +0.000 A 
ATOM     20  C   UNL     1       7.053  -6.787   3.945  0.00  0.00    +0.000 A 
BRANCH  19  21
ATOM     21  C   UNL     1       8.130  -8.929   4.712  0.00  0.00    +0.000 A 
ATOM     22  C   UNL     1       8.294  -9.741   5.839  0.00  0.00    +0.000 A 
ATOM     23  N   UNL     1       8.472 -11.083   5.788  0.00  0.00    +0.000 NA
ATOM     24  C   UNL     1       8.474 -11.607   4.546  0.00  0.00    +0.000 A 
ATOM     25  C   UNL     1       8.296 -10.826   3.416  0.00  0.00    +0.000 A 
ATOM     26  N   UNL     1       8.115  -9.482   3.470  0.00  0.00    +0.000 NA
ENDBRANCH  19  21
ENDBRANCH  14  15
ENDBRANCH   5  14
TORSDOF 4
