REMARK  Name = 
REMARK  5 active torsions:
REMARK  status: ('A' for Active; 'I' for Inactive)
REMARK    1  A    between atoms: N_1  and  C_2
REMARK    2  A    between atoms: C_2  and  C_3
REMARK    3  A    between atoms: C_6  and  C_7
REMARK    4  A    between atoms: C_7  and  N_8
REMARK    5  A    between atoms: C_13  and  C_14
REMARK                            x       y       z     vdW  Elec       q    Type
REMARK                         _______ _______ _______ _____ _____    ______ ____
ROOT
ATOM      1  N   UNL     1       5.958  -5.418  -2.171  0.00  0.00    +0.000 N 
ATOM      2  C   UNL     1       6.834  -4.925  -3.106  0.00  0.00    +0.000 A 
ATOM      3  C   UNL     1       8.091  -5.376  -2.788  0.00  0.00    +0.000 A 
ATOM      4  C   UNL     1       7.969  -6.224  -1.654  0.00  0.00    +0.000 A 
ATOM      5  C   UNL     1       8.904  -6.948  -0.883  0.00  0.00    +0.000 A 
ATOM      6  C   UNL     1       8.459  -7.734   0.190  0.00  0.00    +0.000 A 
ATOM      7  C   UNL     1       7.087  -7.824   0.460  0.00  0.00    +0.000 A 
ATOM      8  C   UNL     1       6.143  -7.105  -0.284  0.00  0.00    +0.000 A 
ATOM      9  C   UNL     1       6.613  -6.287  -1.322  0.00  0.00    +0.000 A 
ENDROOT
BRANCH   6  10
ATOM     10  C   UNL     1       9.393  -8.477   1.087  0.00  0.00    +0.000 C 
ATOM     11  N   UNL     1      10.739  -8.377   0.867  0.00  0.00    +0.000 N 
ATOM     12  O   UNL     1       8.979  -9.154   2.024  0.00  0.00    +0.000 OA
ATOM     13  H   UNL     1      11.175  -7.828   0.145  0.00  0.00    +0.000 HD
ATOM     14  H   UNL     1      11.340  -8.865   1.518  0.00  0.00    +0.000 HD
ENDBRANCH   6  10
BRANCH   1  15
ATOM     15  C   UNL     1       4.554  -5.045  -2.102  0.00  0.00    +0.000 C 
BRANCH  15  19
ATOM     16  C   UNL     1       3.164  -1.032  -1.131  0.00  0.00    +0.000 C 
ATOM     17  C   UNL     1       2.337  -2.214  -0.606  0.00  0.00    +0.000 C 
ATOM     18  C   UNL     1       2.739  -3.544  -1.241  0.00  0.00    +0.000 C 
ATOM     19  C   UNL     1       4.250  -3.843  -1.173  0.00  0.00    +0.000 C 
ATOM     20  C   UNL     1       5.117  -2.614  -1.513  0.00  0.00    +0.000 C 
ATOM     21  C   UNL     1       4.643  -1.325  -0.846  0.00  0.00    +0.000 C 
BRANCH  16  22
ATOM     22  C   UNL     1       2.949  -0.724  -2.629  0.00  0.00    +0.000 C 
BRANCH  22  23
ATOM     23  N   UNL     1       1.567  -0.390  -2.947  0.00  0.00    +0.000 NA
ATOM     24  H   UNL     1       1.485  -0.232  -3.952  0.00  0.00    +0.000 HD
ATOM     25  H   UNL     1       1.319   0.494  -2.504  0.00  0.00    +0.000 HD
ENDBRANCH  22  23
ENDBRANCH  16  22
ENDBRANCH  15  19
ENDBRANCH   1  15
TORSDOF 5
