REMARK  Name = 
REMARK  6 active torsions:
REMARK  status: ('A' for Active; 'I' for Inactive)
REMARK    1  A    between atoms: C_2  and  C_25
REMARK    2  A    between atoms: N_3  and  C_4
REMARK    3  A    between atoms: C_4  and  C_5
REMARK    4  A    between atoms: C_8  and  C_9
REMARK    5  A    between atoms: C_9  and  N_10
REMARK    6  A    between atoms: C_11  and  C_13
REMARK                            x       y       z     vdW  Elec       q    Type
REMARK                         _______ _______ _______ _____ _____    ______ ____
ROOT
ATOM      1  C   UNL     1       3.346   2.332  -2.784  0.00  0.00    +0.000 A 
ATOM      2  C   UNL     1       3.166   3.715  -2.927  0.00  0.00    +0.000 A 
ATOM      3  C   UNL     1       4.010   4.465  -3.754  0.00  0.00    +0.000 A 
ATOM      4  C   UNL     1       5.040   3.844  -4.474  0.00  0.00    +0.000 A 
ATOM      5  C   UNL     1       5.227   2.464  -4.322  0.00  0.00    +0.000 A 
ATOM      6  C   UNL     1       4.382   1.714  -3.496  0.00  0.00    +0.000 A 
ENDROOT
BRANCH   1   7
ATOM      7  C   UNL     1       2.421   1.524  -1.909  0.00  0.00    +0.000 C 
BRANCH   7  10
ATOM      8  O   UNL     1       0.342  -0.055  -0.890  0.00  0.00    +0.000 OA
ATOM      9  C   UNL     1       0.291   0.303  -2.064  0.00  0.00    +0.000 C 
ATOM     10  N   UNL     1       1.264   1.078  -2.648  0.00  0.00    +0.000 N 
ATOM     11  H   UNL     1       1.124   1.434  -3.579  0.00  0.00    +0.000 HD
BRANCH   9  12
ATOM     12  C   UNL     1      -0.810  -0.055  -2.936  0.00  0.00    +0.000 A 
ATOM     13  C   UNL     1      -1.019   0.144  -4.292  0.00  0.00    +0.000 A 
ATOM     14  C   UNL     1      -2.268  -0.429  -4.636  0.00  0.00    +0.000 A 
ATOM     15  C   UNL     1      -2.800  -0.966  -3.488  0.00  0.00    +0.000 A 
ATOM     16  N   UNL     1      -1.915  -0.738  -2.468  0.00  0.00    +0.000 N 
ATOM     17  H   UNL     1      -2.032  -1.025  -1.504  0.00  0.00    +0.000 HD
ENDBRANCH   9  12
ENDBRANCH   7  10
ENDBRANCH   1   7
BRANCH   4  18
ATOM     18  C   UNL     1       5.948   4.645  -5.372  0.00  0.00    +0.000 C 
BRANCH  18  19
ATOM     19  N   UNL     1       7.095   5.144  -4.656  0.00  0.00    +0.000 N 
ATOM     20  C   UNL     1       8.014   5.960  -5.267  0.00  0.00    +0.000 C 
ATOM     21  O   UNL     1       7.872   6.347  -6.424  0.00  0.00    +0.000 OA
ATOM     22  H   UNL     1       7.347   4.662  -3.799  0.00  0.00    +0.000 HD
BRANCH  20  23
ATOM     23  C   UNL     1       9.153   6.399  -4.448  0.00  0.00    +0.000 A 
ATOM     24  C   UNL     1       9.839   7.558  -4.786  0.00  0.00    +0.000 A 
ATOM     25  S   UNL     1      11.097   7.950  -3.703  0.00  0.00    +0.000 S 
ATOM     26  C   UNL     1      10.805   6.555  -2.774  0.00  0.00    +0.000 A 
ATOM     27  N   UNL     1      11.567   6.268  -1.684  0.00  0.00    +0.000 NA
ATOM     28  C   UNL     1      11.256   5.164  -1.092  0.00  0.00    +0.000 A 
ATOM     29  N   UNL     1      10.249   4.322  -1.488  0.00  0.00    +0.000 N 
ATOM     30  C   UNL     1       9.436   4.585  -2.564  0.00  0.00    +0.000 A 
ATOM     31  O   UNL     1       8.518   3.831  -2.868  0.00  0.00    +0.000 OA
ATOM     32  C   UNL     1       9.751   5.811  -3.273  0.00  0.00    +0.000 A 
ATOM     33  H   UNL     1      10.051   3.475  -0.976  0.00  0.00    +0.000 HD
ENDBRANCH  20  23
ENDBRANCH  18  19
ENDBRANCH   4  18
TORSDOF 6
