REMARK  Name = 
REMARK  7 active torsions:
REMARK  status: ('A' for Active; 'I' for Inactive)
REMARK    1  A    between atoms: C_1  and  C_2
REMARK    2  A    between atoms: C_2  and  N_3
REMARK    3  A    between atoms: C_2  and  C_16
REMARK    4  A    between atoms: C_4  and  C_6
REMARK    5  A    between atoms: C_19  and  C_20
REMARK    6  A    between atoms: C_20  and  N_21
REMARK    7  A    between atoms: C_22  and  C_24
REMARK                            x       y       z     vdW  Elec       q    Type
REMARK                         _______ _______ _______ _____ _____    ______ ____
ROOT
ATOM      1  C   UNL     1       2.516   0.758 -13.410  0.00  0.00    +0.000 C 
ATOM      2  C   UNL     1       1.813   0.491 -12.071  0.00  0.00    +0.000 C 
ENDROOT
BRANCH   2   3
ATOM      3  C   UNL     1       2.420  -0.730 -11.392  0.00  0.00    +0.000 A 
ATOM      4  C   UNL     1       3.017  -0.622 -10.126  0.00  0.00    +0.000 A 
ATOM      5  C   UNL     1       3.639  -1.727  -9.528  0.00  0.00    +0.000 A 
ATOM      6  C   UNL     1       3.681  -2.964 -10.186  0.00  0.00    +0.000 A 
ATOM      7  C   UNL     1       3.040  -3.087 -11.425  0.00  0.00    +0.000 A 
ATOM      8  C   UNL     1       2.415  -1.986 -12.019  0.00  0.00    +0.000 A 
BRANCH   6   9
ATOM      9  C   UNL     1       4.439  -4.133  -9.611  0.00  0.00    +0.000 C 
BRANCH   9  10
ATOM     10  N   UNL     1       3.636  -4.985  -8.762  0.00  0.00    +0.000 N 
ATOM     11  C   UNL     1       4.192  -6.141  -8.242  0.00  0.00    +0.000 C 
ATOM     12  O   UNL     1       5.366  -6.439  -8.441  0.00  0.00    +0.000 OA
ATOM     13  H   UNL     1       2.655  -4.780  -8.626  0.00  0.00    +0.000 HD
BRANCH  11  14
ATOM     14  C   UNL     1       3.210  -7.041  -7.453  0.00  0.00    +0.000 C 
ATOM     15  C   UNL     1       3.892  -8.274  -6.877  0.00  0.00    +0.000 C 
ATOM     16  C   UNL     1       4.564  -7.741  -5.622  0.00  0.00    +0.000 C 
ATOM     17  C   UNL     1       3.670  -6.594  -5.171  0.00  0.00    +0.000 C 
ATOM     18  N   UNL     1       2.688  -6.379  -6.240  0.00  0.00    +0.000 NA
ATOM     19  H   UNL     1       2.511  -5.388  -6.382  0.00  0.00    +0.000 HD
ENDBRANCH  11  14
ENDBRANCH   9  10
ENDBRANCH   6   9
ENDBRANCH   2   3
BRANCH   2  20
ATOM     20  N   UNL     1       0.380   0.304 -12.227  0.00  0.00    +0.000 N 
ATOM     21  C   UNL     1      -0.439   1.280 -12.744  0.00  0.00    +0.000 C 
ATOM     22  O   UNL     1      -0.016   2.356 -13.148  0.00  0.00    +0.000 OA
ATOM     23  H   UNL     1      -0.043  -0.392 -11.620  0.00  0.00    +0.000 HD
BRANCH  21  24
ATOM     24  C   UNL     1      -1.859   0.940 -12.854  0.00  0.00    +0.000 A 
ATOM     25  C   UNL     1      -2.627   1.509 -13.862  0.00  0.00    +0.000 A 
ATOM     26  S   UNL     1      -4.259   1.015 -13.835  0.00  0.00    +0.000 S 
ATOM     27  C   UNL     1      -4.001   0.059 -12.450  0.00  0.00    +0.000 A 
ATOM     28  N   UNL     1      -5.025  -0.617 -11.863  0.00  0.00    +0.000 NA
ATOM     29  C   UNL     1      -4.691  -1.273 -10.802  0.00  0.00    +0.000 A 
ATOM     30  N   UNL     1      -3.421  -1.329 -10.285  0.00  0.00    +0.000 N 
ATOM     31  C   UNL     1      -2.348  -0.701 -10.870  0.00  0.00    +0.000 A 
ATOM     32  O   UNL     1      -1.212  -0.829 -10.432  0.00  0.00    +0.000 OA
ATOM     33  C   UNL     1      -2.682   0.084 -12.043  0.00  0.00    +0.000 A 
ATOM     34  H   UNL     1      -3.222  -1.883  -9.464  0.00  0.00    +0.000 HD
ENDBRANCH  21  24
ENDBRANCH   2  20
TORSDOF 6
