REMARK  Name = 
REMARK  11 active torsions:
REMARK  status: ('A' for Active; 'I' for Inactive)
REMARK    1  A    between atoms: C_1  and  O_2
REMARK    2  A    between atoms: O_2  and  C_3
REMARK    3  A    between atoms: C_3  and  C_4
REMARK    4  A    between atoms: C_4  and  N_5
REMARK    5  A    between atoms: C_4  and  C_21
REMARK    6  A    between atoms: N_5  and  C_6
REMARK    7  A    between atoms: C_6  and  C_7
REMARK    8  A    between atoms: C_10  and  C_11
REMARK    9  A    between atoms: C_11  and  N_12
REMARK   10  A    between atoms: N_12  and  C_13
REMARK   11  A    between atoms: C_13  and  C_14
REMARK                            x       y       z     vdW  Elec       q    Type
REMARK                         _______ _______ _______ _____ _____    ______ ____
ROOT
ATOM      1  N   UNL     1      -7.996 -12.229   1.254  0.00  0.00    +0.000 NA
ATOM      2  H   UNL     1      -7.994 -11.895   2.220  0.00  0.00    +0.000 HD
ENDROOT
BRANCH   1   3
ATOM      3  C   UNL     1      -8.911 -13.388   1.195  0.00  0.00    +0.000 C 
BRANCH   3   4
ATOM      4  C   UNL     1      -8.336 -14.408   2.173  0.00  0.00    +0.000 A 
ATOM      5  C   UNL     1      -7.327 -15.310   1.870  0.00  0.00    +0.000 A 
ATOM      6  S   UNL     1      -6.891 -16.314   3.179  0.00  0.00    +0.000 S 
ATOM      7  C   UNL     1      -8.007 -15.550   4.212  0.00  0.00    +0.000 A 
ATOM      8  N   UNL     1      -8.110 -15.908   5.520  0.00  0.00    +0.000 NA
ATOM      9  C   UNL     1      -8.988 -15.234   6.185  0.00  0.00    +0.000 A 
ATOM     10  N   UNL     1      -9.779 -14.244   5.659  0.00  0.00    +0.000 N 
ATOM     11  C   UNL     1      -9.712 -13.846   4.342  0.00  0.00    +0.000 A 
ATOM     12  O   UNL     1     -10.429 -12.946   3.909  0.00  0.00    +0.000 OA
ATOM     13  C   UNL     1      -8.724 -14.565   3.557  0.00  0.00    +0.000 A 
ATOM     14  H   UNL     1     -10.448 -13.757   6.236  0.00  0.00    +0.000 HD
ENDBRANCH   3   4
BRANCH   3  15
ATOM     15  C   UNL     1      -9.106 -13.979  -0.230  0.00  0.00    +0.000 C 
BRANCH  15  17
ATOM     16  C   UNL     1     -10.291 -15.582  -1.493  0.00  0.00    +0.000 C 
ATOM     17  O   UNL     1     -10.084 -15.026  -0.202  0.00  0.00    +0.000 OA
ENDBRANCH  15  17
ENDBRANCH   3  15
ENDBRANCH   1   3
BRANCH   1  18
ATOM     18  C   UNL     1      -8.421 -11.124   0.399  0.00  0.00    +0.000 C 
BRANCH  18  19
ATOM     19  C   UNL     1      -7.547  -9.910   0.566  0.00  0.00    +0.000 A 
ATOM     20  C   UNL     1      -8.085  -8.671   0.918  0.00  0.00    +0.000 A 
ATOM     21  C   UNL     1      -7.261  -7.550   0.981  0.00  0.00    +0.000 A 
ATOM     22  C   UNL     1      -5.909  -7.690   0.680  0.00  0.00    +0.000 A 
ATOM     23  N   UNL     1      -5.357  -8.885   0.346  0.00  0.00    +0.000 NA
ATOM     24  C   UNL     1      -6.182  -9.959   0.303  0.00  0.00    +0.000 A 
BRANCH  22  25
ATOM     25  C   UNL     1      -5.006  -6.470   0.650  0.00  0.00    +0.000 C 
BRANCH  25  26
ATOM     26  N   UNL     1      -4.318  -6.270  -0.638  0.00  0.00    +0.000 NA
ATOM     27  H   UNL     1      -3.822  -7.145  -0.824  0.00  0.00    +0.000 HD
BRANCH  26  28
ATOM     28  C   UNL     1      -5.261  -6.024  -1.738  0.00  0.00    +0.000 C 
BRANCH  28  29
ATOM     29  C   UNL     1      -4.549  -5.728  -3.085  0.00  0.00    +0.000 C 
ATOM     30  C   UNL     1      -3.672  -6.858  -3.611  0.00  0.00    +0.000 C 
ATOM     31  C   UNL     1      -4.627  -7.755  -4.376  0.00  0.00    +0.000 C 
ATOM     32  C   UNL     1      -5.787  -6.852  -4.765  0.00  0.00    +0.000 C 
ATOM     33  N   UNL     1      -5.501  -5.536  -4.194  0.00  0.00    +0.000 NA
ATOM     34  H   UNL     1      -6.357  -5.085  -3.876  0.00  0.00    +0.000 HD
ENDBRANCH  28  29
ENDBRANCH  26  28
ENDBRANCH  25  26
ENDBRANCH  22  25
ENDBRANCH  18  19
ENDBRANCH   1  18
TORSDOF 10
