REMARK  Name = 
REMARK  8 active torsions:
REMARK  status: ('A' for Active; 'I' for Inactive)
REMARK    1  A    between atoms: C_1  and  C_2
REMARK    2  A    between atoms: C_2  and  N_3
REMARK    3  A    between atoms: C_2  and  C_25
REMARK    4  A    between atoms: N_3  and  C_4
REMARK    5  A    between atoms: C_4  and  C_5
REMARK    6  A    between atoms: C_8  and  C_9
REMARK    7  A    between atoms: C_9  and  N_10
REMARK    8  A    between atoms: C_11  and  C_13
REMARK                            x       y       z     vdW  Elec       q    Type
REMARK                         _______ _______ _______ _____ _____    ______ ____
ROOT
ATOM      1  C   UNL     1      -0.946   1.103   0.554  0.00  0.00    +0.000 A 
ATOM      2  C   UNL     1      -1.669   0.142  -0.156  0.00  0.00    +0.000 A 
ATOM      3  C   UNL     1      -3.054   0.251  -0.263  0.00  0.00    +0.000 A 
ATOM      4  C   UNL     1      -3.695   1.313   0.365  0.00  0.00    +0.000 A 
ATOM      5  N   UNL     1      -3.017   2.265   1.056  0.00  0.00    +0.000 NA
ATOM      6  C   UNL     1      -1.670   2.142   1.129  0.00  0.00    +0.000 A 
ENDROOT
BRANCH   1   7
ATOM      7  C   UNL     1       0.558   1.092   0.575  0.00  0.00    +0.000 C 
BRANCH   7   8
ATOM      8  N   UNL     1       1.127   1.067   1.927  0.00  0.00    +0.000 NA
ATOM      9  H   UNL     1       0.829   0.204   2.383  0.00  0.00    +0.000 HD
BRANCH   8  11
ATOM     10  C   UNL     1       3.156   2.373   1.264  0.00  0.00    +0.000 C 
ATOM     11  C   UNL     1       2.606   1.088   1.907  0.00  0.00    +0.000 C 
BRANCH  11  12
ATOM     12  C   UNL     1       3.234   0.990   3.298  0.00  0.00    +0.000 A 
ATOM     13  C   UNL     1       2.586   1.451   4.455  0.00  0.00    +0.000 A 
ATOM     14  C   UNL     1       3.265   1.524   5.676  0.00  0.00    +0.000 A 
ATOM     15  C   UNL     1       4.607   1.153   5.757  0.00  0.00    +0.000 A 
ATOM     16  C   UNL     1       5.255   0.671   4.625  0.00  0.00    +0.000 A 
ATOM     17 CL   UNL     1       6.923   0.256   4.705  0.00  0.00    +0.000 Cl
ATOM     18  C   UNL     1       4.574   0.570   3.410  0.00  0.00    +0.000 A 
ENDBRANCH  11  12
ENDBRANCH   8  11
ENDBRANCH   7   8
ENDBRANCH   1   7
BRANCH   4  19
ATOM     19  C   UNL     1      -5.193   1.464   0.257  0.00  0.00    +0.000 C 
BRANCH  19  20
ATOM     20  N   UNL     1      -5.576   2.296  -0.860  0.00  0.00    +0.000 N 
ATOM     21  C   UNL     1      -5.999   1.796  -2.061  0.00  0.00    +0.000 C 
ATOM     22  O   UNL     1      -6.084   0.592  -2.275  0.00  0.00    +0.000 OA
ATOM     23  H   UNL     1      -5.271   3.264  -0.797  0.00  0.00    +0.000 HD
BRANCH  21  24
ATOM     24  C   UNL     1      -6.433   2.787  -3.057  0.00  0.00    +0.000 A 
ATOM     25  C   UNL     1      -7.300   2.411  -4.075  0.00  0.00    +0.000 A 
ATOM     26  S   UNL     1      -7.770   3.702  -5.086  0.00  0.00    +0.000 S 
ATOM     27  C   UNL     1      -6.793   4.801  -4.230  0.00  0.00    +0.000 A 
ATOM     28  N   UNL     1      -6.731   6.112  -4.591  0.00  0.00    +0.000 NA
ATOM     29  C   UNL     1      -5.929   6.825  -3.873  0.00  0.00    +0.000 A 
ATOM     30  N   UNL     1      -5.182   6.348  -2.828  0.00  0.00    +0.000 N 
ATOM     31  C   UNL     1      -5.240   5.044  -2.405  0.00  0.00    +0.000 A 
ATOM     32  O   UNL     1      -4.600   4.664  -1.430  0.00  0.00    +0.000 OA
ATOM     33  C   UNL     1      -6.121   4.193  -3.184  0.00  0.00    +0.000 A 
ATOM     34  H   UNL     1      -4.578   6.959  -2.298  0.00  0.00    +0.000 HD
ENDBRANCH  21  24
ENDBRANCH  19  20
ENDBRANCH   4  19
TORSDOF 7
