REMARK  Name = 
REMARK  5 active torsions:
REMARK  status: ('A' for Active; 'I' for Inactive)
REMARK    1  A    between atoms: C_2  and  C_4
REMARK    2  A    between atoms: C_7  and  N_8
REMARK    3  A    between atoms: N_8  and  C_9
REMARK    4  A    between atoms: C_9  and  C_10
REMARK    5  A    between atoms: C_14  and  C_15
REMARK                            x       y       z     vdW  Elec       q    Type
REMARK                         _______ _______ _______ _____ _____    ______ ____
ROOT
ATOM      1  C   UNL     1       4.818  -4.022  -4.491  0.00  0.00    +0.000 C 
ENDROOT
BRANCH   1   2
ATOM      2  C   UNL     1       5.774  -5.031  -5.087  0.00  0.00    +0.000 A 
ATOM      3  C   UNL     1       6.952  -4.634  -5.724  0.00  0.00    +0.000 A 
ATOM      4  C   UNL     1       7.830  -5.595  -6.220  0.00  0.00    +0.000 A 
ATOM      5  C   UNL     1       7.540  -6.957  -6.080  0.00  0.00    +0.000 A 
ATOM      6  C   UNL     1       6.373  -7.399  -5.433  0.00  0.00    +0.000 A 
ATOM      7  C   UNL     1       5.501  -6.407  -4.950  0.00  0.00    +0.000 A 
BRANCH   6   8
ATOM      8  C   UNL     1       6.087  -8.843  -5.245  0.00  0.00    +0.000 A 
ATOM      9  C   UNL     1       4.770  -9.347  -5.265  0.00  0.00    +0.000 A 
ATOM     10  C   UNL     1       4.501 -10.710  -5.078  0.00  0.00    +0.000 A 
ATOM     11  C   UNL     1       5.547 -11.603  -4.878  0.00  0.00    +0.000 A 
ATOM     12  C   UNL     1       6.848 -11.124  -4.854  0.00  0.00    +0.000 A 
ATOM     13  F   UNL     1       7.861 -11.979  -4.660  0.00  0.00    +0.000 F 
ATOM     14  C   UNL     1       7.122  -9.769  -5.026  0.00  0.00    +0.000 A 
ENDBRANCH   6   8
ENDBRANCH   1   2
BRANCH   1  15
ATOM     15  N   UNL     1       3.537  -4.121  -5.180  0.00  0.00    +0.000 N 
ATOM     16  H   UNL     1       3.552  -3.663  -6.085  0.00  0.00    +0.000 HD
BRANCH  15  20
ATOM     17  C   UNL     1       0.130  -3.383  -3.017  0.00  0.00    +0.000 A 
ATOM     18  C   UNL     1       1.377  -3.231  -2.440  0.00  0.00    +0.000 A 
ATOM     19  N   UNL     1       2.529  -3.418  -3.136  0.00  0.00    +0.000 NA
ATOM     20  C   UNL     1       2.408  -3.768  -4.435  0.00  0.00    +0.000 A 
ATOM     21  C   UNL     1       1.133  -3.895  -5.004  0.00  0.00    +0.000 A 
ATOM     22  N   UNL     1      -0.033  -3.707  -4.329  0.00  0.00    +0.000 NA
BRANCH  17  24
ATOM     23  N   UNL     1      -2.279  -3.503  -2.809  0.00  0.00    +0.000 N 
ATOM     24  C   UNL     1      -1.093  -3.237  -2.181  0.00  0.00    +0.000 C 
ATOM     25  O   UNL     1      -1.043  -2.924  -0.998  0.00  0.00    +0.000 OA
ATOM     26  H   UNL     1      -3.138  -3.472  -2.279  0.00  0.00    +0.000 HD
ATOM     27  H   UNL     1      -2.285  -3.801  -3.778  0.00  0.00    +0.000 HD
ENDBRANCH  17  24
ENDBRANCH  15  20
ENDBRANCH   1  15
TORSDOF 5
