REMARK  Name = 
REMARK  8 active torsions:
REMARK  status: ('A' for Active; 'I' for Inactive)
REMARK    1  A    between atoms: N_1  and  C_2
REMARK    2  A    between atoms: C_2  and  C_3
REMARK    3  A    between atoms: C_3  and  N_4
REMARK    4  A    between atoms: C_3  and  C_13
REMARK    5  A    between atoms: C_5  and  C_7
REMARK    6  A    between atoms: C_16  and  C_17
REMARK    7  A    between atoms: C_17  and  N_18
REMARK    8  A    between atoms: C_19  and  C_21
REMARK                            x       y       z     vdW  Elec       q    Type
REMARK                         _______ _______ _______ _____ _____    ______ ____
ROOT
ATOM      1  C   UNL     1      -1.864   0.388   7.009  0.00  0.00    +0.000 A 
ATOM      2  C   UNL     1      -1.900   1.381   7.991  0.00  0.00    +0.000 A 
ATOM      3  C   UNL     1      -3.095   2.057   8.242  0.00  0.00    +0.000 A 
ATOM      4  C   UNL     1      -4.246   1.726   7.527  0.00  0.00    +0.000 A 
ATOM      5  C   UNL     1      -4.117   0.744   6.552  0.00  0.00    +0.000 A 
ATOM      6  N   UNL     1      -2.969   0.069   6.290  0.00  0.00    +0.000 NA
ENDROOT
BRANCH   1   7
ATOM      7  C   UNL     1      -0.562  -0.364   6.695  0.00  0.00    +0.000 C 
BRANCH   7   8
ATOM      8  N   UNL     1      -0.156  -1.184   7.848  0.00  0.00    +0.000 N 
ATOM      9  C   UNL     1       0.870  -2.106   7.776  0.00  0.00    +0.000 C 
ATOM     10  O   UNL     1       1.573  -2.247   6.781  0.00  0.00    +0.000 OA
ATOM     11  H   UNL     1      -0.782  -1.214   8.643  0.00  0.00    +0.000 HD
BRANCH   9  12
ATOM     12  C   UNL     1       1.065  -2.927   9.047  0.00  0.00    +0.000 C 
ATOM     13  C   UNL     1      -0.126  -3.866   9.267  0.00  0.00    +0.000 C 
ATOM     14  C   UNL     1       0.108  -4.765  10.478  0.00  0.00    +0.000 C 
ATOM     15  C   UNL     1       1.448  -5.492  10.390  0.00  0.00    +0.000 C 
ATOM     16  N   UNL     1       2.552  -4.550  10.204  0.00  0.00    +0.000 NA
ATOM     17  C   UNL     1       2.366  -3.744   8.987  0.00  0.00    +0.000 C 
ATOM     18  H   UNL     1       3.425  -5.072  10.124  0.00  0.00    +0.000 HD
ENDBRANCH   9  12
ENDBRANCH   7   8
BRANCH   7  19
ATOM     19  C   UNL     1       0.568   0.626   6.268  0.00  0.00    +0.000 C 
BRANCH  19  20
ATOM     20  N   UNL     1       0.269   1.473   5.105  0.00  0.00    +0.000 NA
ATOM     21  H   UNL     1       0.892   2.278   5.110  0.00  0.00    +0.000 HD
ATOM     22  H   UNL     1      -0.685   1.830   5.161  0.00  0.00    +0.000 HD
ENDBRANCH  19  20
ENDBRANCH   7  19
ENDBRANCH   1   7
BRANCH   4  23
ATOM     23  C   UNL     1      -5.563   2.406   7.775  0.00  0.00    +0.000 C 
BRANCH  23  24
ATOM     24  N   UNL     1      -5.722   3.576   6.948  0.00  0.00    +0.000 N 
ATOM     25  C   UNL     1      -6.821   4.390   7.061  0.00  0.00    +0.000 C 
ATOM     26  O   UNL     1      -7.693   4.199   7.904  0.00  0.00    +0.000 OA
ATOM     27  H   UNL     1      -5.178   3.610   6.092  0.00  0.00    +0.000 HD
BRANCH  25  28
ATOM     28  C   UNL     1      -6.865   5.545   6.155  0.00  0.00    +0.000 A 
ATOM     29  C   UNL     1      -7.597   6.673   6.501  0.00  0.00    +0.000 A 
ATOM     30  S   UNL     1      -7.476   7.941   5.365  0.00  0.00    +0.000 S 
ATOM     31  C   UNL     1      -6.493   7.003   4.341  0.00  0.00    +0.000 A 
ATOM     32  N   UNL     1      -6.046   7.494   3.154  0.00  0.00    +0.000 NA
ATOM     33  C   UNL     1      -5.337   6.663   2.465  0.00  0.00    +0.000 A 
ATOM     34  N   UNL     1      -5.030   5.387   2.858  0.00  0.00    +0.000 N 
ATOM     35  C   UNL     1      -5.430   4.860   4.062  0.00  0.00    +0.000 A 
ATOM     36  O   UNL     1      -5.094   3.736   4.408  0.00  0.00    +0.000 OA
ATOM     37  C   UNL     1      -6.243   5.750   4.869  0.00  0.00    +0.000 A 
ATOM     38  H   UNL     1      -4.464   4.789   2.275  0.00  0.00    +0.000 HD
ENDBRANCH  25  28
ENDBRANCH  23  24
ENDBRANCH   4  23
TORSDOF 8
