REMARK  Name = 
REMARK  8 active torsions:
REMARK  status: ('A' for Active; 'I' for Inactive)
REMARK    1  A    between atoms: C_2  and  C_4
REMARK    2  A    between atoms: C_7  and  N_8
REMARK    3  A    between atoms: N_8  and  C_9
REMARK    4  A    between atoms: C_9  and  C_10
REMARK    5  A    between atoms: C_10  and  C_13
REMARK    6  A    between atoms: C_15  and  N_16
REMARK    7  A    between atoms: N_16  and  C_17
REMARK    8  A    between atoms: C_23  and  O_24
REMARK                            x       y       z     vdW  Elec       q    Type
REMARK                         _______ _______ _______ _____ _____    ______ ____
ROOT
ATOM      1  C   UNL     1       5.985   4.981   5.191  0.00  0.00    +0.000 C 
ATOM      2  F   UNL     1       7.231   4.404   5.150  0.00  0.00    +0.000 F 
ATOM      3  F   UNL     1       6.092   6.071   4.367  0.00  0.00    +0.000 F 
ENDROOT
BRANCH   1   4
ATOM      4  C   UNL     1       5.604   5.369   6.607  0.00  0.00    +0.000 A 
ATOM      5  C   UNL     1       6.454   5.023   7.676  0.00  0.00    +0.000 A 
ATOM      6  C   UNL     1       6.173   5.398   8.993  0.00  0.00    +0.000 A 
ATOM      7  C   UNL     1       5.007   6.125   9.244  0.00  0.00    +0.000 A 
ATOM      8  C   UNL     1       4.134   6.458   8.206  0.00  0.00    +0.000 A 
ATOM      9  C   UNL     1       4.434   6.077   6.900  0.00  0.00    +0.000 A 
BRANCH   6  10
ATOM     10  N   UNL     1       6.946   4.957  10.077  0.00  0.00    +0.000 N 
ATOM     11  H   UNL     1       7.091   5.646  10.810  0.00  0.00    +0.000 HD
BRANCH  10  12
ATOM     12  C   UNL     1       7.753   3.771  10.133  0.00  0.00    +0.000 C 
ATOM     13  C   UNL     1       7.940   3.249  11.564  0.00  0.00    +0.000 C 
ATOM     14  O   UNL     1       9.378   3.379  11.475  0.00  0.00    +0.000 OA
ATOM     15  C   UNL     1       9.264   4.007  10.172  0.00  0.00    +0.000 C 
ENDBRANCH  10  12
ENDBRANCH   6  10
BRANCH   9  16
ATOM     16  O   UNL     1       3.567   6.378   5.891  0.00  0.00    +0.000 OA
ATOM     17  H   UNL     1       2.813   6.876   6.253  0.00  0.00    +0.000 HD
ENDBRANCH   9  16
ENDBRANCH   1   4
BRANCH   1  18
ATOM     18  C   UNL     1       4.983   3.982   4.553  0.00  0.00    +0.000 C 
BRANCH  18  19
ATOM     19  N   UNL     1       5.396   3.534   3.207  0.00  0.00    +0.000 N 
ATOM     20  H   UNL     1       5.857   4.256   2.655  0.00  0.00    +0.000 HD
BRANCH  19  24
ATOM     21  C   UNL     1       3.227   0.706   0.953  0.00  0.00    +0.000 A 
ATOM     22  C   UNL     1       2.744   1.108   2.197  0.00  0.00    +0.000 A 
ATOM     23  C   UNL     1       3.441   2.066   2.945  0.00  0.00    +0.000 A 
ATOM     24  C   UNL     1       4.612   2.661   2.461  0.00  0.00    +0.000 A 
ATOM     25  C   UNL     1       5.090   2.234   1.214  0.00  0.00    +0.000 A 
ATOM     26  C   UNL     1       4.410   1.263   0.466  0.00  0.00    +0.000 A 
BRANCH  21  28
ATOM     27  N   UNL     1       1.199  -0.493   0.329  0.00  0.00    +0.000 N 
ATOM     28  C   UNL     1       2.545  -0.344   0.153  0.00  0.00    +0.000 C 
ATOM     29  O   UNL     1       3.155  -1.034  -0.657  0.00  0.00    +0.000 OA
ATOM     30  H   UNL     1       0.737  -1.142  -0.296  0.00  0.00    +0.000 HD
ATOM     31  H   UNL     1       0.632   0.212   0.777  0.00  0.00    +0.000 HD
ENDBRANCH  21  28
ENDBRANCH  19  24
ENDBRANCH  18  19
ENDBRANCH   1  18
TORSDOF 8
