REMARK  Name = 
REMARK  10 active torsions:
REMARK  status: ('A' for Active; 'I' for Inactive)
REMARK    1  A    between atoms: C_1  and  C_2
REMARK    2  A    between atoms: C_2  and  C_3
REMARK    3  A    between atoms: C_2  and  C_4
REMARK    4  A    between atoms: C_2  and  C_21
REMARK    5  A    between atoms: C_4  and  N_5
REMARK    6  A    between atoms: N_5  and  C_6
REMARK    7  A    between atoms: C_9  and  C_10
REMARK    8  A    between atoms: C_14  and  N_15
REMARK    9  A    between atoms: C_25  and  O_26
REMARK   10  A    between atoms: O_26  and  C_27
REMARK                            x       y       z     vdW  Elec       q    Type
REMARK                         _______ _______ _______ _____ _____    ______ ____
ROOT
ATOM      1  N   UNL     1       2.720   1.150   2.107  0.00  0.00    +0.000 N 
ATOM      2  H   UNL     1       1.841   1.580   1.856  0.00  0.00    +0.000 HD
ENDROOT
BRANCH   1   3
ATOM      3  C   UNL     1       2.957   1.209   3.494  0.00  0.00    +0.000 A 
ATOM      4  C   UNL     1       4.254   0.921   3.958  0.00  0.00    +0.000 A 
ATOM      5  C   UNL     1       4.619   1.158   5.281  0.00  0.00    +0.000 A 
ATOM      6  C   UNL     1       3.683   1.668   6.172  0.00  0.00    +0.000 A 
ATOM      7  C   UNL     1       2.359   1.883   5.745  0.00  0.00    +0.000 A 
ATOM      8  C   UNL     1       1.945   1.635   4.415  0.00  0.00    +0.000 A 
BRANCH   8   9
ATOM      9  N   UNL     1       0.602   1.786   4.078  0.00  0.00    +0.000 N 
ATOM     10  C   UNL     1      -0.294   2.787   4.696  0.00  0.00    +0.000 C 
ATOM     11  C   UNL     1      -1.611   2.116   5.129  0.00  0.00    +0.000 C 
ATOM     12  O   UNL     1      -2.255   1.457   4.027  0.00  0.00    +0.000 OA
ATOM     13  C   UNL     1      -1.400   0.431   3.510  0.00  0.00    +0.000 C 
ATOM     14  C   UNL     1      -0.058   0.992   3.032  0.00  0.00    +0.000 C 
ENDBRANCH   8   9
BRANCH   6  15
ATOM     15  C   UNL     1       4.133   1.967   7.557  0.00  0.00    +0.000 C 
ATOM     16  N   UNL     1       3.190   2.007   8.548  0.00  0.00    +0.000 N 
ATOM     17  O   UNL     1       5.313   2.155   7.825  0.00  0.00    +0.000 OA
ATOM     18  H   UNL     1       2.269   1.613   8.431  0.00  0.00    +0.000 HD
ATOM     19  H   UNL     1       3.545   2.105   9.492  0.00  0.00    +0.000 HD
ENDBRANCH   6  15
ENDBRANCH   1   3
BRANCH   1  20
ATOM     20  C   UNL     1       3.139  -0.024   1.333  0.00  0.00    +0.000 C 
BRANCH  20  22
ATOM     21  C   UNL     1       1.000  -0.369  -0.059  0.00  0.00    +0.000 C 
ATOM     22  C   UNL     1       2.516  -0.070  -0.108  0.00  0.00    +0.000 C 
ATOM     23  C   UNL     1       2.679   1.318  -0.777  0.00  0.00    +0.000 C 
BRANCH  22  24
ATOM     24  C   UNL     1       3.193  -1.207  -0.911  0.00  0.00    +0.000 A 
ATOM     25  C   UNL     1       3.904  -0.971  -2.097  0.00  0.00    +0.000 A 
ATOM     26  C   UNL     1       4.464  -2.024  -2.826  0.00  0.00    +0.000 A 
ATOM     27  C   UNL     1       4.352  -3.338  -2.375  0.00  0.00    +0.000 A 
ATOM     28  C   UNL     1       3.710  -3.599  -1.172  0.00  0.00    +0.000 A 
ATOM     29  C   UNL     1       3.106  -2.544  -0.471  0.00  0.00    +0.000 A 
BRANCH  28  30
ATOM     30  O   UNL     1       3.556  -4.825  -0.599  0.00  0.00    +0.000 OA
BRANCH  30  31
ATOM     31  C   UNL     1       4.559  -5.813  -0.797  0.00  0.00    +0.000 C 
ATOM     32  F   UNL     1       5.702  -5.344  -1.341  0.00  0.00    +0.000 F 
ATOM     33  F   UNL     1       4.870  -6.350   0.405  0.00  0.00    +0.000 F 
ATOM     34  F   UNL     1       4.072  -6.797  -1.583  0.00  0.00    +0.000 F 
ENDBRANCH  30  31
ENDBRANCH  28  30
ENDBRANCH  22  24
ENDBRANCH  20  22
ENDBRANCH   1  20
TORSDOF 8
