REMARK  Name = 
REMARK  5 active torsions:
REMARK  status: ('A' for Active; 'I' for Inactive)
REMARK    1  A    between atoms: C_2  and  C_4
REMARK    2  A    between atoms: C_7  and  O_8
REMARK    3  A    between atoms: O_8  and  C_9
REMARK    4  A    between atoms: C_9  and  C_10
REMARK    5  A    between atoms: C_15  and  C_16
REMARK                            x       y       z     vdW  Elec       q    Type
REMARK                         _______ _______ _______ _____ _____    ______ ____
ROOT
ATOM      1  C   UNL     1       4.880  -2.761  -5.397  0.00  0.00    +0.000 C 
ENDROOT
BRANCH   1   2
ATOM      2  C   UNL     1       5.747  -3.710  -6.187  0.00  0.00    +0.000 A 
ATOM      3  C   UNL     1       6.787  -3.229  -6.986  0.00  0.00    +0.000 A 
ATOM      4  C   UNL     1       7.568  -4.124  -7.703  0.00  0.00    +0.000 A 
ATOM      5  F   UNL     1       8.569  -3.660  -8.462  0.00  0.00    +0.000 F 
ATOM      6  C   UNL     1       7.345  -5.496  -7.631  0.00  0.00    +0.000 A 
ATOM      7  C   UNL     1       6.333  -6.022  -6.811  0.00  0.00    +0.000 A 
ATOM      8  C   UNL     1       5.526  -5.099  -6.116  0.00  0.00    +0.000 A 
BRANCH   7   9
ATOM      9  C   UNL     1       6.172  -7.480  -6.623  0.00  0.00    +0.000 A 
ATOM     10  C   UNL     1       7.278  -8.344  -6.609  0.00  0.00    +0.000 A 
ATOM     11  C   UNL     1       7.118  -9.704  -6.357  0.00  0.00    +0.000 A 
ATOM     12  C   UNL     1       5.845 -10.183  -6.121  0.00  0.00    +0.000 A 
ATOM     13  N   UNL     1       4.745  -9.407  -6.140  0.00  0.00    +0.000 NA
ATOM     14  C   UNL     1       4.935  -8.084  -6.392  0.00  0.00    +0.000 A 
ENDBRANCH   7   9
ENDBRANCH   1   2
BRANCH   1  15
ATOM     15  O   UNL     1       4.954  -3.127  -4.020  0.00  0.00    +0.000 OA
BRANCH  15  19
ATOM     16  C   UNL     1       2.821  -1.018  -1.128  0.00  0.00    +0.000 A 
ATOM     17  C   UNL     1       2.728  -0.601  -2.461  0.00  0.00    +0.000 A 
ATOM     18  C   UNL     1       3.427  -1.283  -3.463  0.00  0.00    +0.000 A 
ATOM     19  C   UNL     1       4.226  -2.382  -3.139  0.00  0.00    +0.000 A 
ATOM     20  C   UNL     1       4.328  -2.785  -1.805  0.00  0.00    +0.000 A 
ATOM     21  C   UNL     1       3.636  -2.106  -0.800  0.00  0.00    +0.000 A 
BRANCH  16  23
ATOM     22  N   UNL     1       0.923   0.306  -0.382  0.00  0.00    +0.000 N 
ATOM     23  C   UNL     1       2.088  -0.323  -0.042  0.00  0.00    +0.000 C 
ATOM     24  O   UNL     1       2.483  -0.339   1.120  0.00  0.00    +0.000 OA
ATOM     25  H   UNL     1       0.376   0.674   0.386  0.00  0.00    +0.000 HD
ATOM     26  H   UNL     1       0.441   0.116  -1.249  0.00  0.00    +0.000 HD
ENDBRANCH  16  23
ENDBRANCH  15  19
ENDBRANCH   1  15
TORSDOF 5
