REMARK  Name = 
REMARK  4 active torsions:
REMARK  status: ('A' for Active; 'I' for Inactive)
REMARK    1  A    between atoms: C_2  and  C_3
REMARK    2  A    between atoms: C_6  and  C_7
REMARK    3  A    between atoms: C_7  and  C_8
REMARK    4  A    between atoms: C_12  and  C_13
REMARK                            x       y       z     vdW  Elec       q    Type
REMARK                         _______ _______ _______ _____ _____    ______ ____
ROOT
ATOM      1  C   UNL     1       3.995   1.418   0.738  0.00  0.00    +0.000 A 
ATOM      2  C   UNL     1       4.016   2.575  -0.055  0.00  0.00    +0.000 A 
ATOM      3  C   UNL     1       3.919   3.841   0.519  0.00  0.00    +0.000 A 
ATOM      4  C   UNL     1       3.799   3.975   1.904  0.00  0.00    +0.000 A 
ATOM      5  C   UNL     1       3.822   2.852   2.745  0.00  0.00    +0.000 A 
ATOM      6  C   UNL     1       3.975   1.592   2.135  0.00  0.00    +0.000 A 
ENDROOT
BRANCH   5   7
ATOM      7  C   UNL     1       3.573   2.951   4.202  0.00  0.00    +0.000 A 
ATOM      8  C   UNL     1       2.601   3.833   4.712  0.00  0.00    +0.000 A 
ATOM      9  C   UNL     1       2.289   3.868   6.074  0.00  0.00    +0.000 A 
ATOM     10  C   UNL     1       2.937   3.013   6.959  0.00  0.00    +0.000 A 
ATOM     11  C   UNL     1       3.909   2.136   6.483  0.00  0.00    +0.000 A 
ATOM     12  C   UNL     1       4.228   2.116   5.123  0.00  0.00    +0.000 A 
ENDBRANCH   5   7
BRANCH   1  13
ATOM     13  C   UNL     1       3.783   0.032   0.121  0.00  0.00    +0.000 C 
ATOM     14  C   UNL     1       2.672  -0.831   0.731  0.00  0.00    +0.000 C 
ATOM     15  C   UNL     1       2.431  -0.159  -0.578  0.00  0.00    +0.000 C 
BRANCH  13  19
ATOM     16  C   UNL     1       7.111  -2.190  -1.648  0.00  0.00    +0.000 A 
ATOM     17  C   UNL     1       6.817  -2.321  -0.286  0.00  0.00    +0.000 A 
ATOM     18  C   UNL     1       5.774  -1.580   0.287  0.00  0.00    +0.000 A 
ATOM     19  C   UNL     1       4.989  -0.697  -0.477  0.00  0.00    +0.000 A 
ATOM     20  C   UNL     1       5.322  -0.563  -1.837  0.00  0.00    +0.000 A 
ATOM     21  C   UNL     1       6.362  -1.300  -2.419  0.00  0.00    +0.000 A 
BRANCH  16  23
ATOM     22  N   UNL     1       9.001  -3.603  -2.730  0.00  0.00    +0.000 NA
ATOM     23  C   UNL     1       8.159  -2.970  -2.244  0.00  0.00    +0.000 C 
ENDBRANCH  16  23
ENDBRANCH  13  19
ENDBRANCH   1  13
TORSDOF 4
