REMARK  Name = 
REMARK  6 active torsions:
REMARK  status: ('A' for Active; 'I' for Inactive)
REMARK    1  A    between atoms: C_2  and  C_25
REMARK    2  A    between atoms: N_3  and  C_4
REMARK    3  A    between atoms: C_4  and  C_5
REMARK    4  A    between atoms: C_8  and  C_9
REMARK    5  A    between atoms: C_9  and  N_10
REMARK    6  A    between atoms: C_11  and  C_13
REMARK                            x       y       z     vdW  Elec       q    Type
REMARK                         _______ _______ _______ _____ _____    ______ ____
ROOT
ATOM      1  C   UNL     1       3.238  -3.629  -0.450  0.00  0.00    +0.000 A 
ATOM      2  C   UNL     1       4.617  -3.388  -0.525  0.00  0.00    +0.000 A 
ATOM      3  C   UNL     1       5.533  -4.450  -0.593  0.00  0.00    +0.000 A 
ATOM      4  C   UNL     1       5.091  -5.780  -0.616  0.00  0.00    +0.000 A 
ATOM      5  C   UNL     1       3.712  -6.020  -0.539  0.00  0.00    +0.000 A 
ATOM      6  C   UNL     1       2.797  -4.960  -0.469  0.00  0.00    +0.000 A 
ENDROOT
BRANCH   1   7
ATOM      7  C   UNL     1       2.254  -2.489  -0.334  0.00  0.00    +0.000 C 
BRANCH   7  10
ATOM      8  O   UNL     1       0.376  -0.474  -0.724  0.00  0.00    +0.000 OA
ATOM      9  C   UNL     1       0.877  -0.985  -1.721  0.00  0.00    +0.000 C 
ATOM     10  N   UNL     1       1.808  -2.001  -1.617  0.00  0.00    +0.000 N 
ATOM     11  H   UNL     1       2.283  -2.303  -2.457  0.00  0.00    +0.000 HD
BRANCH   9  12
ATOM     12  C   UNL     1       0.543  -0.563  -3.079  0.00  0.00    +0.000 A 
ATOM     13  C   UNL     1      -0.289   0.483  -3.449  0.00  0.00    +0.000 A 
ATOM     14  C   UNL     1      -0.425   0.605  -4.863  0.00  0.00    +0.000 A 
ATOM     15  C   UNL     1       0.301  -0.353  -5.533  0.00  0.00    +0.000 A 
ATOM     16  S   UNL     1       1.158  -1.372  -4.463  0.00  0.00    +0.000 S 
ENDBRANCH   9  12
ENDBRANCH   7  10
ENDBRANCH   1   7
BRANCH   4  17
ATOM     17  C   UNL     1       6.068  -6.933  -0.705  0.00  0.00    +0.000 C 
BRANCH  17  18
ATOM     18  N   UNL     1       6.487  -7.386   0.599  0.00  0.00    +0.000 N 
ATOM     19  C   UNL     1       7.413  -8.388   0.762  0.00  0.00    +0.000 C 
ATOM     20  O   UNL     1       7.967  -8.935  -0.187  0.00  0.00    +0.000 OA
ATOM     21  H   UNL     1       5.873  -7.161   1.373  0.00  0.00    +0.000 HD
BRANCH  19  22
ATOM     22  C   UNL     1       7.757  -8.729   2.150  0.00  0.00    +0.000 A 
ATOM     23  C   UNL     1       8.995  -9.278   2.453  0.00  0.00    +0.000 A 
ATOM     24  S   UNL     1       9.232  -9.559   4.119  0.00  0.00    +0.000 S 
ATOM     25  C   UNL     1       7.667  -9.008   4.492  0.00  0.00    +0.000 A 
ATOM     26  N   UNL     1       7.206  -9.012   5.774  0.00  0.00    +0.000 NA
ATOM     27  C   UNL     1       5.994  -8.590   5.908  0.00  0.00    +0.000 A 
ATOM     28  N   UNL     1       5.203  -8.154   4.877  0.00  0.00    +0.000 N 
ATOM     29  C   UNL     1       5.635  -8.094   3.576  0.00  0.00    +0.000 A 
ATOM     30  O   UNL     1       4.922  -7.634   2.691  0.00  0.00    +0.000 OA
ATOM     31  C   UNL     1       6.984  -8.585   3.366  0.00  0.00    +0.000 A 
ATOM     32  H   UNL     1       4.265  -7.815   5.050  0.00  0.00    +0.000 HD
ENDBRANCH  19  22
ENDBRANCH  17  18
ENDBRANCH   4  17
TORSDOF 6
