REMARK  Name = 
REMARK  7 active torsions:
REMARK  status: ('A' for Active; 'I' for Inactive)
REMARK    1  A    between atoms: C_1  and  N_2
REMARK    2  A    between atoms: N_2  and  C_3
REMARK    3  A    between atoms: C_3  and  C_4
REMARK    4  A    between atoms: C_7  and  C_8
REMARK    5  A    between atoms: C_8  and  N_9
REMARK    6  A    between atoms: C_10  and  C_12
REMARK    7  A    between atoms: C_24  and  C_26
REMARK                            x       y       z     vdW  Elec       q    Type
REMARK                         _______ _______ _______ _____ _____    ______ ____
ROOT
ATOM      1  C   UNL     1       2.374   0.980   2.337  0.00  0.00    +0.000 A 
ATOM      2  C   UNL     1       1.667   0.056   3.119  0.00  0.00    +0.000 A 
ATOM      3  C   UNL     1       0.813   0.490   4.135  0.00  0.00    +0.000 A 
ATOM      4  C   UNL     1       0.644   1.859   4.384  0.00  0.00    +0.000 A 
ATOM      5  C   UNL     1       1.381   2.781   3.628  0.00  0.00    +0.000 A 
ATOM      6  C   UNL     1       2.232   2.347   2.609  0.00  0.00    +0.000 A 
ENDROOT
BRANCH   1   7
ATOM      7  C   UNL     1       3.241   0.504   1.196  0.00  0.00    +0.000 C 
BRANCH   7   9
ATOM      8  C   UNL     1       1.195   0.675  -0.325  0.00  0.00    +0.000 C 
ATOM      9  N   UNL     1       2.620   0.448  -0.133  0.00  0.00    +0.000 N 
ATOM     10  C   UNL     1       3.357   0.173  -1.298  0.00  0.00    +0.000 C 
ATOM     11  O   UNL     1       2.825   0.204  -2.410  0.00  0.00    +0.000 OA
BRANCH  10  12
ATOM     12  C   UNL     1       4.797  -0.114  -1.184  0.00  0.00    +0.000 A 
ATOM     13  C   UNL     1       5.734   0.147  -2.168  0.00  0.00    +0.000 A 
ATOM     14  N   UNL     1       6.930  -0.282  -1.669  0.00  0.00    +0.000 N 
ATOM     15  C   UNL     1       6.694  -0.811  -0.434  0.00  0.00    +0.000 A 
ATOM     16  N   UNL     1       5.427  -0.713  -0.104  0.00  0.00    +0.000 NA
ATOM     17  H   UNL     1       7.828  -0.229  -2.131  0.00  0.00    +0.000 HD
ENDBRANCH  10  12
ENDBRANCH   7   9
ENDBRANCH   1   7
BRANCH   4  18
ATOM     18  C   UNL     1      -0.284   2.336   5.470  0.00  0.00    +0.000 C 
BRANCH  18  19
ATOM     19  N   UNL     1       0.417   2.476   6.719  0.00  0.00    +0.000 N 
ATOM     20  C   UNL     1      -0.242   2.807   7.875  0.00  0.00    +0.000 C 
ATOM     21  O   UNL     1      -1.461   2.952   7.910  0.00  0.00    +0.000 OA
ATOM     22  H   UNL     1       1.424   2.590   6.668  0.00  0.00    +0.000 HD
BRANCH  20  23
ATOM     23  C   UNL     1       0.579   2.915   9.086  0.00  0.00    +0.000 A 
ATOM     24  C   UNL     1      -0.009   2.754  10.334  0.00  0.00    +0.000 A 
ATOM     25  S   UNL     1       1.098   2.852  11.629  0.00  0.00    +0.000 S 
ATOM     26  C   UNL     1       2.393   3.161  10.571  0.00  0.00    +0.000 A 
ATOM     27  N   UNL     1       3.652   3.366  11.047  0.00  0.00    +0.000 NA
ATOM     28  C   UNL     1       4.532   3.612  10.140  0.00  0.00    +0.000 A 
ATOM     29  N   UNL     1       4.271   3.675   8.794  0.00  0.00    +0.000 N 
ATOM     30  C   UNL     1       3.022   3.456   8.263  0.00  0.00    +0.000 A 
ATOM     31  O   UNL     1       2.829   3.494   7.053  0.00  0.00    +0.000 OA
ATOM     32  C   UNL     1       1.992   3.175   9.249  0.00  0.00    +0.000 A 
ATOM     33  H   UNL     1       5.008   3.864   8.130  0.00  0.00    +0.000 HD
ENDBRANCH  20  23
ENDBRANCH  18  19
ENDBRANCH   4  18
TORSDOF 6
