REMARK  Name = 
REMARK  8 active torsions:
REMARK  status: ('A' for Active; 'I' for Inactive)
REMARK    1  A    between atoms: C_1  and  C_2
REMARK    2  A    between atoms: C_5  and  C_6
REMARK    3  A    between atoms: C_6  and  N_7
REMARK    4  A    between atoms: N_7  and  C_8
REMARK    5  A    between atoms: C_8  and  C_9
REMARK    6  A    between atoms: C_12  and  C_13
REMARK    7  A    between atoms: C_13  and  N_14
REMARK    8  A    between atoms: C_15  and  C_17
REMARK                            x       y       z     vdW  Elec       q    Type
REMARK                         _______ _______ _______ _____ _____    ______ ____
ROOT
ATOM      1  C   UNL     1       5.604  -2.901  -0.048  0.00  0.00    +0.000 A 
ATOM      2  C   UNL     1       6.922  -3.168   0.352  0.00  0.00    +0.000 A 
ATOM      3  C   UNL     1       7.407  -4.479   0.401  0.00  0.00    +0.000 A 
ATOM      4  C   UNL     1       6.581  -5.555   0.054  0.00  0.00    +0.000 A 
ATOM      5  C   UNL     1       5.250  -5.295  -0.299  0.00  0.00    +0.000 A 
ATOM      6  C   UNL     1       4.769  -3.982  -0.360  0.00  0.00    +0.000 A 
ENDROOT
BRANCH   1   7
ATOM      7  C   UNL     1       5.101  -1.476  -0.143  0.00  0.00    +0.000 C 
BRANCH   7   8
ATOM      8  N   UNL     1       5.852  -0.725  -1.142  0.00  0.00    +0.000 NA
ATOM      9  H   UNL     1       6.846  -0.729  -0.914  0.00  0.00    +0.000 HD
BRANCH   8  10
ATOM     10  C   UNL     1       5.429   0.683  -1.216  0.00  0.00    +0.000 C 
BRANCH  10  15
ATOM     11  C   UNL     1       8.566   3.558  -5.054  0.00  0.00    +0.000 C 
ATOM     12  C   UNL     1       7.743   2.827  -4.052  0.00  0.00    +0.000 A 
ATOM     13  C   UNL     1       6.373   2.710  -4.148  0.00  0.00    +0.000 A 
ATOM     14  N   UNL     1       5.608   2.056  -3.254  0.00  0.00    +0.000 NA
ATOM     15  C   UNL     1       6.253   1.479  -2.221  0.00  0.00    +0.000 A 
ATOM     16  N   UNL     1       7.591   1.542  -2.022  0.00  0.00    +0.000 NA
ATOM     17  C   UNL     1       8.301   2.211  -2.951  0.00  0.00    +0.000 A 
ENDBRANCH  10  15
ENDBRANCH   8  10
ENDBRANCH   7   8
ENDBRANCH   1   7
BRANCH   4  18
ATOM     18  C   UNL     1       7.096  -6.970   0.096  0.00  0.00    +0.000 C 
BRANCH  18  19
ATOM     19  N   UNL     1       6.887  -7.557   1.393  0.00  0.00    +0.000 N 
ATOM     20  C   UNL     1       7.322  -8.823   1.690  0.00  0.00    +0.000 C 
ATOM     21  O   UNL     1       7.945  -9.506   0.882  0.00  0.00    +0.000 OA
ATOM     22  H   UNL     1       6.182  -7.122   1.980  0.00  0.00    +0.000 HD
BRANCH  20  23
ATOM     23  C   UNL     1       7.058  -9.295   3.056  0.00  0.00    +0.000 A 
ATOM     24  C   UNL     1       7.857 -10.286   3.609  0.00  0.00    +0.000 A 
ATOM     25  S   UNL     1       7.441 -10.680   5.216  0.00  0.00    +0.000 S 
ATOM     26  C   UNL     1       6.145  -9.577   5.210  0.00  0.00    +0.000 A 
ATOM     27  N   UNL     1       5.341  -9.435   6.297  0.00  0.00    +0.000 NA
ATOM     28  C   UNL     1       4.379  -8.585   6.143  0.00  0.00    +0.000 A 
ATOM     29  N   UNL     1       4.157  -7.860   5.004  0.00  0.00    +0.000 N 
ATOM     30  C   UNL     1       4.959  -7.948   3.890  0.00  0.00    +0.000 A 
ATOM     31  O   UNL     1       4.753  -7.254   2.902  0.00  0.00    +0.000 OA
ATOM     32  C   UNL     1       6.045  -8.903   4.006  0.00  0.00    +0.000 A 
ATOM     33  H   UNL     1       3.393  -7.200   4.948  0.00  0.00    +0.000 HD
ENDBRANCH  20  23
ENDBRANCH  18  19
ENDBRANCH   4  18
TORSDOF 7
