REMARK  Name = 
REMARK  9 active torsions:
REMARK  status: ('A' for Active; 'I' for Inactive)
REMARK    1  A    between atoms: C_1  and  O_2
REMARK    2  A    between atoms: O_2  and  C_3
REMARK    3  A    between atoms: C_10  and  C_11
REMARK    4  A    between atoms: N_13  and  C_14
REMARK    5  A    between atoms: C_14  and  C_15
REMARK    6  A    between atoms: C_18  and  C_19
REMARK    7  A    between atoms: C_19  and  O_20
REMARK    8  A    between atoms: O_20  and  C_21
REMARK    9  A    between atoms: C_21  and  C_22
REMARK                            x       y       z     vdW  Elec       q    Type
REMARK                         _______ _______ _______ _____ _____    ______ ____
ROOT
ATOM      1  C   UNL     1       2.774   1.475   3.047  0.00  0.00    +0.000 C 
ENDROOT
BRANCH   1   2
ATOM      2  C   UNL     1       1.713   2.368   2.462  0.00  0.00    +0.000 A 
ATOM      3  C   UNL     1       0.474   1.843   2.072  0.00  0.00    +0.000 A 
ATOM      4  C   UNL     1      -0.486   2.663   1.474  0.00  0.00    +0.000 A 
ATOM      5  C   UNL     1      -0.222   4.021   1.251  0.00  0.00    +0.000 A 
ATOM      6  C   UNL     1       1.015   4.547   1.644  0.00  0.00    +0.000 A 
ATOM      7  C   UNL     1       1.975   3.727   2.241  0.00  0.00    +0.000 A 
BRANCH   5   8
ATOM      8  C   UNL     1      -1.270   4.910   0.628  0.00  0.00    +0.000 C 
BRANCH   8   9
ATOM      9  O   UNL     1      -2.489   4.905   1.372  0.00  0.00    +0.000 OA
BRANCH   9  10
ATOM     10  C   UNL     1      -2.345   5.512   2.654  0.00  0.00    +0.000 C 
BRANCH  10  11
ATOM     11  C   UNL     1      -3.687   5.549   3.337  0.00  0.00    +0.000 A 
ATOM     12  C   UNL     1      -3.901   4.832   4.525  0.00  0.00    +0.000 A 
ATOM     13  C   UNL     1      -5.135   4.890   5.179  0.00  0.00    +0.000 A 
ATOM     14  C   UNL     1      -6.165   5.663   4.650  0.00  0.00    +0.000 A 
ATOM     15  C   UNL     1      -5.957   6.364   3.467  0.00  0.00    +0.000 A 
ATOM     16  F   UNL     1      -6.950   7.105   2.958  0.00  0.00    +0.000 F 
ATOM     17  C   UNL     1      -4.734   6.313   2.807  0.00  0.00    +0.000 A 
ENDBRANCH  10  11
ENDBRANCH   9  10
ENDBRANCH   8   9
ENDBRANCH   5   8
ENDBRANCH   1   2
BRANCH   1  20
ATOM     18  C   UNL     1       4.608   0.036   2.288  0.00  0.00    +0.000 C 
ATOM     19  O   UNL     1       4.847  -0.301   3.446  0.00  0.00    +0.000 OA
ATOM     20  N   UNL     1       3.601   0.915   2.005  0.00  0.00    +0.000 N 
ATOM     21  H   UNL     1       3.442   1.225   1.055  0.00  0.00    +0.000 HD
BRANCH  18  29
ATOM     22  C   UNL     1       4.414   0.393  -1.139  0.00  0.00    +0.000 A 
ATOM     23  N   UNL     1       4.576   0.358  -2.478  0.00  0.00    +0.000 NA
ATOM     24  C   UNL     1       5.579  -0.375  -2.972  0.00  0.00    +0.000 A 
ATOM     25  N   UNL     1       6.455  -1.096  -2.283  0.00  0.00    +0.000 NA
ATOM     26  C   UNL     1       6.263  -1.030  -0.954  0.00  0.00    +0.000 A 
ATOM     27  S   UNL     1       7.292  -1.897   0.079  0.00  0.00    +0.000 S 
ATOM     28  C   UNL     1       6.461  -1.340   1.451  0.00  0.00    +0.000 A 
ATOM     29  C   UNL     1       5.398  -0.492   1.163  0.00  0.00    +0.000 A 
ATOM     30  C   UNL     1       5.278  -0.308  -0.282  0.00  0.00    +0.000 A 
BRANCH  22  32
ATOM     31  C   UNL     1       2.319   1.345  -1.547  0.00  0.00    +0.000 C 
ATOM     32  O   UNL     1       3.404   1.188  -0.634  0.00  0.00    +0.000 OA
ENDBRANCH  22  32
ENDBRANCH  18  29
ENDBRANCH   1  20
TORSDOF 8
