REMARK  Name = 
REMARK  6 active torsions:
REMARK  status: ('A' for Active; 'I' for Inactive)
REMARK    1  A    between atoms: N_1  and  C_2
REMARK    2  A    between atoms: C_2  and  C_3
REMARK    3  A    between atoms: C_6  and  C_7
REMARK    4  A    between atoms: C_7  and  O_8
REMARK    5  A    between atoms: O_8  and  C_9
REMARK    6  A    between atoms: C_14  and  C_15
REMARK                            x       y       z     vdW  Elec       q    Type
REMARK                         _______ _______ _______ _____ _____    ______ ____
ROOT
ATOM      1  O   UNL     1       4.750  -0.330   5.910  0.00  0.00    +0.000 OA
ENDROOT
BRANCH   1   2
ATOM      2  C   UNL     1       5.116  -0.207   7.226  0.00  0.00    +0.000 A 
ATOM      3  C   UNL     1       5.151   0.986   7.946  0.00  0.00    +0.000 A 
ATOM      4  C   UNL     1       5.566   0.991   9.281  0.00  0.00    +0.000 A 
ATOM      5  C   UNL     1       5.941  -0.196   9.919  0.00  0.00    +0.000 A 
ATOM      6 CL   UNL     1       6.493  -0.040  11.550  0.00  0.00    +0.000 Cl
ATOM      7  C   UNL     1       5.888  -1.406   9.217  0.00  0.00    +0.000 A 
ATOM      8  C   UNL     1       5.489  -1.395   7.865  0.00  0.00    +0.000 A 
BRANCH   7   9
ATOM      9  C   UNL     1       6.248  -2.733   9.788  0.00  0.00    +0.000 C 
ATOM     10  N   UNL     1       6.047  -2.944  11.123  0.00  0.00    +0.000 N 
ATOM     11  O   UNL     1       6.679  -3.634   9.080  0.00  0.00    +0.000 OA
ATOM     12  H   UNL     1       5.783  -2.207  11.765  0.00  0.00    +0.000 HD
ATOM     13  H   UNL     1       6.349  -3.830  11.509  0.00  0.00    +0.000 HD
ENDBRANCH   7   9
ENDBRANCH   1   2
BRANCH   1  14
ATOM     14  C   UNL     1       4.257   0.856   5.278  0.00  0.00    +0.000 C 
BRANCH  14  18
ATOM     15  C   UNL     1       3.086   0.206   1.283  0.00  0.00    +0.000 A 
ATOM     16  C   UNL     1       2.175   0.111   2.330  0.00  0.00    +0.000 A 
ATOM     17  N   UNL     1       2.520   0.289   3.629  0.00  0.00    +0.000 NA
ATOM     18  C   UNL     1       3.827   0.577   3.860  0.00  0.00    +0.000 A 
ATOM     19  C   UNL     1       4.738   0.672   2.813  0.00  0.00    +0.000 A 
ATOM     20  N   UNL     1       4.393   0.502   1.513  0.00  0.00    +0.000 NA
BRANCH  15  21
ATOM     21  C   UNL     1       2.637   0.034  -0.146  0.00  0.00    +0.000 C 
BRANCH  21  22
ATOM     22  N   UNL     1       2.202   1.297  -0.748  0.00  0.00    +0.000 NA
ATOM     23  H   UNL     1       2.043   1.148  -1.743  0.00  0.00    +0.000 HD
ATOM     24  H   UNL     1       2.985   1.951  -0.688  0.00  0.00    +0.000 HD
ENDBRANCH  21  22
ENDBRANCH  15  21
ENDBRANCH  14  18
ENDBRANCH   1  14
TORSDOF 6
