REMARK  Name = 
REMARK  6 active torsions:
REMARK  status: ('A' for Active; 'I' for Inactive)
REMARK    1  A    between atoms: C_1  and  C_2
REMARK    2  A    between atoms: C_2  and  C_3
REMARK    3  A    between atoms: C_2  and  C_14
REMARK    4  A    between atoms: C_3  and  N_4
REMARK    5  A    between atoms: N_4  and  C_5
REMARK    6  A    between atoms: C_8  and  C_9
REMARK                            x       y       z     vdW  Elec       q    Type
REMARK                         _______ _______ _______ _____ _____    ______ ____
ROOT
ATOM      1  N   UNL     1       2.811   2.479  -0.623  0.00  0.00    +0.000 N 
ATOM      2  H   UNL     1       1.806   2.515  -0.791  0.00  0.00    +0.000 HD
ENDROOT
BRANCH   1   3
ATOM      3  C   UNL     1       3.341   3.763  -0.439  0.00  0.00    +0.000 A 
ATOM      4  C   UNL     1       2.678   4.875  -0.978  0.00  0.00    +0.000 A 
ATOM      5  C   UNL     1       3.207   6.160  -0.819  0.00  0.00    +0.000 A 
ATOM      6  C   UNL     1       4.414   6.293  -0.147  0.00  0.00    +0.000 A 
ATOM      7  N   UNL     1       5.130   5.245   0.336  0.00  0.00    +0.000 NA
ATOM      8  C   UNL     1       4.583   4.021   0.155  0.00  0.00    +0.000 A 
BRANCH   6   9
ATOM      9  C   UNL     1       4.996   7.653   0.094  0.00  0.00    +0.000 C 
ATOM     10  N   UNL     1       6.180   7.663   0.784  0.00  0.00    +0.000 N 
ATOM     11  O   UNL     1       4.456   8.684  -0.282  0.00  0.00    +0.000 OA
ATOM     12  H   UNL     1       6.584   6.785   1.089  0.00  0.00    +0.000 HD
ATOM     13  H   UNL     1       6.625   8.541   1.006  0.00  0.00    +0.000 HD
ENDBRANCH   6   9
ENDBRANCH   1   3
BRANCH   1  14
ATOM     14  C   UNL     1       3.136   1.484   0.400  0.00  0.00    +0.000 C 
BRANCH  14  16
ATOM     15  C   UNL     1       2.846  -0.593  -1.089  0.00  0.00    +0.000 C 
ATOM     16  C   UNL     1       2.389   0.225   0.078  0.00  0.00    +0.000 C 
BRANCH  16  17
ATOM     17  C   UNL     1       1.017   0.084   0.583  0.00  0.00    +0.000 A 
ATOM     18  C   UNL     1       0.736   0.178   1.952  0.00  0.00    +0.000 A 
ATOM     19  C   UNL     1      -0.587   0.174   2.403  0.00  0.00    +0.000 A 
ATOM     20  C   UNL     1      -1.635   0.074   1.490  0.00  0.00    +0.000 A 
ATOM     21  C   UNL     1      -1.361  -0.063   0.131  0.00  0.00    +0.000 A 
ATOM     22  C   UNL     1      -0.041  -0.071  -0.317  0.00  0.00    +0.000 A 
ENDBRANCH  16  17
ENDBRANCH  14  16
ENDBRANCH   1  14
TORSDOF 5
