REMARK  Name = 
REMARK  5 active torsions:
REMARK  status: ('A' for Active; 'I' for Inactive)
REMARK    1  A    between atoms: C_2  and  C_4
REMARK    2  A    between atoms: C_7  and  O_8
REMARK    3  A    between atoms: O_8  and  C_9
REMARK    4  A    between atoms: C_9  and  C_10
REMARK    5  A    between atoms: C_14  and  C_15
REMARK                            x       y       z     vdW  Elec       q    Type
REMARK                         _______ _______ _______ _____ _____    ______ ____
ROOT
ATOM      1  C   UNL     1       4.968   5.866  -0.942  0.00  0.00    +0.000 C 
ENDROOT
BRANCH   1   2
ATOM      2  C   UNL     1       5.881   6.998  -1.364  0.00  0.00    +0.000 A 
ATOM      3  C   UNL     1       5.368   8.303  -1.347  0.00  0.00    +0.000 A 
ATOM      4  C   UNL     1       6.176   9.382  -1.688  0.00  0.00    +0.000 A 
ATOM      5  C   UNL     1       7.511   9.169  -2.033  0.00  0.00    +0.000 A 
ATOM      6  C   UNL     1       8.076   7.880  -2.027  0.00  0.00    +0.000 A 
ATOM      7  C   UNL     1       7.228   6.802  -1.708  0.00  0.00    +0.000 A 
BRANCH   6   8
ATOM      8  C   UNL     1       9.520   7.672  -2.278  0.00  0.00    +0.000 A 
ATOM      9  C   UNL     1      10.466   8.607  -1.831  0.00  0.00    +0.000 A 
ATOM     10  C   UNL     1      11.817   8.363  -2.038  0.00  0.00    +0.000 A 
ATOM     11  N   UNL     1      12.298   7.260  -2.645  0.00  0.00    +0.000 NA
ATOM     12  C   UNL     1      11.384   6.367  -3.069  0.00  0.00    +0.000 A 
ATOM     13  C   UNL     1      10.014   6.527  -2.918  0.00  0.00    +0.000 A 
ENDBRANCH   6   8
ENDBRANCH   1   2
BRANCH   1  14
ATOM     14  O   UNL     1       5.574   4.575  -1.091  0.00  0.00    +0.000 OA
BRANCH  14  18
ATOM     15  C   UNL     1       3.140   1.548   0.271  0.00  0.00    +0.000 A 
ATOM     16  C   UNL     1       4.407   1.241  -0.226  0.00  0.00    +0.000 A 
ATOM     17  C   UNL     1       5.226   2.274  -0.690  0.00  0.00    +0.000 A 
ATOM     18  C   UNL     1       4.740   3.573  -0.638  0.00  0.00    +0.000 A 
ATOM     19  N   UNL     1       3.515   3.893  -0.175  0.00  0.00    +0.000 NA
ATOM     20  C   UNL     1       2.736   2.874   0.260  0.00  0.00    +0.000 A 
BRANCH  15  22
ATOM     21  N   UNL     1       2.728  -0.598   1.331  0.00  0.00    +0.000 N 
ATOM     22  C   UNL     1       2.195   0.537   0.790  0.00  0.00    +0.000 C 
ATOM     23  O   UNL     1       0.987   0.727   0.785  0.00  0.00    +0.000 OA
ATOM     24  H   UNL     1       2.074  -1.218   1.793  0.00  0.00    +0.000 HD
ATOM     25  H   UNL     1       3.701  -0.671   1.593  0.00  0.00    +0.000 HD
ENDBRANCH  15  22
ENDBRANCH  14  18
ENDBRANCH   1  14
TORSDOF 5
