REMARK  Name = 
REMARK  5 active torsions:
REMARK  status: ('A' for Active; 'I' for Inactive)
REMARK    1  A    between atoms: N_1  and  C_2
REMARK    2  A    between atoms: C_2  and  C_3
REMARK    3  A    between atoms: C_3  and  C_4
REMARK    4  A    between atoms: C_4  and  N_5
REMARK    5  A    between atoms: C_11  and  C_12
REMARK                            x       y       z     vdW  Elec       q    Type
REMARK                         _______ _______ _______ _____ _____    ______ ____
ROOT
ATOM      1  N   UNL     1       4.754  -1.952  -2.058  0.00  0.00    +0.000 NA
ATOM      2  C   UNL     1       5.465  -1.205  -3.117  0.00  0.00    +0.000 C 
ATOM      3  C   UNL     1       5.951  -1.935  -4.383  0.00  0.00    +0.000 C 
ATOM      4  C   UNL     1       6.025  -3.423  -4.328  0.00  0.00    +0.000 A 
ATOM      5  N   UNL     1       7.029  -4.144  -4.781  0.00  0.00    +0.000 NA
ATOM      6  C   UNL     1       6.606  -5.440  -4.723  0.00  0.00    +0.000 A 
ATOM      7  C   UNL     1       5.322  -5.549  -4.215  0.00  0.00    +0.000 A 
ATOM      8  N   UNL     1       4.970  -4.231  -3.963  0.00  0.00    +0.000 N 
ATOM      9  C   UNL     1       3.657  -3.736  -3.617  0.00  0.00    +0.000 C 
ATOM     10  C   UNL     1       3.548  -2.622  -2.564  0.00  0.00    +0.000 C 
ENDROOT
BRANCH   7  11
ATOM     11  C   UNL     1       4.499  -6.721  -4.028  0.00  0.00    +0.000 C 
ATOM     12  N   UNL     1       5.073  -7.924  -4.332  0.00  0.00    +0.000 N 
ATOM     13  O   UNL     1       3.339  -6.728  -3.627  0.00  0.00    +0.000 OA
ATOM     14  H   UNL     1       6.026  -8.031  -4.634  0.00  0.00    +0.000 HD
ATOM     15  H   UNL     1       4.511  -8.749  -4.179  0.00  0.00    +0.000 HD
ENDBRANCH   7  11
BRANCH   1  16
ATOM     16  C   UNL     1       4.405  -1.001  -0.960  0.00  0.00    +0.000 C 
BRANCH  16  17
ATOM     17  C   UNL     1       3.743  -1.660   0.265  0.00  0.00    +0.000 C 
BRANCH  17  18
ATOM     18  C   UNL     1       3.346  -0.672   1.363  0.00  0.00    +0.000 C 
BRANCH  18  19
ATOM     19  N   UNL     1       2.344   0.283   0.898  0.00  0.00    +0.000 NA
ATOM     20  H   UNL     1       2.009   0.832   1.690  0.00  0.00    +0.000 HD
ATOM     21  H   UNL     1       1.529  -0.218   0.543  0.00  0.00    +0.000 HD
ENDBRANCH  18  19
ENDBRANCH  17  18
ENDBRANCH  16  17
ENDBRANCH   1  16
TORSDOF 5
