REMARK  Name = 
REMARK  7 active torsions:
REMARK  status: ('A' for Active; 'I' for Inactive)
REMARK    1  A    between atoms: C_2  and  C_3
REMARK    2  A    between atoms: C_7  and  C_8
REMARK    3  A    between atoms: C_12  and  C_13
REMARK    4  A    between atoms: C_13  and  N_14
REMARK    5  A    between atoms: N_14  and  C_15
REMARK    6  A    between atoms: C_18  and  C_19
REMARK    7  A    between atoms: C_21  and  C_22
REMARK                            x       y       z     vdW  Elec       q    Type
REMARK                         _______ _______ _______ _____ _____    ______ ____
ROOT
ATOM      1  C   UNL     1       2.007   5.794   1.645  0.00  0.00    +0.000 C 
ATOM      2  C   UNL     1       1.233   6.964   1.073  0.00  0.00    +0.000 C 
ATOM      3  C   UNL     1       2.597   7.202   1.628  0.00  0.00    +0.000 C 
ENDROOT
BRANCH   1   8
ATOM      4  C   UNL     1       4.578   3.587  -0.231  0.00  0.00    +0.000 A 
ATOM      5  C   UNL     1       3.729   2.884  -1.099  0.00  0.00    +0.000 A 
ATOM      6  C   UNL     1       2.349   3.099  -1.086  0.00  0.00    +0.000 A 
ATOM      7  C   UNL     1       1.792   4.035  -0.213  0.00  0.00    +0.000 A 
ATOM      8  C   UNL     1       2.591   4.767   0.677  0.00  0.00    +0.000 A 
ATOM      9  C   UNL     1       3.975   4.507   0.652  0.00  0.00    +0.000 A 
BRANCH   4  14
ATOM     10  C   UNL     1       8.311   4.250   0.144  0.00  0.00    +0.000 A 
ATOM     11  C   UNL     1       8.846   2.980  -0.066  0.00  0.00    +0.000 A 
ATOM     12  C   UNL     1       8.001   1.915  -0.369  0.00  0.00    +0.000 A 
ATOM     13  C   UNL     1       6.617   2.114  -0.440  0.00  0.00    +0.000 A 
ATOM     14  C   UNL     1       6.045   3.379  -0.217  0.00  0.00    +0.000 A 
ATOM     15  C   UNL     1       6.926   4.444   0.056  0.00  0.00    +0.000 A 
BRANCH  10  17
ATOM     16  N   UNL     1       9.851   6.248   0.747  0.00  0.00    +0.000 NA
ATOM     17  C   UNL     1       9.168   5.351   0.470  0.00  0.00    +0.000 C 
ENDBRANCH  10  17
ENDBRANCH   4  14
ENDBRANCH   1   8
BRANCH   1  18
ATOM     18  N   UNL     1       1.754   5.277   2.995  0.00  0.00    +0.000 N 
ATOM     19  H   UNL     1       2.520   5.317   3.660  0.00  0.00    +0.000 HD
BRANCH  18  20
ATOM     20  C   UNL     1       0.618   4.582   3.420  0.00  0.00    +0.000 A 
ATOM     21  C   UNL     1       0.598   3.981   4.679  0.00  0.00    +0.000 A 
ATOM     22  N   UNL     1      -0.456   3.319   5.214  0.00  0.00    +0.000 NA
ATOM     23  C   UNL     1      -1.573   3.234   4.452  0.00  0.00    +0.000 A 
ATOM     24  C   UNL     1      -1.663   3.772   3.171  0.00  0.00    +0.000 A 
ATOM     25  C   UNL     1      -0.544   4.451   2.664  0.00  0.00    +0.000 A 
BRANCH  24  26
ATOM     26  C   UNL     1      -2.920   3.636   2.363  0.00  0.00    +0.000 C 
ATOM     27  F   UNL     1      -3.986   4.224   2.968  0.00  0.00    +0.000 F 
ATOM     28  F   UNL     1      -2.830   4.221   1.134  0.00  0.00    +0.000 F 
ENDBRANCH  24  26
BRANCH  23  29
ATOM     29  C   UNL     1      -2.666   2.527   5.066  0.00  0.00    +0.000 C 
ATOM     30  N   UNL     1      -3.567   1.943   5.511  0.00  0.00    +0.000 NA
ENDBRANCH  23  29
ENDBRANCH  18  20
ENDBRANCH   1  18
TORSDOF 7
