REMARK  Name = 
REMARK  4 active torsions:
REMARK  status: ('A' for Active; 'I' for Inactive)
REMARK    1  A    between atoms: C_2  and  C_4
REMARK    2  A    between atoms: C_7  and  O_8
REMARK    3  A    between atoms: O_8  and  C_9
REMARK    4  A    between atoms: C_9  and  C_10
REMARK                            x       y       z     vdW  Elec       q    Type
REMARK                         _______ _______ _______ _____ _____    ______ ____
ROOT
ATOM      1  C   UNL     1       2.871  -0.659   1.267  0.00  0.00    +0.000 A 
ATOM      2  C   UNL     1       2.941  -0.896   2.647  0.00  0.00    +0.000 A 
ATOM      3  C   UNL     1       3.916  -1.758   3.164  0.00  0.00    +0.000 A 
ATOM      4  C   UNL     1       4.792  -2.409   2.299  0.00  0.00    +0.000 A 
ATOM      5  C   UNL     1       4.756  -2.139   0.930  0.00  0.00    +0.000 A 
ATOM      6  C   UNL     1       3.791  -1.274   0.413  0.00  0.00    +0.000 A 
ENDROOT
BRANCH   1   8
ATOM      7  N   UNL     1       1.218   1.128   1.461  0.00  0.00    +0.000 N 
ATOM      8  C   UNL     1       1.809   0.189   0.661  0.00  0.00    +0.000 C 
ATOM      9  O   UNL     1       1.484   0.073  -0.512  0.00  0.00    +0.000 OA
ATOM     10  H   UNL     1       0.555   1.745   1.015  0.00  0.00    +0.000 HD
ATOM     11  H   UNL     1       1.614   1.419   2.345  0.00  0.00    +0.000 HD
ENDBRANCH   1   8
BRANCH   4  12
ATOM     12  O   UNL     1       5.715  -3.339   2.695  0.00  0.00    +0.000 OA
BRANCH  12  13
ATOM     13  C   UNL     1       5.360  -4.233   3.788  0.00  0.00    +0.000 C 
ATOM     14  C   UNL     1       5.077  -5.649   3.288  0.00  0.00    +0.000 C 
ATOM     15  C   UNL     1       3.967  -4.839   3.865  0.00  0.00    +0.000 C 
BRANCH  13  16
ATOM     16  C   UNL     1       6.206  -4.106   5.051  0.00  0.00    +0.000 A 
ATOM     17  C   UNL     1       7.580  -4.373   5.000  0.00  0.00    +0.000 A 
ATOM     18  C   UNL     1       8.349  -4.301   6.159  0.00  0.00    +0.000 A 
ATOM     19  C   UNL     1       7.738  -3.959   7.354  0.00  0.00    +0.000 A 
ATOM     20  C   UNL     1       6.380  -3.697   7.336  0.00  0.00    +0.000 A 
ATOM     21  N   UNL     1       5.610  -3.759   6.223  0.00  0.00    +0.000 NA
ENDBRANCH  13  16
ENDBRANCH  12  13
ENDBRANCH   4  12
TORSDOF 4
