REMARK  Name = 
REMARK  7 active torsions:
REMARK  status: ('A' for Active; 'I' for Inactive)
REMARK    1  A    between atoms: C_1  and  N_2
REMARK    2  A    between atoms: N_2  and  C_3
REMARK    3  A    between atoms: C_3  and  C_4
REMARK    4  A    between atoms: C_7  and  C_8
REMARK    5  A    between atoms: C_8  and  N_9
REMARK    6  A    between atoms: C_10  and  C_12
REMARK    7  A    between atoms: C_19  and  C_21
REMARK                            x       y       z     vdW  Elec       q    Type
REMARK                         _______ _______ _______ _____ _____    ______ ____
ROOT
ATOM      1  C   UNL     1       2.141  -2.146  -1.074  0.00  0.00    +0.000 A 
ATOM      2  C   UNL     1       2.520  -3.489  -0.924  0.00  0.00    +0.000 A 
ATOM      3  C   UNL     1       1.696  -4.516  -1.390  0.00  0.00    +0.000 A 
ATOM      4  C   UNL     1       0.486  -4.217  -2.027  0.00  0.00    +0.000 A 
ATOM      5  C   UNL     1       0.128  -2.874  -2.211  0.00  0.00    +0.000 A 
ATOM      6  C   UNL     1       0.952  -1.846  -1.748  0.00  0.00    +0.000 A 
ENDROOT
BRANCH   1   7
ATOM      7  C   UNL     1       2.955  -1.053  -0.432  0.00  0.00    +0.000 C 
BRANCH   7   9
ATOM      8  C   UNL     1       4.375  -0.835  -2.522  0.00  0.00    +0.000 C 
ATOM      9  N   UNL     1       3.932  -0.318  -1.233  0.00  0.00    +0.000 N 
ATOM     10  C   UNL     1       4.616   0.824  -0.767  0.00  0.00    +0.000 C 
ATOM     11  O   UNL     1       5.475   1.371  -1.456  0.00  0.00    +0.000 OA
BRANCH  10  12
ATOM     12  C   UNL     1       4.330   1.355   0.579  0.00  0.00    +0.000 A 
ATOM     13  C   UNL     1       4.291   0.599   1.739  0.00  0.00    +0.000 A 
ATOM     14  S   UNL     1       3.995   1.515   3.150  0.00  0.00    +0.000 S 
ATOM     15  C   UNL     1       4.080   2.973   2.279  0.00  0.00    +0.000 A 
ATOM     16  N   UNL     1       4.022   4.171   2.918  0.00  0.00    +0.000 NA
ATOM     17  C   UNL     1       4.179   5.190   2.142  0.00  0.00    +0.000 A 
ATOM     18  N   UNL     1       4.348   5.120   0.782  0.00  0.00    +0.000 N 
ATOM     19  C   UNL     1       4.274   3.937   0.077  0.00  0.00    +0.000 A 
ATOM     20  O   UNL     1       4.193   3.936  -1.146  0.00  0.00    +0.000 OA
ATOM     21  C   UNL     1       4.224   2.756   0.921  0.00  0.00    +0.000 A 
ATOM     22  H   UNL     1       4.399   5.959   0.226  0.00  0.00    +0.000 HD
ENDBRANCH  10  12
ENDBRANCH   7   9
ENDBRANCH   1   7
BRANCH   4  23
ATOM     23  C   UNL     1      -0.437  -5.319  -2.471  0.00  0.00    +0.000 C 
BRANCH  23  24
ATOM     24  N   UNL     1      -1.376  -5.685  -1.443  0.00  0.00    +0.000 N 
ATOM     25  C   UNL     1      -2.329  -6.650  -1.669  0.00  0.00    +0.000 C 
ATOM     26  O   UNL     1      -2.473  -7.213  -2.747  0.00  0.00    +0.000 OA
ATOM     27  H   UNL     1      -1.319  -5.299  -0.505  0.00  0.00    +0.000 HD
BRANCH  25  28
ATOM     28  C   UNL     1      -3.154  -6.949  -0.497  0.00  0.00    +0.000 A 
ATOM     29  C   UNL     1      -4.192  -7.859  -0.440  0.00  0.00    +0.000 A 
ATOM     30  N   UNL     1      -4.657  -7.805   0.842  0.00  0.00    +0.000 N 
ATOM     31  C   UNL     1      -3.906  -6.884   1.516  0.00  0.00    +0.000 A 
ATOM     32  N   UNL     1      -2.990  -6.346   0.741  0.00  0.00    +0.000 NA
ATOM     33  H   UNL     1      -5.418  -8.348   1.228  0.00  0.00    +0.000 HD
ENDBRANCH  25  28
ENDBRANCH  23  24
ENDBRANCH   4  23
TORSDOF 6
