REMARK  Name = 
REMARK  8 active torsions:
REMARK  status: ('A' for Active; 'I' for Inactive)
REMARK    1  A    between atoms: C_1  and  C_2
REMARK    2  A    between atoms: C_2  and  N_3
REMARK    3  A    between atoms: C_2  and  C_19
REMARK    4  A    between atoms: N_3  and  C_4
REMARK    5  A    between atoms: C_7  and  C_8
REMARK    6  A    between atoms: C_8  and  O_9
REMARK    7  A    between atoms: C_8  and  C_10
REMARK    8  A    between atoms: C_10  and  C_11
REMARK                            x       y       z     vdW  Elec       q    Type
REMARK                         _______ _______ _______ _____ _____    ______ ____
ROOT
ATOM      1  C   UNL     1       0.357  -0.807  -1.032  0.00  0.00    +0.000 A 
ATOM      2  C   UNL     1       0.979  -1.552  -2.034  0.00  0.00    +0.000 A 
ATOM      3  C   UNL     1       0.226  -2.289  -2.951  0.00  0.00    +0.000 A 
ATOM      4  C   UNL     1      -1.161  -2.262  -2.857  0.00  0.00    +0.000 A 
ATOM      5  N   UNL     1      -1.796  -1.605  -1.857  0.00  0.00    +0.000 NA
ATOM      6  C   UNL     1      -1.031  -0.896  -0.993  0.00  0.00    +0.000 A 
ENDROOT
BRANCH   1   7
ATOM      7  N   UNL     1       1.130  -0.145  -0.106  0.00  0.00    +0.000 N 
ATOM      8  H   UNL     1       2.018   0.255  -0.421  0.00  0.00    +0.000 HD
BRANCH   7  10
ATOM      9  C   UNL     1       1.639  -0.499   2.214  0.00  0.00    +0.000 C 
ATOM     10  C   UNL     1       0.704   0.216   1.234  0.00  0.00    +0.000 C 
BRANCH  10  11
ATOM     11  C   UNL     1       0.539   1.697   1.524  0.00  0.00    +0.000 A 
ATOM     12  C   UNL     1      -0.382   2.164   2.453  0.00  0.00    +0.000 A 
ATOM     13  S   UNL     1      -0.501   3.864   2.499  0.00  0.00    +0.000 S 
ATOM     14  C   UNL     1       0.676   4.038   1.284  0.00  0.00    +0.000 A 
ATOM     15  N   UNL     1       1.013   5.271   0.812  0.00  0.00    +0.000 NA
ATOM     16  C   UNL     1       1.907   5.254  -0.117  0.00  0.00    +0.000 A 
ATOM     17  N   UNL     1       2.518   4.123  -0.596  0.00  0.00    +0.000 N 
ATOM     18  C   UNL     1       2.247   2.865  -0.118  0.00  0.00    +0.000 A 
ATOM     19  O   UNL     1       2.883   1.877  -0.506  0.00  0.00    +0.000 OA
ATOM     20  C   UNL     1       1.195   2.819   0.883  0.00  0.00    +0.000 A 
ATOM     21  H   UNL     1       3.242   4.191  -1.298  0.00  0.00    +0.000 HD
ENDBRANCH  10  11
ENDBRANCH   7  10
ENDBRANCH   1   7
BRANCH   4  22
ATOM     22  C   UNL     1      -2.024  -3.045  -3.832  0.00  0.00    +0.000 C 
BRANCH  22  23
ATOM     23  O   UNL     1      -2.279  -4.340  -3.271  0.00  0.00    +0.000 OA
ATOM     24  H   UNL     1      -2.479  -4.193  -2.329  0.00  0.00    +0.000 HD
ENDBRANCH  22  23
BRANCH  22  25
ATOM     25  C   UNL     1      -3.353  -2.316  -4.079  0.00  0.00    +0.000 C 
BRANCH  25  26
ATOM     26  C   UNL     1      -4.222  -3.031  -5.074  0.00  0.00    +0.000 A 
ATOM     27  C   UNL     1      -5.129  -4.002  -4.653  0.00  0.00    +0.000 A 
ATOM     28  N   UNL     1      -5.961  -4.648  -5.499  0.00  0.00    +0.000 NA
ATOM     29  C   UNL     1      -5.843  -4.295  -6.799  0.00  0.00    +0.000 A 
ATOM     30  C   UNL     1      -4.932  -3.345  -7.230  0.00  0.00    +0.000 A 
ATOM     31  N   UNL     1      -4.104  -2.691  -6.382  0.00  0.00    +0.000 NA
ENDBRANCH  25  26
ENDBRANCH  22  25
ENDBRANCH   4  22
TORSDOF 7
