REMARK  Name = 
REMARK  6 active torsions:
REMARK  status: ('A' for Active; 'I' for Inactive)
REMARK    1  A    between atoms: C_1  and  C_2
REMARK    2  A    between atoms: C_2  and  N_3
REMARK    3  A    between atoms: C_2  and  C_16
REMARK    4  A    between atoms: C_4  and  C_6
REMARK    5  A    between atoms: C_19  and  O_20
REMARK    6  A    between atoms: O_20  and  C_21
REMARK                            x       y       z     vdW  Elec       q    Type
REMARK                         _______ _______ _______ _____ _____    ______ ____
ROOT
ATOM      1  C   UNL     1       1.009  -0.113   0.008  0.00  0.00    +0.000 C 
ATOM      2  C   UNL     1       2.538  -0.075   0.004  0.00  0.00    +0.000 C 
ENDROOT
BRANCH   2   3
ATOM      3  C   UNL     1       3.067   1.237  -0.545  0.00  0.00    +0.000 A 
ATOM      4  C   UNL     1       3.838   2.060   0.291  0.00  0.00    +0.000 A 
ATOM      5  C   UNL     1       4.304   3.299  -0.151  0.00  0.00    +0.000 A 
ATOM      6  C   UNL     1       4.052   3.721  -1.458  0.00  0.00    +0.000 A 
ATOM      7  C   UNL     1       3.285   2.916  -2.302  0.00  0.00    +0.000 A 
ATOM      8  C   UNL     1       2.799   1.681  -1.851  0.00  0.00    +0.000 A 
BRANCH   6   9
ATOM      9  O   UNL     1       4.447   4.942  -1.959  0.00  0.00    +0.000 OA
BRANCH   9  10
ATOM     10  C   UNL     1       5.665   5.464  -1.544  0.00  0.00    +0.000 A 
ATOM     11  N   UNL     1       6.669   4.629  -1.209  0.00  0.00    +0.000 NA
ATOM     12  C   UNL     1       7.810   5.204  -0.794  0.00  0.00    +0.000 A 
ATOM     13  C   UNL     1       7.993   6.564  -0.737  0.00  0.00    +0.000 A 
ATOM     14  C   UNL     1       6.921   7.325  -1.139  0.00  0.00    +0.000 A 
ATOM     15  N   UNL     1       5.748   6.805  -1.548  0.00  0.00    +0.000 NA
ENDBRANCH   9  10
ENDBRANCH   6   9
ENDBRANCH   2   3
BRANCH   2  16
ATOM     16  N   UNL     1       3.086  -1.207  -0.716  0.00  0.00    +0.000 N 
ATOM     17  C   UNL     1       3.246  -2.435  -0.126  0.00  0.00    +0.000 C 
ATOM     18  O   UNL     1       2.971  -2.635   1.055  0.00  0.00    +0.000 OA
ATOM     19  H   UNL     1       3.397  -1.053  -1.669  0.00  0.00    +0.000 HD
BRANCH  17  20
ATOM     20  C   UNL     1       3.711  -3.525  -0.990  0.00  0.00    +0.000 A 
ATOM     21  C   UNL     1       3.462  -4.842  -0.628  0.00  0.00    +0.000 A 
ATOM     22  S   UNL     1       4.049  -5.984  -1.749  0.00  0.00    +0.000 S 
ATOM     23  C   UNL     1       4.707  -4.759  -2.733  0.00  0.00    +0.000 A 
ATOM     24  N   UNL     1       5.396  -5.065  -3.864  0.00  0.00    +0.000 NA
ATOM     25  C   UNL     1       5.882  -4.042  -4.484  0.00  0.00    +0.000 A 
ATOM     26  N   UNL     1       5.728  -2.742  -4.084  0.00  0.00    +0.000 N 
ATOM     27  C   UNL     1       4.962  -2.379  -3.005  0.00  0.00    +0.000 A 
ATOM     28  O   UNL     1       4.708  -1.206  -2.772  0.00  0.00    +0.000 OA
ATOM     29  C   UNL     1       4.447  -3.496  -2.232  0.00  0.00    +0.000 A 
ATOM     30  H   UNL     1       6.102  -1.983  -4.635  0.00  0.00    +0.000 HD
ENDBRANCH  17  20
ENDBRANCH   2  16
TORSDOF 5
