REMARK  Name = 
REMARK  9 active torsions:
REMARK  status: ('A' for Active; 'I' for Inactive)
REMARK    1  A    between atoms: C_1  and  O_2
REMARK    2  A    between atoms: O_2  and  C_3
REMARK    3  A    between atoms: C_10  and  C_11
REMARK    4  A    between atoms: N_13  and  C_14
REMARK    5  A    between atoms: C_14  and  C_15
REMARK    6  A    between atoms: C_18  and  C_19
REMARK    7  A    between atoms: C_19  and  O_20
REMARK    8  A    between atoms: O_20  and  C_21
REMARK    9  A    between atoms: C_21  and  C_22
REMARK                            x       y       z     vdW  Elec       q    Type
REMARK                         _______ _______ _______ _____ _____    ______ ____
ROOT
ATOM      1  C   UNL     1       2.983   0.275   3.339  0.00  0.00    +0.000 C 
ENDROOT
BRANCH   1   2
ATOM      2  C   UNL     1       1.908   1.320   3.176  0.00  0.00    +0.000 A 
ATOM      3  C   UNL     1       0.557   0.957   3.089  0.00  0.00    +0.000 A 
ATOM      4  C   UNL     1      -0.434   1.931   2.919  0.00  0.00    +0.000 A 
ATOM      5  C   UNL     1      -0.096   3.289   2.825  0.00  0.00    +0.000 A 
ATOM      6  C   UNL     1       1.256   3.648   2.898  0.00  0.00    +0.000 A 
ATOM      7  C   UNL     1       2.247   2.675   3.066  0.00  0.00    +0.000 A 
BRANCH   5   8
ATOM      8  C   UNL     1      -1.162   4.340   2.624  0.00  0.00    +0.000 C 
BRANCH   8   9
ATOM      9  O   UNL     1      -2.077   4.302   3.714  0.00  0.00    +0.000 OA
BRANCH   9  10
ATOM     10  C   UNL     1      -3.082   5.310   3.601  0.00  0.00    +0.000 C 
BRANCH  10  11
ATOM     11  C   UNL     1      -4.025   5.248   4.779  0.00  0.00    +0.000 A 
ATOM     12  C   UNL     1      -3.575   4.854   6.048  0.00  0.00    +0.000 A 
ATOM     13  C   UNL     1      -4.443   4.840   7.141  0.00  0.00    +0.000 A 
ATOM     14  C   UNL     1      -5.770   5.233   6.984  0.00  0.00    +0.000 A 
ATOM     15  C   UNL     1      -6.229   5.639   5.733  0.00  0.00    +0.000 A 
ATOM     16  C   UNL     1      -5.362   5.652   4.637  0.00  0.00    +0.000 A 
ENDBRANCH  10  11
ENDBRANCH   9  10
ENDBRANCH   8   9
ENDBRANCH   5   8
ENDBRANCH   1   2
BRANCH   1  19
ATOM     17  C   UNL     1       4.428  -1.142   1.933  0.00  0.00    +0.000 C 
ATOM     18  O   UNL     1       4.930  -1.667   2.923  0.00  0.00    +0.000 OA
ATOM     19  N   UNL     1       3.466  -0.175   2.055  0.00  0.00    +0.000 N 
ATOM     20  H   UNL     1       3.101   0.286   1.234  0.00  0.00    +0.000 HD
BRANCH  17  28
ATOM     21  C   UNL     1       3.378  -0.208  -1.213  0.00  0.00    +0.000 A 
ATOM     22  N   UNL     1       3.174  -0.023  -2.532  0.00  0.00    +0.000 NA
ATOM     23  C   UNL     1       3.922  -0.720  -3.389  0.00  0.00    +0.000 A 
ATOM     24  N   UNL     1       4.872  -1.603  -3.085  0.00  0.00    +0.000 NA
ATOM     25  C   UNL     1       5.050  -1.749  -1.762  0.00  0.00    +0.000 A 
ATOM     26  S   UNL     1       6.222  -2.837  -1.191  0.00  0.00    +0.000 S 
ATOM     27  C   UNL     1       5.848  -2.470   0.425  0.00  0.00    +0.000 A 
ATOM     28  C   UNL     1       4.839  -1.524   0.570  0.00  0.00    +0.000 A 
ATOM     29  C   UNL     1       4.362  -1.096  -0.744  0.00  0.00    +0.000 A 
BRANCH  21  31
ATOM     30  C   UNL     1       1.356   0.909  -0.881  0.00  0.00    +0.000 C 
ATOM     31  O   UNL     1       2.618   0.534  -0.333  0.00  0.00    +0.000 OA
ENDBRANCH  21  31
ENDBRANCH  17  28
ENDBRANCH   1  19
TORSDOF 8
