REMARK  Name = 
REMARK  7 active torsions:
REMARK  status: ('A' for Active; 'I' for Inactive)
REMARK    1  A    between atoms: N_1  and  C_2
REMARK    2  A    between atoms: C_2  and  C_3
REMARK    3  A    between atoms: C_7  and  C_8
REMARK    4  A    between atoms: C_8  and  C_9
REMARK    5  A    between atoms: C_9  and  O_10
REMARK    6  A    between atoms: O_10  and  C_11
REMARK    7  A    between atoms: C_14  and  C_15
REMARK                            x       y       z     vdW  Elec       q    Type
REMARK                         _______ _______ _______ _____ _____    ______ ____
ROOT
ATOM      1  C   UNL     1       2.632  -5.624   2.651  0.00  0.00    +0.000 C 
ENDROOT
BRANCH   1   2
ATOM      2  C   UNL     1       2.621  -4.771   1.381  0.00  0.00    +0.000 C 
BRANCH   2   7
ATOM      3  C   UNL     1       2.363  -1.155   2.587  0.00  0.00    +0.000 A 
ATOM      4  C   UNL     1       3.703  -0.751   2.514  0.00  0.00    +0.000 A 
ATOM      5  C   UNL     1       4.678  -1.626   2.037  0.00  0.00    +0.000 A 
ATOM      6  C   UNL     1       4.328  -2.917   1.638  0.00  0.00    +0.000 A 
ATOM      7  C   UNL     1       2.995  -3.342   1.702  0.00  0.00    +0.000 A 
ATOM      8  C   UNL     1       2.020  -2.450   2.172  0.00  0.00    +0.000 A 
BRANCH   3   9
ATOM      9  C   UNL     1       1.321  -0.251   3.193  0.00  0.00    +0.000 C 
BRANCH   9  10
ATOM     10  N   UNL     1       1.139  -0.558   4.606  0.00  0.00    +0.000 NA
ATOM     11  H   UNL     1       0.561   0.159   5.037  0.00  0.00    +0.000 HD
ATOM     12  H   UNL     1       2.046  -0.519   5.070  0.00  0.00    +0.000 HD
ENDBRANCH   9  10
ENDBRANCH   3   9
ENDBRANCH   2   7
ENDBRANCH   1   2
BRANCH   1  13
ATOM     13  O   UNL     1       2.259  -6.978   2.352  0.00  0.00    +0.000 OA
BRANCH  13  14
ATOM     14  C   UNL     1       2.285  -7.773   3.483  0.00  0.00    +0.000 A 
ATOM     15  C   UNL     1       1.931  -9.113   3.369  0.00  0.00    +0.000 A 
ATOM     16  N   UNL     1       1.937  -9.979   4.422  0.00  0.00    +0.000 NA
ATOM     17  C   UNL     1       2.320  -9.420   5.608  0.00  0.00    +0.000 A 
ATOM     18  C   UNL     1       2.670  -8.085   5.724  0.00  0.00    +0.000 A 
ATOM     19  N   UNL     1       2.661  -7.236   4.667  0.00  0.00    +0.000 NA
BRANCH  17  20
ATOM     20  C   UNL     1       2.371 -10.285   6.819  0.00  0.00    +0.000 C 
ATOM     21  N   UNL     1       2.017 -11.594   6.644  0.00  0.00    +0.000 N 
ATOM     22  O   UNL     1       2.713  -9.853   7.914  0.00  0.00    +0.000 OA
ATOM     23  H   UNL     1       1.740 -11.933   5.730  0.00  0.00    +0.000 HD
ATOM     24  H   UNL     1       2.042 -12.219   7.437  0.00  0.00    +0.000 HD
ENDBRANCH  17  20
ENDBRANCH  13  14
ENDBRANCH   1  13
TORSDOF 7
