REMARK  Name = 
REMARK  8 active torsions:
REMARK  status: ('A' for Active; 'I' for Inactive)
REMARK    1  A    between atoms: C_1  and  C_2
REMARK    2  A    between atoms: C_3  and  O_4
REMARK    3  A    between atoms: O_4  and  C_5
REMARK    4  A    between atoms: C_9  and  C_10
REMARK    5  A    between atoms: C_11  and  C_12
REMARK    6  A    between atoms: C_12  and  N_13
REMARK    7  A    between atoms: C_17  and  C_18
REMARK    8  A    between atoms: C_24  and  C_25
REMARK                            x       y       z     vdW  Elec       q    Type
REMARK                         _______ _______ _______ _____ _____    ______ ____
ROOT
ATOM      1  C   UNL     1       2.830  -3.160  -0.258  0.00  0.00    +0.000 A 
ATOM      2  C   UNL     1       1.810  -2.819  -1.145  0.00  0.00    +0.000 A 
ATOM      3  C   UNL     1       0.948  -3.802  -1.635  0.00  0.00    +0.000 A 
ATOM      4  C   UNL     1       1.130  -5.137  -1.269  0.00  0.00    +0.000 A 
ATOM      5  C   UNL     1       2.193  -5.493  -0.435  0.00  0.00    +0.000 A 
ATOM      6  C   UNL     1       3.042  -4.500   0.071  0.00  0.00    +0.000 A 
ENDROOT
BRANCH   5   7
ATOM      7  C   UNL     1       2.467  -6.896  -0.128  0.00  0.00    +0.000 C 
ATOM      8  C   UNL     1       3.254  -7.632  -0.929  0.00  0.00    +0.000 C 
BRANCH   8   9
ATOM      9  C   UNL     1       3.689  -9.034  -0.628  0.00  0.00    +0.000 C 
BRANCH   9  10
ATOM     10  N   UNL     1       2.756  -9.948  -1.268  0.00  0.00    +0.000 N 
ATOM     11  C   UNL     1       3.078 -11.301  -1.073  0.00  0.00    +0.000 A 
ATOM     12  C   UNL     1       2.228 -12.266  -1.611  0.00  0.00    +0.000 A 
ATOM     13  C   UNL     1       2.506 -13.620  -1.411  0.00  0.00    +0.000 A 
ATOM     14  C   UNL     1       3.628 -13.982  -0.674  0.00  0.00    +0.000 A 
ATOM     15  C   UNL     1       4.419 -12.964  -0.167  0.00  0.00    +0.000 A 
ATOM     16  N   UNL     1       4.163 -11.645  -0.348  0.00  0.00    +0.000 NA
ATOM     17  H   UNL     1       2.652  -9.761  -2.258  0.00  0.00    +0.000 HD
BRANCH  14  18
ATOM     18  C   UNL     1       3.971 -15.348  -0.443  0.00  0.00    +0.000 C 
ATOM     19  N   UNL     1       4.252 -16.455  -0.251  0.00  0.00    +0.000 NA
ENDBRANCH  14  18
ENDBRANCH   9  10
ENDBRANCH   8   9
ENDBRANCH   5   7
BRANCH   1  20
ATOM     20  O   UNL     1       3.586  -2.119   0.225  0.00  0.00    +0.000 OA
BRANCH  20  23
ATOM     21  C   UNL     1       2.952  -3.614   3.461  0.00  0.00    +0.000 C 
ATOM     22  C   UNL     1       3.220  -2.305   2.752  0.00  0.00    +0.000 C 
ATOM     23  C   UNL     1       4.177  -2.276   1.531  0.00  0.00    +0.000 C 
ATOM     24  O   UNL     1       4.766  -1.035   2.061  0.00  0.00    +0.000 OA
ATOM     25  C   UNL     1       4.313  -1.429   3.392  0.00  0.00    +0.000 C 
ATOM     26  C   UNL     1       3.849  -0.255   4.222  0.00  0.00    +0.000 C 
ENDBRANCH  20  23
ENDBRANCH   1  20
TORSDOF 6
