REMARK  Name = 
REMARK  5 active torsions:
REMARK  status: ('A' for Active; 'I' for Inactive)
REMARK    1  A    between atoms: N_1  and  C_2
REMARK    2  A    between atoms: C_2  and  C_3
REMARK    3  A    between atoms: C_3  and  C_4
REMARK    4  A    between atoms: C_7  and  C_8
REMARK    5  A    between atoms: C_8  and  C_9
REMARK                            x       y       z     vdW  Elec       q    Type
REMARK                         _______ _______ _______ _____ _____    ______ ____
ROOT
ATOM      1  C   UNL     1       8.765  -0.906  -1.173  0.00  0.00    +0.000 C 
ENDROOT
BRANCH   1   2
ATOM      2  C   UNL     1       9.270  -0.768   0.224  0.00  0.00    +0.000 A 
ATOM      3  N   UNL     1       9.445  -1.854   0.993  0.00  0.00    +0.000 NA
ATOM      4  N   UNL     1       9.990  -1.369   2.124  0.00  0.00    +0.000 N 
ATOM      5  C   UNL     1      10.214  -0.021   2.104  0.00  0.00    +0.000 A 
ATOM      6  C   UNL     1      10.802   0.839   3.033  0.00  0.00    +0.000 A 
ATOM      7 CL   UNL     1      11.414   0.257   4.527  0.00  0.00    +0.000 Cl
ATOM      8  C   UNL     1      10.894   2.194   2.703  0.00  0.00    +0.000 A 
ATOM      9  C   UNL     1      10.406   2.663   1.483  0.00  0.00    +0.000 A 
ATOM     10  C   UNL     1       9.822   1.785   0.559  0.00  0.00    +0.000 A 
ATOM     11  C   UNL     1       9.730   0.416   0.876  0.00  0.00    +0.000 A 
ATOM     12  H   UNL     1      10.212  -2.016   2.870  0.00  0.00    +0.000 HD
ENDBRANCH   1   2
BRANCH   1  16
ATOM     13  C   UNL     1       4.497  -0.889  -1.092  0.00  0.00    +0.000 A 
ATOM     14  C   UNL     1       5.158   0.326  -1.252  0.00  0.00    +0.000 A 
ATOM     15  C   UNL     1       6.552   0.340  -1.272  0.00  0.00    +0.000 A 
ATOM     16  C   UNL     1       7.262  -0.855  -1.125  0.00  0.00    +0.000 A 
ATOM     17  C   UNL     1       6.515  -2.017  -0.961  0.00  0.00    +0.000 A 
ATOM     18  N   UNL     1       5.161  -2.059  -0.944  0.00  0.00    +0.000 NA
BRANCH  13  19
ATOM     19  C   UNL     1       2.991  -0.946  -1.049  0.00  0.00    +0.000 C 
BRANCH  19  20
ATOM     20  C   UNL     1       2.471  -0.786   0.381  0.00  0.00    +0.000 C 
BRANCH  20  21
ATOM     21  N   UNL     1       1.006  -0.829   0.423  0.00  0.00    +0.000 NA
ATOM     22  H   UNL     1       0.701  -0.758   1.394  0.00  0.00    +0.000 HD
ATOM     23  H   UNL     1       0.692  -1.745   0.101  0.00  0.00    +0.000 HD
ENDBRANCH  20  21
ENDBRANCH  19  20
ENDBRANCH  13  19
ENDBRANCH   1  16
TORSDOF 5
