REMARK  Name = 
REMARK  6 active torsions:
REMARK  status: ('A' for Active; 'I' for Inactive)
REMARK    1  A    between atoms: C_2  and  C_4
REMARK    2  A    between atoms: C_7  and  O_8
REMARK    3  A    between atoms: O_8  and  C_9
REMARK    4  A    between atoms: C_9  and  C_10
REMARK    5  A    between atoms: C_10  and  C_13
REMARK    6  A    between atoms: C_17  and  C_18
REMARK                            x       y       z     vdW  Elec       q    Type
REMARK                         _______ _______ _______ _____ _____    ______ ____
ROOT
ATOM      1  C   UNL     1       5.804   7.143  -0.592  0.00  0.00    +0.000 C 
ATOM      2  F   UNL     1       7.097   6.841  -0.269  0.00  0.00    +0.000 F 
ATOM      3  F   UNL     1       5.787   7.296  -1.947  0.00  0.00    +0.000 F 
ENDROOT
BRANCH   1   4
ATOM      4  C   UNL     1       5.325   8.395   0.129  0.00  0.00    +0.000 A 
ATOM      5  C   UNL     1       4.413   9.288  -0.452  0.00  0.00    +0.000 A 
ATOM      6  C   UNL     1       3.947  10.393   0.266  0.00  0.00    +0.000 A 
ATOM      7  C   UNL     1       4.342  10.585   1.589  0.00  0.00    +0.000 A 
ATOM      8  C   UNL     1       5.207   9.680   2.217  0.00  0.00    +0.000 A 
ATOM      9  C   UNL     1       5.737   8.624   1.449  0.00  0.00    +0.000 A 
BRANCH   8  10
ATOM     10  C   UNL     1       5.493   9.782   3.658  0.00  0.00    +0.000 A 
ATOM     11  C   UNL     1       6.736   9.385   4.181  0.00  0.00    +0.000 A 
ATOM     12  C   UNL     1       7.004   9.455   5.547  0.00  0.00    +0.000 A 
ATOM     13  C   UNL     1       6.029   9.923   6.418  0.00  0.00    +0.000 A 
ATOM     14  C   UNL     1       4.794  10.304   5.921  0.00  0.00    +0.000 A 
ATOM     15  F   UNL     1       3.851  10.753   6.761  0.00  0.00    +0.000 F 
ATOM     16  C   UNL     1       4.512  10.230   4.562  0.00  0.00    +0.000 A 
ENDBRANCH   8  10
ENDBRANCH   1   4
BRANCH   1  17
ATOM     17  C   UNL     1       4.918   5.941  -0.212  0.00  0.00    +0.000 C 
BRANCH  17  18
ATOM     18  O   UNL     1       5.311   4.752  -0.919  0.00  0.00    +0.000 OA
BRANCH  18  22
ATOM     19  C   UNL     1       3.171   1.216  -0.339  0.00  0.00    +0.000 A 
ATOM     20  C   UNL     1       2.797   2.350   0.387  0.00  0.00    +0.000 A 
ATOM     21  C   UNL     1       3.496   3.549   0.225  0.00  0.00    +0.000 A 
ATOM     22  C   UNL     1       4.573   3.627  -0.663  0.00  0.00    +0.000 A 
ATOM     23  C   UNL     1       4.960   2.483  -1.367  0.00  0.00    +0.000 A 
ATOM     24  C   UNL     1       4.267   1.278  -1.205  0.00  0.00    +0.000 A 
BRANCH  19  26
ATOM     25  N   UNL     1       1.114   0.006   0.128  0.00  0.00    +0.000 N 
ATOM     26  C   UNL     1       2.440  -0.069  -0.191  0.00  0.00    +0.000 C 
ATOM     27  O   UNL     1       2.990  -1.148  -0.367  0.00  0.00    +0.000 OA
ATOM     28  H   UNL     1       0.603  -0.862   0.141  0.00  0.00    +0.000 HD
ATOM     29  H   UNL     1       0.578   0.865   0.032  0.00  0.00    +0.000 HD
ENDBRANCH  19  26
ENDBRANCH  18  22
ENDBRANCH  17  18
ENDBRANCH   1  17
TORSDOF 6
