REMARK  Name = 
REMARK  9 active torsions:
REMARK  status: ('A' for Active; 'I' for Inactive)
REMARK    1  A    between atoms: C_1  and  O_2
REMARK    2  A    between atoms: O_2  and  C_3
REMARK    3  A    between atoms: C_10  and  C_11
REMARK    4  A    between atoms: N_13  and  C_14
REMARK    5  A    between atoms: C_14  and  C_15
REMARK    6  A    between atoms: C_18  and  O_19
REMARK    7  A    between atoms: O_19  and  C_20
REMARK    8  A    between atoms: C_20  and  C_21
REMARK    9  A    between atoms: C_21  and  C_22
REMARK                            x       y       z     vdW  Elec       q    Type
REMARK                         _______ _______ _______ _____ _____    ______ ____
ROOT
ATOM      1  C   UNL     1       2.915  -1.941   2.630  0.00  0.00    +0.000 C 
ENDROOT
BRANCH   1   2
ATOM      2  C   UNL     1       1.796  -1.072   3.147  0.00  0.00    +0.000 A 
ATOM      3  C   UNL     1       0.623  -1.646   3.658  0.00  0.00    +0.000 A 
ATOM      4  C   UNL     1      -0.402  -0.841   4.169  0.00  0.00    +0.000 A 
ATOM      5  C   UNL     1      -0.263   0.546   4.176  0.00  0.00    +0.000 A 
ATOM      6  C   UNL     1       0.867   1.126   3.602  0.00  0.00    +0.000 A 
ATOM      7  C   UNL     1       1.894   0.325   3.094  0.00  0.00    +0.000 A 
BRANCH   5   8
ATOM      8  O   UNL     1      -1.170   1.424   4.701  0.00  0.00    +0.000 OA
BRANCH   8   9
ATOM      9  C   UNL     1      -1.960   0.921   5.784  0.00  0.00    +0.000 C 
BRANCH   9  10
ATOM     10  C   UNL     1      -2.349   2.106   6.668  0.00  0.00    +0.000 C 
BRANCH  10  11
ATOM     11  C   UNL     1      -3.173   1.714   7.913  0.00  0.00    +0.000 C 
ATOM     12  C   UNL     1      -4.510   1.033   7.582  0.00  0.00    +0.000 C 
ATOM     13  C   UNL     1      -5.492   2.007   6.932  0.00  0.00    +0.000 C 
ATOM     14  N   UNL     1      -5.747   3.164   7.792  0.00  0.00    +0.000 NA
ATOM     15  C   UNL     1      -4.510   3.871   8.134  0.00  0.00    +0.000 C 
ATOM     16  C   UNL     1      -3.471   2.950   8.780  0.00  0.00    +0.000 C 
ATOM     17  H   UNL     1      -6.188   2.842   8.654  0.00  0.00    +0.000 HD
ENDBRANCH  10  11
ENDBRANCH   9  10
ENDBRANCH   8   9
ENDBRANCH   5   8
ENDBRANCH   1   2
BRANCH   1  20
ATOM     18  C   UNL     1       3.601  -3.042   0.539  0.00  0.00    +0.000 C 
ATOM     19  O   UNL     1       4.572  -3.557   1.086  0.00  0.00    +0.000 OA
ATOM     20  N   UNL     1       2.741  -2.235   1.232  0.00  0.00    +0.000 N 
ATOM     21  H   UNL     1       1.981  -1.773   0.753  0.00  0.00    +0.000 HD
BRANCH  18  29
ATOM     22  C   UNL     1       1.051  -2.033  -1.540  0.00  0.00    +0.000 A 
ATOM     23  N   UNL     1       0.192  -1.794  -2.549  0.00  0.00    +0.000 NA
ATOM     24  C   UNL     1       0.457  -2.337  -3.740  0.00  0.00    +0.000 A 
ATOM     25  N   UNL     1       1.496  -3.105  -4.057  0.00  0.00    +0.000 NA
ATOM     26  C   UNL     1       2.331  -3.312  -3.025  0.00  0.00    +0.000 A 
ATOM     27  S   UNL     1       3.715  -4.269  -3.247  0.00  0.00    +0.000 S 
ATOM     28  C   UNL     1       4.180  -4.061  -1.626  0.00  0.00    +0.000 A 
ATOM     29  C   UNL     1       3.306  -3.270  -0.886  0.00  0.00    +0.000 A 
ATOM     30  C   UNL     1       2.202  -2.818  -1.729  0.00  0.00    +0.000 A 
BRANCH  22  32
ATOM     31  C   UNL     1      -0.590  -1.154  -0.124  0.00  0.00    +0.000 C 
ATOM     32  O   UNL     1       0.793  -1.443  -0.320  0.00  0.00    +0.000 OA
ENDBRANCH  22  32
ENDBRANCH  18  29
ENDBRANCH   1  20
TORSDOF 8
