REMARK  Name = 
REMARK  5 active torsions:
REMARK  status: ('A' for Active; 'I' for Inactive)
REMARK    1  A    between atoms: C_2  and  C_4
REMARK    2  A    between atoms: C_7  and  O_8
REMARK    3  A    between atoms: O_8  and  C_9
REMARK    4  A    between atoms: C_9  and  C_10
REMARK    5  A    between atoms: C_15  and  C_16
REMARK                            x       y       z     vdW  Elec       q    Type
REMARK                         _______ _______ _______ _____ _____    ______ ____
ROOT
ATOM      1  C   UNL     1       5.942   6.984   0.386  0.00  0.00    +0.000 A 
ATOM      2  C   UNL     1       5.470   8.297   0.512  0.00  0.00    +0.000 A 
ATOM      3  C   UNL     1       6.333   9.370   0.323  0.00  0.00    +0.000 A 
ATOM      4  C   UNL     1       7.672   9.140   0.011  0.00  0.00    +0.000 A 
ATOM      5  F   UNL     1       8.449  10.215  -0.192  0.00  0.00    +0.000 F 
ATOM      6  C   UNL     1       8.203   7.843  -0.100  0.00  0.00    +0.000 A 
ATOM      7  C   UNL     1       7.305   6.774   0.110  0.00  0.00    +0.000 A 
ENDROOT
BRANCH   6   8
ATOM      8  C   UNL     1       9.627   7.593  -0.421  0.00  0.00    +0.000 A 
ATOM      9  C   UNL     1      10.656   8.451  -0.010  0.00  0.00    +0.000 A 
ATOM     10  N   UNL     1      11.980   8.275  -0.272  0.00  0.00    +0.000 NA
ATOM     11  C   UNL     1      12.310   7.178  -0.985  0.00  0.00    +0.000 A 
ATOM     12  C   UNL     1      11.382   6.262  -1.436  0.00  0.00    +0.000 A 
ATOM     13  F   UNL     1      11.766   5.185  -2.131  0.00  0.00    +0.000 F 
ATOM     14  C   UNL     1      10.036   6.469  -1.158  0.00  0.00    +0.000 A 
ENDBRANCH   6   8
BRANCH   1  15
ATOM     15  C   UNL     1       4.996   5.828   0.631  0.00  0.00    +0.000 C 
BRANCH  15  16
ATOM     16  O   UNL     1       5.352   4.695  -0.171  0.00  0.00    +0.000 OA
BRANCH  16  20
ATOM     17  C   UNL     1       2.833   1.487   0.409  0.00  0.00    +0.000 A 
ATOM     18  C   UNL     1       3.899   1.374  -0.485  0.00  0.00    +0.000 A 
ATOM     19  C   UNL     1       4.746   2.469  -0.676  0.00  0.00    +0.000 A 
ATOM     20  C   UNL     1       4.496   3.632   0.038  0.00  0.00    +0.000 A 
ATOM     21  N   UNL     1       3.470   3.768   0.904  0.00  0.00    +0.000 NA
ATOM     22  C   UNL     1       2.653   2.699   1.063  0.00  0.00    +0.000 A 
BRANCH  17  24
ATOM     23  N   UNL     1       2.310  -0.884   0.511  0.00  0.00    +0.000 N 
ATOM     24  C   UNL     1       1.872   0.399   0.681  0.00  0.00    +0.000 C 
ATOM     25  O   UNL     1       0.741   0.633   1.083  0.00  0.00    +0.000 OA
ATOM     26  H   UNL     1       1.676  -1.614   0.813  0.00  0.00    +0.000 HD
ATOM     27  H   UNL     1       3.289  -1.122   0.434  0.00  0.00    +0.000 HD
ENDBRANCH  17  24
ENDBRANCH  16  20
ENDBRANCH  15  16
ENDBRANCH   1  15
TORSDOF 5
