REMARK  Name = 
REMARK  7 active torsions:
REMARK  status: ('A' for Active; 'I' for Inactive)
REMARK    1  A    between atoms: C_2  and  C_3
REMARK    2  A    between atoms: C_6  and  N_7
REMARK    3  A    between atoms: N_7  and  C_8
REMARK    4  A    between atoms: C_8  and  C_9
REMARK    5  A    between atoms: C_13  and  C_14
REMARK    6  A    between atoms: C_18  and  O_19
REMARK    7  A    between atoms: O_19  and  C_20
REMARK                            x       y       z     vdW  Elec       q    Type
REMARK                         _______ _______ _______ _____ _____    ______ ____
ROOT
ATOM      1  C   UNL     1       9.864   0.013   0.655  0.00  0.00    +0.000 A 
ATOM      2  C   UNL     1      10.421  -0.250   1.914  0.00  0.00    +0.000 A 
ATOM      3  C   UNL     1      11.231   0.690   2.552  0.00  0.00    +0.000 A 
ATOM      4  C   UNL     1      11.482   1.925   1.951  0.00  0.00    +0.000 A 
ATOM      5  C   UNL     1      10.950   2.235   0.691  0.00  0.00    +0.000 A 
ATOM      6  C   UNL     1      10.188   1.242   0.051  0.00  0.00    +0.000 A 
ENDROOT
BRANCH   5   7
ATOM      7  C   UNL     1      11.082   3.572   0.083  0.00  0.00    +0.000 A 
ATOM      8  C   UNL     1      10.980   4.742   0.839  0.00  0.00    +0.000 A 
ATOM      9  N   UNL     1      11.020   6.000   0.334  0.00  0.00    +0.000 NA
ATOM     10  C   UNL     1      11.153   6.114  -1.007  0.00  0.00    +0.000 A 
ATOM     11  C   UNL     1      11.227   5.028  -1.866  0.00  0.00    +0.000 A 
ATOM     12  C   UNL     1      11.223   3.753  -1.300  0.00  0.00    +0.000 A 
BRANCH  11  13
ATOM     13  O   UNL     1      11.313   5.063  -3.226  0.00  0.00    +0.000 OA
BRANCH  13  14
ATOM     14  C   UNL     1      10.782   6.225  -3.841  0.00  0.00    +0.000 C 
ATOM     15  F   UNL     1      11.722   7.199  -3.810  0.00  0.00    +0.000 F 
ATOM     16  F   UNL     1      10.566   5.925  -5.146  0.00  0.00    +0.000 F 
ENDBRANCH  13  14
ENDBRANCH  11  13
ENDBRANCH   5   7
BRANCH   1  17
ATOM     17  C   UNL     1       8.859  -0.922  -0.005  0.00  0.00    +0.000 C 
ATOM     18  C   UNL     1       7.551  -1.195   0.735  0.00  0.00    +0.000 C 
ATOM     19  C   UNL     1       7.550  -0.288  -0.447  0.00  0.00    +0.000 C 
BRANCH  17  20
ATOM     20  N   UNL     1       9.441  -2.129  -0.609  0.00  0.00    +0.000 N 
ATOM     21  H   UNL     1       9.921  -2.745   0.043  0.00  0.00    +0.000 HD
BRANCH  20  25
ATOM     22  C   UNL     1      10.572  -2.847  -4.515  0.00  0.00    +0.000 A 
ATOM     23  N   UNL     1      10.134  -1.601  -4.243  0.00  0.00    +0.000 NA
ATOM     24  C   UNL     1       9.780  -1.370  -2.955  0.00  0.00    +0.000 A 
ATOM     25  C   UNL     1       9.870  -2.291  -1.930  0.00  0.00    +0.000 A 
ATOM     26  C   UNL     1      10.319  -3.536  -2.362  0.00  0.00    +0.000 A 
ATOM     27  N   UNL     1      10.683  -3.845  -3.624  0.00  0.00    +0.000 NA
BRANCH  22  29
ATOM     28  N   UNL     1      11.234  -3.391  -6.973  0.00  0.00    +0.000 NA
ATOM     29  C   UNL     1      10.940  -3.143  -5.878  0.00  0.00    +0.000 C 
ENDBRANCH  22  29
ENDBRANCH  20  25
ENDBRANCH  17  20
ENDBRANCH   1  17
TORSDOF 7
