REMARK  Name = 
REMARK  5 active torsions:
REMARK  status: ('A' for Active; 'I' for Inactive)
REMARK    1  A    between atoms: C_2  and  C_3
REMARK    2  A    between atoms: C_6  and  C_7
REMARK    3  A    between atoms: C_7  and  N_8
REMARK    4  A    between atoms: N_8  and  C_9
REMARK    5  A    between atoms: C_12  and  C_13
REMARK                            x       y       z     vdW  Elec       q    Type
REMARK                         _______ _______ _______ _____ _____    ______ ____
ROOT
ATOM      1  N   UNL     1      -4.129  -1.280   0.850  0.00  0.00    +0.000 N 
ATOM      2  H   UNL     1      -3.974  -1.094   1.837  0.00  0.00    +0.000 HD
ENDROOT
BRANCH   1   3
ATOM      3  C   UNL     1      -4.185  -2.657   0.564  0.00  0.00    +0.000 A 
ATOM      4  C   UNL     1      -4.118  -3.200  -0.722  0.00  0.00    +0.000 A 
ATOM      5  C   UNL     1      -4.286  -4.580  -0.937  0.00  0.00    +0.000 A 
ATOM      6  C   UNL     1      -4.558  -5.433   0.138  0.00  0.00    +0.000 A 
ATOM      7  C   UNL     1      -4.644  -4.899   1.425  0.00  0.00    +0.000 A 
ATOM      8  C   UNL     1      -4.458  -3.530   1.630  0.00  0.00    +0.000 A 
BRANCH   6   9
ATOM      9  C   UNL     1      -4.832  -6.885  -0.033  0.00  0.00    +0.000 C 
ATOM     10  N   UNL     1      -4.303  -7.507  -1.128  0.00  0.00    +0.000 N 
ATOM     11  O   UNL     1      -5.485  -7.515   0.789  0.00  0.00    +0.000 OA
ATOM     12  H   UNL     1      -3.566  -7.099  -1.683  0.00  0.00    +0.000 HD
ATOM     13  H   UNL     1      -4.419  -8.512  -1.164  0.00  0.00    +0.000 HD
ENDBRANCH   6   9
ENDBRANCH   1   3
BRANCH   1  14
ATOM     14  C   UNL     1      -3.720  -0.204  -0.067  0.00  0.00    +0.000 C 
ATOM     15  C   UNL     1      -4.605   0.264  -1.204  0.00  0.00    +0.000 C 
ATOM     16  C   UNL     1      -4.573   1.057   0.060  0.00  0.00    +0.000 C 
BRANCH  14  20
ATOM     17  C   UNL     1       0.561   0.031  -0.404  0.00  0.00    +0.000 A 
ATOM     18  C   UNL     1      -0.060   0.806   0.564  0.00  0.00    +0.000 A 
ATOM     19  C   UNL     1      -1.454   0.762   0.660  0.00  0.00    +0.000 A 
ATOM     20  C   UNL     1      -2.211  -0.045  -0.202  0.00  0.00    +0.000 A 
ATOM     21  C   UNL     1      -1.475  -0.743  -1.162  0.00  0.00    +0.000 A 
ATOM     22  N   UNL     1      -0.125  -0.730  -1.287  0.00  0.00    +0.000 NA
BRANCH  17  24
ATOM     23  N   UNL     1       3.156  -0.071  -0.521  0.00  0.00    +0.000 NA
ATOM     24  C   UNL     1       1.994  -0.033  -0.493  0.00  0.00    +0.000 C 
ENDBRANCH  17  24
ENDBRANCH  14  20
ENDBRANCH   1  14
TORSDOF 5
