REMARK  Name = 
REMARK  6 active torsions:
REMARK  status: ('A' for Active; 'I' for Inactive)
REMARK    1  A    between atoms: C_2  and  C_25
REMARK    2  A    between atoms: N_3  and  C_4
REMARK    3  A    between atoms: C_4  and  C_5
REMARK    4  A    between atoms: C_8  and  C_9
REMARK    5  A    between atoms: C_9  and  N_10
REMARK    6  A    between atoms: C_11  and  C_13
REMARK                            x       y       z     vdW  Elec       q    Type
REMARK                         _______ _______ _______ _____ _____    ______ ____
ROOT
ATOM      1  C   UNL     1       3.169   3.372   1.640  0.00  0.00    +0.000 A 
ATOM      2  C   UNL     1       2.788   4.703   1.494  0.00  0.00    +0.000 A 
ATOM      3  C   UNL     1       3.634   5.705   1.964  0.00  0.00    +0.000 A 
ATOM      4  C   UNL     1       4.841   5.365   2.575  0.00  0.00    +0.000 A 
ATOM      5  C   UNL     1       5.162   4.014   2.637  0.00  0.00    +0.000 A 
ATOM      6  N   UNL     1       4.362   3.016   2.186  0.00  0.00    +0.000 NA
ENDROOT
BRANCH   1   7
ATOM      7  C   UNL     1       2.247   2.264   1.183  0.00  0.00    +0.000 C 
BRANCH   7  10
ATOM      8  O   UNL     1       0.846   3.388  -0.989  0.00  0.00    +0.000 OA
ATOM      9  C   UNL     1       1.704   2.537  -1.210  0.00  0.00    +0.000 C 
ATOM     10  N   UNL     1       2.423   1.932  -0.215  0.00  0.00    +0.000 N 
ATOM     11  H   UNL     1       3.228   1.370  -0.451  0.00  0.00    +0.000 HD
BRANCH   9  12
ATOM     12  C   UNL     1       2.036   2.108  -2.552  0.00  0.00    +0.000 A 
ATOM     13  C   UNL     1       2.867   1.105  -3.029  0.00  0.00    +0.000 A 
ATOM     14  C   UNL     1       2.813   1.119  -4.444  0.00  0.00    +0.000 A 
ATOM     15  C   UNL     1       1.947   2.123  -4.808  0.00  0.00    +0.000 A 
ATOM     16  N   UNL     1       1.474   2.705  -3.663  0.00  0.00    +0.000 N 
ATOM     17  H   UNL     1       0.807   3.466  -3.612  0.00  0.00    +0.000 HD
ENDBRANCH   9  12
ENDBRANCH   7  10
ENDBRANCH   1   7
BRANCH   4  18
ATOM     18  C   UNL     1       5.762   6.414   3.124  0.00  0.00    +0.000 C 
BRANCH  18  19
ATOM     19  N   UNL     1       6.702   6.876   2.134  0.00  0.00    +0.000 N 
ATOM     20  C   UNL     1       7.709   7.746   2.473  0.00  0.00    +0.000 C 
ATOM     21  O   UNL     1       7.878   8.122   3.630  0.00  0.00    +0.000 OA
ATOM     22  H   UNL     1       6.437   6.780   1.158  0.00  0.00    +0.000 HD
BRANCH  20  23
ATOM     23  C   UNL     1       8.616   8.159   1.395  0.00  0.00    +0.000 A 
ATOM     24  C   UNL     1       9.894   8.603   1.705  0.00  0.00    +0.000 A 
ATOM     25  S   UNL     1      10.835   8.994   0.337  0.00  0.00    +0.000 S 
ATOM     26  C   UNL     1       9.548   8.637  -0.717  0.00  0.00    +0.000 A 
ATOM     27  N   UNL     1       9.681   8.794  -2.061  0.00  0.00    +0.000 NA
ATOM     28  C   UNL     1       8.614   8.524  -2.737  0.00  0.00    +0.000 A 
ATOM     29  N   UNL     1       7.429   8.104  -2.191  0.00  0.00    +0.000 N 
ATOM     30  C   UNL     1       7.260   7.894  -0.843  0.00  0.00    +0.000 A 
ATOM     31  O   UNL     1       6.204   7.464  -0.390  0.00  0.00    +0.000 OA
ATOM     32  C   UNL     1       8.424   8.204  -0.035  0.00  0.00    +0.000 A 
ATOM     33  H   UNL     1       6.634   7.898  -2.778  0.00  0.00    +0.000 HD
ENDBRANCH  20  23
ENDBRANCH  18  19
ENDBRANCH   4  18
TORSDOF 6
