REMARK  Name = 
REMARK  7 active torsions:
REMARK  status: ('A' for Active; 'I' for Inactive)
REMARK    1  A    between atoms: C_1  and  N_2
REMARK    2  A    between atoms: C_6  and  C_7
REMARK    3  A    between atoms: N_9  and  C_10
REMARK    4  A    between atoms: C_10  and  C_11
REMARK    5  A    between atoms: C_14  and  C_15
REMARK    6  A    between atoms: C_15  and  N_16
REMARK    7  A    between atoms: C_17  and  C_19
REMARK                            x       y       z     vdW  Elec       q    Type
REMARK                         _______ _______ _______ _____ _____    ______ ____
ROOT
ATOM      1  C   UNL     1       3.715   4.325   0.151  0.00  0.00    +0.000 A 
ATOM      2  C   UNL     1       4.346   5.567   0.162  0.00  0.00    +0.000 A 
ATOM      3  C   UNL     1       5.738   5.618   0.157  0.00  0.00    +0.000 A 
ATOM      4  C   UNL     1       6.475   4.433   0.136  0.00  0.00    +0.000 A 
ATOM      5  C   UNL     1       5.762   3.239   0.161  0.00  0.00    +0.000 A 
ATOM      6  N   UNL     1       4.410   3.160   0.163  0.00  0.00    +0.000 NA
ENDROOT
BRANCH   1   7
ATOM      7  C   UNL     1       2.206   4.238   0.133  0.00  0.00    +0.000 C 
BRANCH   7  10
ATOM      8  C   UNL     1       1.287   5.417   2.110  0.00  0.00    +0.000 C 
ATOM      9  O   UNL     1       1.427   6.529   1.604  0.00  0.00    +0.000 OA
ATOM     10  N   UNL     1       1.624   4.259   1.454  0.00  0.00    +0.000 N 
ATOM     11  H   UNL     1       1.569   3.398   1.991  0.00  0.00    +0.000 HD
BRANCH   8  17
ATOM     12  C   UNL     1       0.367   7.583   4.135  0.00  0.00    +0.000 C 
ATOM     13  N   UNL     1       0.334   6.154   4.340  0.00  0.00    +0.000 N 
ATOM     14  C   UNL     1      -0.123   5.525   5.463  0.00  0.00    +0.000 A 
ATOM     15  C   UNL     1       0.038   4.184   5.212  0.00  0.00    +0.000 A 
ATOM     16  N   UNL     1       0.582   3.985   3.969  0.00  0.00    +0.000 NA
ATOM     17  C   UNL     1       0.748   5.194   3.445  0.00  0.00    +0.000 A 
ENDBRANCH   8  17
ENDBRANCH   7  10
ENDBRANCH   1   7
BRANCH   4  18
ATOM     18  C   UNL     1       7.972   4.436   0.109  0.00  0.00    +0.000 C 
BRANCH  18  19
ATOM     19  N   UNL     1       8.531   4.475   1.436  0.00  0.00    +0.000 N 
ATOM     20  C   UNL     1       8.970   3.351   2.085  0.00  0.00    +0.000 C 
ATOM     21  O   UNL     1       8.925   2.239   1.567  0.00  0.00    +0.000 OA
ATOM     22  H   UNL     1       8.419   5.341   1.953  0.00  0.00    +0.000 HD
BRANCH  20  23
ATOM     23  C   UNL     1       9.561   3.552   3.416  0.00  0.00    +0.000 A 
ATOM     24  C   UNL     1      10.420   2.591   3.934  0.00  0.00    +0.000 A 
ATOM     25  S   UNL     1      11.044   2.986   5.471  0.00  0.00    +0.000 S 
ATOM     26  C   UNL     1      10.156   4.437   5.518  0.00  0.00    +0.000 A 
ATOM     27  N   UNL     1      10.221   5.259   6.600  0.00  0.00    +0.000 NA
ATOM     28  C   UNL     1       9.471   6.308   6.519  0.00  0.00    +0.000 A 
ATOM     29  N   UNL     1       8.673   6.614   5.448  0.00  0.00    +0.000 N 
ATOM     30  C   UNL     1       8.625   5.848   4.308  0.00  0.00    +0.000 A 
ATOM     31  O   UNL     1       7.990   6.213   3.324  0.00  0.00    +0.000 OA
ATOM     32  C   UNL     1       9.415   4.632   4.365  0.00  0.00    +0.000 A 
ATOM     33  H   UNL     1       8.131   7.466   5.435  0.00  0.00    +0.000 HD
ENDBRANCH  20  23
ENDBRANCH  18  19
ENDBRANCH   4  18
TORSDOF 6
