REMARK  Name = 
REMARK  10 active torsions:
REMARK  status: ('A' for Active; 'I' for Inactive)
REMARK    1  A    between atoms: C_1  and  O_2
REMARK    2  A    between atoms: O_2  and  C_3
REMARK    3  A    between atoms: C_10  and  C_11
REMARK    4  A    between atoms: N_13  and  C_14
REMARK    5  A    between atoms: C_14  and  C_15
REMARK    6  A    between atoms: C_18  and  C_19
REMARK    7  A    between atoms: C_19  and  N_20
REMARK    8  A    between atoms: N_20  and  C_21
REMARK    9  A    between atoms: C_21  and  C_22
REMARK   10  A    between atoms: C_21  and  C_23
REMARK                            x       y       z     vdW  Elec       q    Type
REMARK                         _______ _______ _______ _____ _____    ______ ____
ROOT
ATOM      1  C   UNL     1       1.601  -0.312  -3.301  0.00  0.00    +0.000 A 
ATOM      2  C   UNL     1       1.739  -1.705  -3.353  0.00  0.00    +0.000 A 
ATOM      3  C   UNL     1       0.619  -2.536  -3.231  0.00  0.00    +0.000 A 
ATOM      4  C   UNL     1      -0.664  -1.994  -3.060  0.00  0.00    +0.000 A 
ATOM      5  C   UNL     1      -0.802  -0.600  -3.042  0.00  0.00    +0.000 A 
ATOM      6  C   UNL     1       0.317   0.232  -3.167  0.00  0.00    +0.000 A 
ENDROOT
BRANCH   1   7
ATOM      7  C   UNL     1       2.804   0.589  -3.426  0.00  0.00    +0.000 C 
BRANCH   7  10
ATOM      8  C   UNL     1       4.177   1.631  -5.179  0.00  0.00    +0.000 C 
ATOM      9  O   UNL     1       4.934   2.121  -4.340  0.00  0.00    +0.000 OA
ATOM     10  N   UNL     1       3.104   0.873  -4.807  0.00  0.00    +0.000 N 
ATOM     11  H   UNL     1       2.442   0.555  -5.501  0.00  0.00    +0.000 HD
BRANCH   8  19
ATOM     12  C   UNL     1       2.560   0.504  -8.002  0.00  0.00    +0.000 A 
ATOM     13  N   UNL     1       2.165   0.168  -9.246  0.00  0.00    +0.000 NA
ATOM     14  C   UNL     1       2.876   0.629 -10.278  0.00  0.00    +0.000 A 
ATOM     15  N   UNL     1       3.952   1.409 -10.225  0.00  0.00    +0.000 NA
ATOM     16  C   UNL     1       4.313   1.720  -8.968  0.00  0.00    +0.000 A 
ATOM     17  S   UNL     1       5.662   2.718  -8.708  0.00  0.00    +0.000 S 
ATOM     18  C   UNL     1       5.474   2.618  -7.023  0.00  0.00    +0.000 A 
ATOM     19  C   UNL     1       4.401   1.831  -6.621  0.00  0.00    +0.000 A 
ATOM     20  C   UNL     1       3.691   1.314  -7.790  0.00  0.00    +0.000 A 
BRANCH  12  22
ATOM     21  C   UNL     1       1.027  -1.084  -7.220  0.00  0.00    +0.000 C 
ATOM     22  O   UNL     1       1.780   0.094  -6.942  0.00  0.00    +0.000 OA
ENDBRANCH  12  22
ENDBRANCH   8  19
ENDBRANCH   7  10
ENDBRANCH   1   7
BRANCH   4  23
ATOM     23  C   UNL     1      -1.877  -2.894  -2.938  0.00  0.00    +0.000 C 
BRANCH  23  24
ATOM     24  N   UNL     1      -1.765  -3.799  -1.793  0.00  0.00    +0.000 NA
ATOM     25  H   UNL     1      -1.617  -3.237  -0.954  0.00  0.00    +0.000 HD
BRANCH  24  26
ATOM     26  C   UNL     1      -2.957  -4.635  -1.576  0.00  0.00    +0.000 C 
ATOM     27  C   UNL     1      -3.246  -5.580  -2.751  0.00  0.00    +0.000 C 
BRANCH  26  28
ATOM     28  C   UNL     1      -2.789  -5.454  -0.300  0.00  0.00    +0.000 A 
ATOM     29  C   UNL     1      -3.720  -5.356   0.747  0.00  0.00    +0.000 A 
ATOM     30  C   UNL     1      -3.579  -6.131   1.903  0.00  0.00    +0.000 A 
ATOM     31  C   UNL     1      -2.506  -7.012   2.028  0.00  0.00    +0.000 A 
ATOM     32  C   UNL     1      -1.571  -7.116   1.003  0.00  0.00    +0.000 A 
ATOM     33  C   UNL     1      -1.709  -6.341  -0.150  0.00  0.00    +0.000 A 
ENDBRANCH  26  28
ENDBRANCH  24  26
ENDBRANCH  23  24
ENDBRANCH   4  23
TORSDOF 8
