REMARK  Name = 
REMARK  9 active torsions:
REMARK  status: ('A' for Active; 'I' for Inactive)
REMARK    1  A    between atoms: C_1  and  O_2
REMARK    2  A    between atoms: O_2  and  C_3
REMARK    3  A    between atoms: C_3  and  C_5
REMARK    4  A    between atoms: C_8  and  O_9
REMARK    5  A    between atoms: O_9  and  C_10
REMARK    6  A    between atoms: C_10  and  C_11
REMARK    7  A    between atoms: C_11  and  C_12
REMARK    8  A    between atoms: C_11  and  C_13
REMARK    9  A    between atoms: C_11  and  C_14
REMARK                            x       y       z     vdW  Elec       q    Type
REMARK                         _______ _______ _______ _____ _____    ______ ____
ROOT
ATOM      1  O   UNL     1       8.642   0.910  -1.030  0.00  0.00    +0.000 OA
ENDROOT
BRANCH   1   5
ATOM      2  C   UNL     1       4.476   0.929  -1.199  0.00  0.00    +0.000 A 
ATOM      3  C   UNL     1       5.137  -0.304  -1.183  0.00  0.00    +0.000 A 
ATOM      4  C   UNL     1       6.535  -0.350  -1.133  0.00  0.00    +0.000 A 
ATOM      5  C   UNL     1       7.277   0.830  -1.096  0.00  0.00    +0.000 A 
ATOM      6  C   UNL     1       6.614   2.060  -1.120  0.00  0.00    +0.000 A 
ATOM      7  C   UNL     1       5.218   2.113  -1.161  0.00  0.00    +0.000 A 
BRANCH   2   8
ATOM      8  C   UNL     1       2.996   1.018  -1.235  0.00  0.00    +0.000 C 
ATOM      9  O   UNL     1       2.363   1.974  -0.819  0.00  0.00    +0.000 OA
BRANCH   8  11
ATOM     10  C   UNL     1       1.064  -0.069  -1.966  0.00  0.00    +0.000 C 
ATOM     11  O   UNL     1       2.485  -0.085  -1.838  0.00  0.00    +0.000 OA
ENDBRANCH   8  11
ENDBRANCH   2   8
ENDBRANCH   1   5
BRANCH   1  12
ATOM     12  C   UNL     1       9.368  -0.323  -1.093  0.00  0.00    +0.000 C 
BRANCH  12  13
ATOM     13  C   UNL     1      10.906  -0.069  -1.108  0.00  0.00    +0.000 C 
ATOM     14  C   UNL     1      11.282   0.723   0.164  0.00  0.00    +0.000 C 
ATOM     15  C   UNL     1      11.581  -1.460  -1.042  0.00  0.00    +0.000 C 
BRANCH  13  16
ATOM     16  C   UNL     1      11.411   0.676  -2.360  0.00  0.00    +0.000 A 
ATOM     17  C   UNL     1      10.563   1.106  -3.388  0.00  0.00    +0.000 A 
ATOM     18  C   UNL     1      11.091   1.781  -4.481  0.00  0.00    +0.000 A 
ATOM     19  N   UNL     1      12.402   2.050  -4.639  0.00  0.00    +0.000 NA
ATOM     20  C   UNL     1      13.216   1.629  -3.650  0.00  0.00    +0.000 A 
ATOM     21  C   UNL     1      12.778   0.956  -2.517  0.00  0.00    +0.000 A 
ENDBRANCH  13  16
ENDBRANCH  12  13
ENDBRANCH   1  12
TORSDOF 6
