REMARK  Name = 
REMARK  10 active torsions:
REMARK  status: ('A' for Active; 'I' for Inactive)
REMARK    1  A    between atoms: C_1  and  C_2
REMARK    2  A    between atoms: C_2  and  C_3
REMARK    3  A    between atoms: C_2  and  C_4
REMARK    4  A    between atoms: C_2  and  C_5
REMARK    5  A    between atoms: N_7  and  C_8
REMARK    6  A    between atoms: C_8  and  C_9
REMARK    7  A    between atoms: C_12  and  N_13
REMARK    8  A    between atoms: N_13  and  C_14
REMARK    9  A    between atoms: C_14  and  C_15
REMARK   10  A    between atoms: C_15  and  N_16
REMARK                            x       y       z     vdW  Elec       q    Type
REMARK                         _______ _______ _______ _____ _____    ______ ____
ROOT
ATOM      1  C   UNL     1       4.478  -2.600   3.841  0.00  0.00    +0.000 C 
ENDROOT
BRANCH   1   4
ATOM      2  C   UNL     1       3.028  -1.194   0.801  0.00  0.00    +0.000 A 
ATOM      3  C   UNL     1       3.786  -1.104   1.958  0.00  0.00    +0.000 A 
ATOM      4  N   UNL     1       3.889  -2.347   2.530  0.00  0.00    +0.000 N 
ATOM      5  C   UNL     1       3.265  -3.283   1.733  0.00  0.00    +0.000 A 
ATOM      6  C   UNL     1       3.129  -4.674   1.888  0.00  0.00    +0.000 A 
ATOM      7  C   UNL     1       2.418  -5.384   0.919  0.00  0.00    +0.000 A 
ATOM      8  C   UNL     1       1.860  -4.731  -0.172  0.00  0.00    +0.000 A 
ATOM      9  C   UNL     1       2.001  -3.346  -0.316  0.00  0.00    +0.000 A 
ATOM     10  C   UNL     1       2.717  -2.595   0.644  0.00  0.00    +0.000 A 
BRANCH   2  12
ATOM     11  C   UNL     1       3.137   1.322   0.420  0.00  0.00    +0.000 C 
ATOM     12  C   UNL     1       2.583  -0.031  -0.089  0.00  0.00    +0.000 C 
ATOM     13  C   UNL     1       1.044   0.076  -0.084  0.00  0.00    +0.000 C 
ATOM     14  C   UNL     1       3.081  -0.205  -1.537  0.00  0.00    +0.000 C 
ENDBRANCH   2  12
ENDBRANCH   1   4
BRANCH   1  15
ATOM     15  C   UNL     1       5.936  -2.956   3.725  0.00  0.00    +0.000 A 
ATOM     16  C   UNL     1       6.914  -1.967   3.764  0.00  0.00    +0.000 A 
ATOM     17  C   UNL     1       8.247  -2.325   3.556  0.00  0.00    +0.000 A 
ATOM     18  C   UNL     1       8.589  -3.647   3.270  0.00  0.00    +0.000 A 
ATOM     19  C   UNL     1       7.551  -4.572   3.355  0.00  0.00    +0.000 A 
ATOM     20  N   UNL     1       6.247  -4.264   3.565  0.00  0.00    +0.000 NA
BRANCH  18  21
ATOM     21  N   UNL     1       9.925  -3.974   3.013  0.00  0.00    +0.000 N 
ATOM     22  H   UNL     1      10.486  -3.160   2.768  0.00  0.00    +0.000 HD
BRANCH  21  23
ATOM     23  C   UNL     1      10.206  -5.082   2.085  0.00  0.00    +0.000 C 
BRANCH  23  24
ATOM     24  C   UNL     1       9.686  -4.810   0.656  0.00  0.00    +0.000 C 
BRANCH  24  25
ATOM     25  N   UNL     1      10.180  -3.541   0.102  0.00  0.00    +0.000 NA
ATOM     26  H   UNL     1       9.805  -2.783   0.674  0.00  0.00    +0.000 HD
ATOM     27  H   UNL     1       9.763  -3.409  -0.820  0.00  0.00    +0.000 HD
ENDBRANCH  24  25
ENDBRANCH  23  24
ENDBRANCH  21  23
ENDBRANCH  18  21
ENDBRANCH   1  15
TORSDOF 7
