REMARK  Name = 
REMARK  7 active torsions:
REMARK  status: ('A' for Active; 'I' for Inactive)
REMARK    1  A    between atoms: C_1  and  C_2
REMARK    2  A    between atoms: C_2  and  C_3
REMARK    3  A    between atoms: C_7  and  C_8
REMARK    4  A    between atoms: C_8  and  C_9
REMARK    5  A    between atoms: C_9  and  N_10
REMARK    6  A    between atoms: C_14  and  C_15
REMARK    7  A    between atoms: C_23  and  O_24
REMARK                            x       y       z     vdW  Elec       q    Type
REMARK                         _______ _______ _______ _____ _____    ______ ____
ROOT
ATOM      1  C   UNL     1       4.250   2.765  -3.953  0.00  0.00    +0.000 C 
ENDROOT
BRANCH   1   6
ATOM      2  C   UNL     1       2.854   0.193  -1.503  0.00  0.00    +0.000 A 
ATOM      3  C   UNL     1       2.545  -0.864  -2.378  0.00  0.00    +0.000 A 
ATOM      4  C   UNL     1       2.828  -0.783  -3.740  0.00  0.00    +0.000 A 
ATOM      5  C   UNL     1       3.412   0.367  -4.266  0.00  0.00    +0.000 A 
ATOM      6  C   UNL     1       3.701   1.454  -3.435  0.00  0.00    +0.000 A 
ATOM      7  C   UNL     1       3.428   1.346  -2.063  0.00  0.00    +0.000 A 
BRANCH   2   9
ATOM      8  C   UNL     1       0.935  -0.051   0.042  0.00  0.00    +0.000 C 
ATOM      9  C   UNL     1       2.471   0.092  -0.019  0.00  0.00    +0.000 C 
ATOM     10  C   UNL     1       3.169  -1.107   0.677  0.00  0.00    +0.000 C 
ATOM     11  C   UNL     1       4.371  -0.554   1.459  0.00  0.00    +0.000 C 
ATOM     12  C   UNL     1       4.346   0.957   1.284  0.00  0.00    +0.000 C 
ATOM     13  C   UNL     1       2.907   1.271   0.888  0.00  0.00    +0.000 C 
BRANCH  12  14
ATOM     14  O   UNL     1       5.278   1.367   0.295  0.00  0.00    +0.000 OA
ATOM     15  H   UNL     1       5.231   0.745  -0.453  0.00  0.00    +0.000 HD
ENDBRANCH  12  14
ENDBRANCH   2   9
ENDBRANCH   1   6
BRANCH   1  16
ATOM     16  C   UNL     1       3.151   3.759  -4.320  0.00  0.00    +0.000 C 
BRANCH  16  17
ATOM     17  N   UNL     1       3.699   5.013  -4.820  0.00  0.00    +0.000 N 
ATOM     18  C   UNL     1       2.752   5.977  -5.161  0.00  0.00    +0.000 A 
ATOM     19  C   UNL     1       1.495   6.086  -4.547  0.00  0.00    +0.000 A 
ATOM     20  N   UNL     1       0.554   7.008  -4.864  0.00  0.00    +0.000 NA
ATOM     21  C   UNL     1       0.936   7.893  -5.818  0.00  0.00    +0.000 A 
ATOM     22  C   UNL     1       2.181   7.807  -6.437  0.00  0.00    +0.000 A 
ATOM     23  N   UNL     1       3.104   6.848  -6.125  0.00  0.00    +0.000 NA
ATOM     24  H   UNL     1       4.326   4.938  -5.620  0.00  0.00    +0.000 HD
BRANCH  21  25
ATOM     25  C   UNL     1      -0.036   8.985  -6.153  0.00  0.00    +0.000 C 
ATOM     26  N   UNL     1      -1.235   9.024  -5.466  0.00  0.00    +0.000 N 
ATOM     27  O   UNL     1       0.196   9.823  -6.993  0.00  0.00    +0.000 OA
ATOM     28  H   UNL     1      -1.518   8.367  -4.756  0.00  0.00    +0.000 HD
ATOM     29  H   UNL     1      -1.873   9.759  -5.739  0.00  0.00    +0.000 HD
ENDBRANCH  21  25
ENDBRANCH  16  17
ENDBRANCH   1  16
TORSDOF 6
