REMARK  Name = 
REMARK  3 active torsions:
REMARK  status: ('A' for Active; 'I' for Inactive)
REMARK    1  A    between atoms: C_2  and  C_4
REMARK    2  A    between atoms: N_8  and  C_9
REMARK    3  A    between atoms: C_9  and  C_10
REMARK                            x       y       z     vdW  Elec       q    Type
REMARK                         _______ _______ _______ _____ _____    ______ ____
ROOT
ATOM      1  C   UNL     1       2.831   0.218  -1.431  0.00  0.00    +0.000 A 
ATOM      2  C   UNL     1       4.174  -0.119  -1.337  0.00  0.00    +0.000 A 
ATOM      3  C   UNL     1       5.003   0.115  -2.434  0.00  0.00    +0.000 A 
ATOM      4  C   UNL     1       4.485   0.705  -3.588  0.00  0.00    +0.000 A 
ATOM      5  N   UNL     1       5.389   0.974  -4.622  0.00  0.00    +0.000 N 
ATOM      6  N   UNL     1       3.179   1.018  -3.693  0.00  0.00    +0.000 NA
ATOM      7  C   UNL     1       2.375   0.750  -2.628  0.00  0.00    +0.000 A 
ATOM      8  H   UNL     1       5.809   0.105  -4.935  0.00  0.00    +0.000 HD
ENDROOT
BRANCH   1  10
ATOM      9  N   UNL     1       2.403   0.098   0.959  0.00  0.00    +0.000 N 
ATOM     10  C   UNL     1       1.887   0.035  -0.307  0.00  0.00    +0.000 C 
ATOM     11  O   UNL     1       0.690  -0.130  -0.497  0.00  0.00    +0.000 OA
ATOM     12  H   UNL     1       1.736   0.075   1.720  0.00  0.00    +0.000 HD
ATOM     13  H   UNL     1       3.321   0.477   1.152  0.00  0.00    +0.000 HD
ENDBRANCH   1  10
BRANCH   5  14
ATOM     14  C   UNL     1       4.928   1.837  -5.703  0.00  0.00    +0.000 C 
BRANCH  14  15
ATOM     15  C   UNL     1       5.956   1.874  -6.858  0.00  0.00    +0.000 C 
ATOM     16  C   UNL     1       5.968   0.554  -7.652  0.00  0.00    +0.000 C 
ATOM     17  C   UNL     1       6.999   0.575  -8.778  0.00  0.00    +0.000 C 
ATOM     18  C   UNL     1       8.390   0.910  -8.250  0.00  0.00    +0.000 C 
ATOM     19  C   UNL     1       8.390   2.242  -7.509  0.00  0.00    +0.000 C 
ATOM     20  C   UNL     1       7.368   2.252  -6.374  0.00  0.00    +0.000 C 
ENDBRANCH  14  15
ENDBRANCH   5  14
TORSDOF 3
