REMARK  Name = 
REMARK  5 active torsions:
REMARK  status: ('A' for Active; 'I' for Inactive)
REMARK    1  A    between atoms: C_2  and  OXT_3
REMARK    2  A    between atoms: C_2  and  CA_4
REMARK    3  A    between atoms: C_9  and  O_10
REMARK    4  A    between atoms: O_10  and  C_11
REMARK    5  A    between atoms: C_11  and  C_12
REMARK                            x       y       z     vdW  Elec       q    Type
REMARK                         _______ _______ _______ _____ _____    ______ ____
ROOT
ATOM      1  CA  UNL     1       4.542  -0.079  -2.508  0.00  0.00    +0.000 A 
ATOM      2  N   UNL     1       3.991   0.970  -3.217  0.00  0.00    +0.000 NA
ATOM      3  C   UNL     1       2.892   1.525  -2.661  0.00  0.00    +0.000 A 
ATOM      4  C   UNL     1       2.363   1.074  -1.467  0.00  0.00    +0.000 A 
ATOM      5  N   UNL     1       2.902   0.047  -0.772  0.00  0.00    +0.000 NA
ATOM      6  C   UNL     1       4.010  -0.538  -1.304  0.00  0.00    +0.000 A 
ENDROOT
BRANCH   1   8
ATOM      7  O   UNL     1       6.442  -1.568  -2.730  0.00  0.00    +0.000 OA
ATOM      8  C   UNL     1       5.758  -0.653  -3.149  0.00  0.00    +0.000 C 
BRANCH   8   9
ATOM      9  OXT UNL     1       6.026   0.010  -4.308  0.00  0.00    +0.000 OA
ATOM     10  HXT UNL     1       5.349   0.712  -4.449  0.00  0.00    +0.000 HD
ENDBRANCH   8   9
ENDBRANCH   1   8
BRANCH   6  11
ATOM     11  O   UNL     1       4.569  -1.590  -0.614  0.00  0.00    +0.000 OA
BRANCH  11  12
ATOM     12  C   UNL     1       3.868  -1.892   0.601  0.00  0.00    +0.000 C 
BRANCH  12  13
ATOM     13  C   UNL     1       4.485  -3.082   1.281  0.00  0.00    +0.000 A 
ATOM     14  C   UNL     1       5.791  -3.059   1.762  0.00  0.00    +0.000 A 
ATOM     15  C   UNL     1       6.287  -4.198   2.370  0.00  0.00    +0.000 A 
ATOM     16  N   UNL     1       5.552  -5.316   2.536  0.00  0.00    +0.000 NA
ATOM     17  N   UNL     1       4.269  -5.339   2.094  0.00  0.00    +0.000 NA
ATOM     18  C   UNL     1       3.760  -4.248   1.482  0.00  0.00    +0.000 A 
ENDBRANCH  12  13
ENDBRANCH  11  12
ENDBRANCH   6  11
TORSDOF 5
