REMARK  Name = 
REMARK  4 active torsions:
REMARK  status: ('A' for Active; 'I' for Inactive)
REMARK    1  A    between atoms: C_2  and  C_3
REMARK    2  A    between atoms: N_7  and  C_8
REMARK    3  A    between atoms: C_8  and  C_9
REMARK    4  A    between atoms: C_13  and  C_14
REMARK                            x       y       z     vdW  Elec       q    Type
REMARK                         _______ _______ _______ _____ _____    ______ ____
ROOT
ATOM      1  C   UNL     1      -4.382   1.191  -0.121  0.00  0.00    +0.000 C 
ATOM      2  C   UNL     1      -4.490   2.341  -1.133  0.00  0.00    +0.000 C 
ATOM      3  C   UNL     1      -4.283   2.645   0.309  0.00  0.00    +0.000 C 
ENDROOT
BRANCH   1   8
ATOM      4  C   UNL     1      -0.143  -1.255   1.832  0.00  0.00    +0.000 A 
ATOM      5  C   UNL     1      -0.720  -0.063   2.266  0.00  0.00    +0.000 A 
ATOM      6  C   UNL     1      -1.813   0.474   1.572  0.00  0.00    +0.000 A 
ATOM      7  C   UNL     1      -2.289  -0.187   0.449  0.00  0.00    +0.000 A 
ATOM      8  N   UNL     1      -3.258   0.305  -0.412  0.00  0.00    +0.000 N 
ATOM      9  N   UNL     1      -1.743  -1.355   0.033  0.00  0.00    +0.000 NA
ATOM     10  C   UNL     1      -0.702  -1.866   0.726  0.00  0.00    +0.000 A 
ATOM     11  H   UNL     1      -3.407  -0.412  -1.116  0.00  0.00    +0.000 HD
BRANCH   4  13
ATOM     12  N   UNL     1       1.935  -2.292   2.978  0.00  0.00    +0.000 NA
ATOM     13  C   UNL     1       0.999  -1.825   2.471  0.00  0.00    +0.000 C 
ENDBRANCH   4  13
ENDBRANCH   1   8
BRANCH   1  14
ATOM     14  C   UNL     1      -5.703   0.487   0.188  0.00  0.00    +0.000 A 
ATOM     15  C   UNL     1      -6.326   0.627   1.437  0.00  0.00    +0.000 A 
ATOM     16  C   UNL     1      -7.672   0.314   1.602  0.00  0.00    +0.000 A 
ATOM     17  C   UNL     1      -8.405  -0.192   0.528  0.00  0.00    +0.000 A 
ATOM     18  C   UNL     1      -7.795  -0.457  -0.709  0.00  0.00    +0.000 A 
ATOM     19  C   UNL     1      -6.432  -0.143  -0.841  0.00  0.00    +0.000 A 
BRANCH  18  20
ATOM     20  C   UNL     1      -8.572  -0.949  -1.863  0.00  0.00    +0.000 A 
ATOM     21  C   UNL     1      -9.834  -0.416  -2.160  0.00  0.00    +0.000 A 
ATOM     22  C   UNL     1     -10.528  -0.883  -3.264  0.00  0.00    +0.000 A 
ATOM     23  N   UNL     1     -10.059  -1.832  -4.097  0.00  0.00    +0.000 NA
ATOM     24  C   UNL     1      -8.841  -2.335  -3.810  0.00  0.00    +0.000 A 
ATOM     25  C   UNL     1      -8.074  -1.934  -2.725  0.00  0.00    +0.000 A 
ENDBRANCH  18  20
ENDBRANCH   1  14
TORSDOF 4
