REMARK  Name = 
REMARK  6 active torsions:
REMARK  status: ('A' for Active; 'I' for Inactive)
REMARK    1  A    between atoms: C_1  and  O_2
REMARK    2  A    between atoms: O_2  and  C_3
REMARK    3  A    between atoms: C_5  and  C_6
REMARK    4  A    between atoms: C_6  and  N_7
REMARK    5  A    between atoms: C_11  and  C_12
REMARK    6  A    between atoms: C_21  and  C_22
REMARK                            x       y       z     vdW  Elec       q    Type
REMARK                         _______ _______ _______ _____ _____    ______ ____
ROOT
ATOM      1  N   UNL     1       2.746  -4.043   4.248  0.00  0.00    +0.000 N 
ATOM      2  C   UNL     1       3.808  -4.470   5.062  0.00  0.00    +0.000 A 
ATOM      3  C   UNL     1       5.131  -4.495   4.633  0.00  0.00    +0.000 A 
ATOM      4  C   UNL     1       6.142  -4.921   5.502  0.00  0.00    +0.000 A 
ATOM      5  C   UNL     1       5.825  -5.312   6.798  0.00  0.00    +0.000 A 
ATOM      6  C   UNL     1       4.485  -5.241   7.155  0.00  0.00    +0.000 A 
ATOM      7  N   UNL     1       3.482  -4.834   6.324  0.00  0.00    +0.000 NA
ATOM      8  H   UNL     1       1.878  -4.249   4.732  0.00  0.00    +0.000 HD
ENDROOT
BRANCH   5   9
ATOM      9  C   UNL     1       6.917  -5.775   7.686  0.00  0.00    +0.000 C 
ATOM     10  N   UNL     1       6.629  -6.121   8.982  0.00  0.00    +0.000 N 
ATOM     11  O   UNL     1       8.075  -5.859   7.287  0.00  0.00    +0.000 OA
ATOM     12  H   UNL     1       5.722  -6.056   9.421  0.00  0.00    +0.000 HD
ATOM     13  H   UNL     1       7.412  -6.419   9.548  0.00  0.00    +0.000 HD
ENDBRANCH   5   9
BRANCH   1  14
ATOM     14  C   UNL     1       2.787  -4.119   2.768  0.00  0.00    +0.000 C 
ATOM     15  C   UNL     1       2.584  -5.511   2.202  0.00  0.00    +0.000 C 
ATOM     16  C   UNL     1       1.541  -4.472   1.963  0.00  0.00    +0.000 C 
BRANCH  14  19
ATOM     17  C   UNL     1       4.315  -0.642   2.189  0.00  0.00    +0.000 A 
ATOM     18  C   UNL     1       3.465  -1.677   2.584  0.00  0.00    +0.000 A 
ATOM     19  C   UNL     1       3.616  -3.002   2.117  0.00  0.00    +0.000 A 
ATOM     20  C   UNL     1       4.581  -3.218   1.123  0.00  0.00    +0.000 A 
ATOM     21  C   UNL     1       5.448  -2.194   0.724  0.00  0.00    +0.000 A 
ATOM     22  C   UNL     1       5.365  -0.922   1.305  0.00  0.00    +0.000 A 
ATOM     23  C   UNL     1       6.416   0.114   1.019  0.00  0.00    +0.000 C 
BRANCH  17  25
ATOM     24  C   UNL     1       3.129   0.991   3.459  0.00  0.00    +0.000 C 
ATOM     25  O   UNL     1       4.235   0.652   2.633  0.00  0.00    +0.000 OA
ENDBRANCH  17  25
ENDBRANCH  14  19
ENDBRANCH   1  14
TORSDOF 4
