REMARK  Name = 
REMARK  6 active torsions:
REMARK  status: ('A' for Active; 'I' for Inactive)
REMARK    1  A    between atoms: C_1  and  C_2
REMARK    2  A    between atoms: N_7  and  C_8
REMARK    3  A    between atoms: C_8  and  C_9
REMARK    4  A    between atoms: C_12  and  C_13
REMARK    5  A    between atoms: C_13  and  N_14
REMARK    6  A    between atoms: C_15  and  C_17
REMARK                            x       y       z     vdW  Elec       q    Type
REMARK                         _______ _______ _______ _____ _____    ______ ____
ROOT
ATOM      1  C   UNL     1       3.406   3.990  -0.147  0.00  0.00    +0.000 A 
ATOM      2  C   UNL     1       2.464   4.982  -0.454  0.00  0.00    +0.000 A 
ATOM      3  C   UNL     1       2.824   6.336  -0.454  0.00  0.00    +0.000 A 
ATOM      4  C   UNL     1       4.139   6.726  -0.169  0.00  0.00    +0.000 A 
ATOM      5  C   UNL     1       5.079   5.737   0.146  0.00  0.00    +0.000 A 
ATOM      6  C   UNL     1       4.720   4.384   0.145  0.00  0.00    +0.000 A 
ENDROOT
BRANCH   1   7
ATOM      7  C   UNL     1       3.016   2.525  -0.137  0.00  0.00    +0.000 C 
BRANCH   7  14
ATOM      8  C   UNL     1       3.118  -1.670  -4.476  0.00  0.00    +0.000 C 
ATOM      9  C   UNL     1       2.852  -1.161  -3.091  0.00  0.00    +0.000 A 
ATOM     10  C   UNL     1       2.371  -1.999  -2.110  0.00  0.00    +0.000 A 
ATOM     11  C   UNL     1       2.207  -1.428  -0.872  0.00  0.00    +0.000 A 
ATOM     12  N   UNL     1       2.509  -0.145  -0.594  0.00  0.00    +0.000 NA
ATOM     13  C   UNL     1       2.983   0.601  -1.602  0.00  0.00    +0.000 A 
ATOM     14  N   UNL     1       3.387   1.901  -1.383  0.00  0.00    +0.000 N 
ATOM     15  N   UNL     1       3.135   0.141  -2.854  0.00  0.00    +0.000 NA
ATOM     16  H   UNL     1       3.328   2.442  -2.234  0.00  0.00    +0.000 HD
ENDBRANCH   7  14
ENDBRANCH   1   7
BRANCH   4  17
ATOM     17  C   UNL     1       4.535   8.181  -0.189  0.00  0.00    +0.000 C 
BRANCH  17  18
ATOM     18  N   UNL     1       4.312   8.820   1.081  0.00  0.00    +0.000 N 
ATOM     19  C   UNL     1       4.536  10.168   1.243  0.00  0.00    +0.000 C 
ATOM     20  O   UNL     1       4.869  10.885   0.302  0.00  0.00    +0.000 OA
ATOM     21  H   UNL     1       4.262   8.219   1.901  0.00  0.00    +0.000 HD
BRANCH  19  22
ATOM     22  C   UNL     1       4.313  10.723   2.583  0.00  0.00    +0.000 A 
ATOM     23  C   UNL     1       4.046  12.078   2.729  0.00  0.00    +0.000 A 
ATOM     24  S   UNL     1       3.770  12.553   4.343  0.00  0.00    +0.000 S 
ATOM     25  C   UNL     1       4.047  10.974   4.912  0.00  0.00    +0.000 A 
ATOM     26  N   UNL     1       3.986  10.691   6.241  0.00  0.00    +0.000 NA
ATOM     27  C   UNL     1       4.249   9.461   6.535  0.00  0.00    +0.000 A 
ATOM     28  N   UNL     1       4.562   8.489   5.620  0.00  0.00    +0.000 N 
ATOM     29  C   UNL     1       4.603   8.722   4.266  0.00  0.00    +0.000 A 
ATOM     30  O   UNL     1       4.842   7.819   3.471  0.00  0.00    +0.000 OA
ATOM     31  C   UNL     1       4.327  10.093   3.883  0.00  0.00    +0.000 A 
ATOM     32  H   UNL     1       4.750   7.543   5.915  0.00  0.00    +0.000 HD
ENDBRANCH  19  22
ENDBRANCH  17  18
ENDBRANCH   4  17
TORSDOF 5
