REMARK  Name = 
REMARK  8 active torsions:
REMARK  status: ('A' for Active; 'I' for Inactive)
REMARK    1  A    between atoms: C_2  and  C_20
REMARK    2  A    between atoms: N_3  and  C_4
REMARK    3  A    between atoms: C_4  and  C_5
REMARK    4  A    between atoms: C_8  and  C_9
REMARK    5  A    between atoms: C_9  and  C_10
REMARK    6  A    between atoms: C_10  and  N_11
REMARK    7  A    between atoms: N_11  and  C_12
REMARK    8  A    between atoms: C_15  and  O_16
REMARK                            x       y       z     vdW  Elec       q    Type
REMARK                         _______ _______ _______ _____ _____    ______ ____
ROOT
ATOM      1  C   UNL     1       4.827  11.535  -1.442  0.00  0.00    +0.000 A 
ATOM      2  C   UNL     1       5.813  11.116  -2.340  0.00  0.00    +0.000 A 
ATOM      3  C   UNL     1       5.532  10.140  -3.296  0.00  0.00    +0.000 A 
ATOM      4  C   UNL     1       4.262   9.547  -3.369  0.00  0.00    +0.000 A 
ATOM      5  C   UNL     1       3.265   9.993  -2.494  0.00  0.00    +0.000 A 
ATOM      6  C   UNL     1       3.543  10.983  -1.544  0.00  0.00    +0.000 A 
ENDROOT
BRANCH   1   7
ATOM      7  C   UNL     1       5.141  12.600  -0.423  0.00  0.00    +0.000 C 
BRANCH   7  10
ATOM      8  O   UNL     1       7.032  14.332  -1.597  0.00  0.00    +0.000 OA
ATOM      9  C   UNL     1       5.850  14.663  -1.574  0.00  0.00    +0.000 C 
ATOM     10  N   UNL     1       4.884  13.913  -0.955  0.00  0.00    +0.000 N 
ATOM     11  H   UNL     1       3.910  14.126  -1.133  0.00  0.00    +0.000 HD
BRANCH   9  12
ATOM     12  C   UNL     1       5.398  15.929  -2.163  0.00  0.00    +0.000 A 
ATOM     13  C   UNL     1       6.305  16.963  -2.359  0.00  0.00    +0.000 A 
ATOM     14  S   UNL     1       5.604  18.370  -3.021  0.00  0.00    +0.000 S 
ATOM     15  C   UNL     1       4.074  17.629  -3.117  0.00  0.00    +0.000 A 
ATOM     16  N   UNL     1       3.006  18.296  -3.630  0.00  0.00    +0.000 NA
ATOM     17  C   UNL     1       1.919  17.600  -3.689  0.00  0.00    +0.000 A 
ATOM     18  N   UNL     1       1.803  16.299  -3.270  0.00  0.00    +0.000 N 
ATOM     19  C   UNL     1       2.830  15.616  -2.674  0.00  0.00    +0.000 A 
ATOM     20  O   UNL     1       2.651  14.504  -2.184  0.00  0.00    +0.000 OA
ATOM     21  C   UNL     1       4.091  16.335  -2.628  0.00  0.00    +0.000 A 
ATOM     22  H   UNL     1       0.916  15.819  -3.318  0.00  0.00    +0.000 HD
ENDBRANCH   9  12
ENDBRANCH   7  10
ENDBRANCH   1   7
BRANCH   4  23
ATOM     23  C   UNL     1       3.987   8.437  -4.367  0.00  0.00    +0.000 C 
BRANCH  23  24
ATOM     24  C   UNL     1       4.908   7.231  -4.113  0.00  0.00    +0.000 C 
BRANCH  24  25
ATOM     25  N   UNL     1       4.738   6.136  -5.080  0.00  0.00    +0.000 NA
ATOM     26  H   UNL     1       4.918   6.477  -6.024  0.00  0.00    +0.000 HD
BRANCH  25  27
ATOM     27  C   UNL     1       5.616   4.996  -4.762  0.00  0.00    +0.000 C 
ATOM     28  C   UNL     1       5.381   3.837  -5.763  0.00  0.00    +0.000 C 
ATOM     29  C   UNL     1       6.720   3.586  -6.461  0.00  0.00    +0.000 C 
ATOM     30  C   UNL     1       7.461   4.902  -6.309  0.00  0.00    +0.000 C 
ATOM     31  C   UNL     1       7.121   5.286  -4.880  0.00  0.00    +0.000 C 
BRANCH  30  32
ATOM     32  O   UNL     1       8.853   4.767  -6.511  0.00  0.00    +0.000 OA
ATOM     33  H   UNL     1       9.226   4.255  -5.774  0.00  0.00    +0.000 HD
ENDBRANCH  30  32
ENDBRANCH  25  27
ENDBRANCH  24  25
ENDBRANCH  23  24
ENDBRANCH   4  23
TORSDOF 8
