REMARK  Name = 
REMARK  9 active torsions:
REMARK  status: ('A' for Active; 'I' for Inactive)
REMARK    1  A    between atoms: C_1  and  O_2
REMARK    2  A    between atoms: O_2  and  C_3
REMARK    3  A    between atoms: C_10  and  C_11
REMARK    4  A    between atoms: N_13  and  C_14
REMARK    5  A    between atoms: C_14  and  C_15
REMARK    6  A    between atoms: C_18  and  N_19
REMARK    7  A    between atoms: N_19  and  C_20
REMARK    8  A    between atoms: C_20  and  C_21
REMARK    9  A    between atoms: C_25  and  C_26
REMARK                            x       y       z     vdW  Elec       q    Type
REMARK                         _______ _______ _______ _____ _____    ______ ____
ROOT
ATOM      1  C   UNL     1       1.565   3.114   1.409  0.00  0.00    +0.000 A 
ATOM      2  C   UNL     1       0.502   2.233   1.159  0.00  0.00    +0.000 A 
ATOM      3  C   UNL     1      -0.617   2.634   0.411  0.00  0.00    +0.000 A 
ATOM      4  C   UNL     1      -0.715   3.937  -0.090  0.00  0.00    +0.000 A 
ATOM      5  C   UNL     1       0.349   4.811   0.165  0.00  0.00    +0.000 A 
ATOM      6  C   UNL     1       1.467   4.419   0.913  0.00  0.00    +0.000 A 
ENDROOT
BRANCH   4   7
ATOM      7  N   UNL     1      -1.728   4.381  -0.943  0.00  0.00    +0.000 N 
ATOM      8  H   UNL     1      -1.397   4.312  -1.913  0.00  0.00    +0.000 HD
BRANCH   7   9
ATOM      9  C   UNL     1      -3.087   3.854  -0.811  0.00  0.00    +0.000 C 
BRANCH   9  10
ATOM     10  C   UNL     1      -4.077   4.934  -1.311  0.00  0.00    +0.000 C 
ATOM     11  C   UNL     1      -4.003   6.232  -0.485  0.00  0.00    +0.000 C 
ATOM     12  C   UNL     1      -4.688   6.109   0.872  0.00  0.00    +0.000 C 
ATOM     13  N   UNL     1      -6.081   5.700   0.703  0.00  0.00    +0.000 N 
ATOM     14  C   UNL     1      -7.193   6.294   1.282  0.00  0.00    +0.000 C 
ATOM     15  C   UNL     1      -7.042   7.526   2.144  0.00  0.00    +0.000 C 
ATOM     16  O   UNL     1      -8.333   5.850   1.108  0.00  0.00    +0.000 OA
ATOM     17  C   UNL     1      -6.261   4.442  -0.021  0.00  0.00    +0.000 C 
ATOM     18  C   UNL     1      -5.533   4.435  -1.367  0.00  0.00    +0.000 C 
ENDBRANCH   9  10
ENDBRANCH   7   9
ENDBRANCH   4   7
BRANCH   1  19
ATOM     19  C   UNL     1       2.794   2.650   2.152  0.00  0.00    +0.000 C 
BRANCH  19  22
ATOM     20  C   UNL     1       3.807   0.755   0.932  0.00  0.00    +0.000 C 
ATOM     21  O   UNL     1       2.994  -0.035   1.411  0.00  0.00    +0.000 OA
ATOM     22  N   UNL     1       3.791   2.084   1.269  0.00  0.00    +0.000 N 
ATOM     23  H   UNL     1       4.458   2.715   0.847  0.00  0.00    +0.000 HD
BRANCH  20  31
ATOM     24  C   UNL     1       6.377   2.313  -0.782  0.00  0.00    +0.000 A 
ATOM     25  N   UNL     1       7.412   2.655  -1.578  0.00  0.00    +0.000 NA
ATOM     26  C   UNL     1       8.008   1.693  -2.287  0.00  0.00    +0.000 A 
ATOM     27  N   UNL     1       7.689   0.404  -2.304  0.00  0.00    +0.000 NA
ATOM     28  C   UNL     1       6.640   0.109  -1.517  0.00  0.00    +0.000 A 
ATOM     29  S   UNL     1       6.098  -1.495  -1.422  0.00  0.00    +0.000 S 
ATOM     30  C   UNL     1       4.868  -1.064  -0.334  0.00  0.00    +0.000 A 
ATOM     31  C   UNL     1       4.842   0.289  -0.013  0.00  0.00    +0.000 A 
ATOM     32  C   UNL     1       5.908   0.990  -0.724  0.00  0.00    +0.000 A 
BRANCH  24  34
ATOM     33  C   UNL     1       6.714   4.356   0.273  0.00  0.00    +0.000 C 
ATOM     34  O   UNL     1       5.790   3.310  -0.028  0.00  0.00    +0.000 OA
ENDBRANCH  24  34
ENDBRANCH  20  31
ENDBRANCH  19  22
ENDBRANCH   1  19
TORSDOF 7
