REMARK  Name = 
REMARK  7 active torsions:
REMARK  status: ('A' for Active; 'I' for Inactive)
REMARK    1  A    between atoms: C_2  and  C_19
REMARK    2  A    between atoms: N_3  and  C_4
REMARK    3  A    between atoms: C_4  and  C_5
REMARK    4  A    between atoms: C_8  and  C_9
REMARK    5  A    between atoms: C_9  and  N_10
REMARK    6  A    between atoms: N_10  and  C_11
REMARK    7  A    between atoms: C_11  and  C_12
REMARK                            x       y       z     vdW  Elec       q    Type
REMARK                         _______ _______ _______ _____ _____    ______ ____
ROOT
ATOM      1  C   UNL     1      -1.130  13.378  -3.191  0.00  0.00    +0.000 C 
ENDROOT
BRANCH   1   2
ATOM      2  C   UNL     1      -0.219  12.359  -3.810  0.00  0.00    +0.000 A 
ATOM      3  C   UNL     1       1.151  12.349  -3.547  0.00  0.00    +0.000 A 
ATOM      4  C   UNL     1       1.966  11.392  -4.150  0.00  0.00    +0.000 A 
ATOM      5  C   UNL     1       1.390  10.452  -5.002  0.00  0.00    +0.000 A 
ATOM      6  N   UNL     1       0.056  10.423  -5.252  0.00  0.00    +0.000 NA
ATOM      7  C   UNL     1      -0.711  11.363  -4.648  0.00  0.00    +0.000 A 
BRANCH   5   8
ATOM      8  C   UNL     1       2.264   9.422  -5.702  0.00  0.00    +0.000 C 
BRANCH   8   9
ATOM      9  N   UNL     1       2.156   9.413  -7.172  0.00  0.00    +0.000 NA
ATOM     10  H   UNL     1       1.166   9.273  -7.392  0.00  0.00    +0.000 HD
BRANCH   9  11
ATOM     11  C   UNL     1       2.583  10.689  -7.770  0.00  0.00    +0.000 C 
BRANCH  11  12
ATOM     12  C   UNL     1       2.437  10.660  -9.316  0.00  0.00    +0.000 C 
ATOM     13  C   UNL     1       2.879  11.959  -9.971  0.00  0.00    +0.000 C 
ATOM     14  C   UNL     1       4.379  11.794 -10.108  0.00  0.00    +0.000 C 
ATOM     15  C   UNL     1       4.583  10.294 -10.261  0.00  0.00    +0.000 C 
ATOM     16  N   UNL     1       3.301   9.653  -9.956  0.00  0.00    +0.000 NA
ATOM     17  H   UNL     1       3.427   8.873  -9.307  0.00  0.00    +0.000 HD
ENDBRANCH  11  12
ENDBRANCH   9  11
ENDBRANCH   8   9
ENDBRANCH   5   8
ENDBRANCH   1   2
BRANCH   1  20
ATOM     18  O   UNL     1      -2.674  14.910  -1.456  0.00  0.00    +0.000 OA
ATOM     19  C   UNL     1      -2.389  13.764  -1.124  0.00  0.00    +0.000 C 
ATOM     20  N   UNL     1      -1.566  12.966  -1.882  0.00  0.00    +0.000 N 
ATOM     21  H   UNL     1      -1.530  11.973  -1.681  0.00  0.00    +0.000 HD
BRANCH  19  22
ATOM     22  C   UNL     1      -2.866  13.183   0.138  0.00  0.00    +0.000 A 
ATOM     23  C   UNL     1      -3.216  14.006   1.197  0.00  0.00    +0.000 A 
ATOM     24  S   UNL     1      -3.701  13.151   2.592  0.00  0.00    +0.000 S 
ATOM     25  C   UNL     1      -3.512  11.652   1.807  0.00  0.00    +0.000 A 
ATOM     26  N   UNL     1      -3.786  10.483   2.448  0.00  0.00    +0.000 NA
ATOM     27  C   UNL     1      -3.636   9.428   1.718  0.00  0.00    +0.000 A 
ATOM     28  N   UNL     1      -3.234   9.434   0.407  0.00  0.00    +0.000 N 
ATOM     29  C   UNL     1      -2.910  10.586  -0.268  0.00  0.00    +0.000 A 
ATOM     30  O   UNL     1      -2.496  10.554  -1.421  0.00  0.00    +0.000 OA
ATOM     31  C   UNL     1      -3.073  11.802   0.505  0.00  0.00    +0.000 A 
ATOM     32  H   UNL     1      -3.127   8.572  -0.106  0.00  0.00    +0.000 HD
ENDBRANCH  19  22
ENDBRANCH   1  20
TORSDOF 7
