REMARK  Name = 
REMARK  5 active torsions:
REMARK  status: ('A' for Active; 'I' for Inactive)
REMARK    1  A    between atoms: C_1  and  O_2
REMARK    2  A    between atoms: O_2  and  C_3
REMARK    3  A    between atoms: N_8  and  C_9
REMARK    4  A    between atoms: C_9  and  C_10
REMARK    5  A    between atoms: C_14  and  C_15
REMARK                            x       y       z     vdW  Elec       q    Type
REMARK                         _______ _______ _______ _____ _____    ______ ____
ROOT
ATOM      1  C   UNL     1       7.566   2.841  -3.128  0.00  0.00    +0.000 A 
ATOM      2  N   UNL     1       7.269   3.765  -4.063  0.00  0.00    +0.000 NA
ATOM      3  C   UNL     1       8.309   4.283  -4.737  0.00  0.00    +0.000 A 
ATOM      4  C   UNL     1       9.617   3.924  -4.513  0.00  0.00    +0.000 A 
ATOM      5  C   UNL     1       9.842   2.974  -3.534  0.00  0.00    +0.000 A 
ATOM      6  N   UNL     1       8.820   2.429  -2.836  0.00  0.00    +0.000 NA
ENDROOT
BRANCH   5   7
ATOM      7  C   UNL     1      11.199   2.507  -3.171  0.00  0.00    +0.000 A 
ATOM      8  C   UNL     1      11.495   2.086  -1.858  0.00  0.00    +0.000 A 
ATOM      9  C   UNL     1      12.781   1.674  -1.489  0.00  0.00    +0.000 A 
ATOM     10  C   UNL     1      13.805   1.668  -2.431  0.00  0.00    +0.000 A 
ATOM     11  C   UNL     1      13.527   2.062  -3.732  0.00  0.00    +0.000 A 
ATOM     12  F   UNL     1      14.505   2.051  -4.648  0.00  0.00    +0.000 F 
ATOM     13  C   UNL     1      12.248   2.470  -4.107  0.00  0.00    +0.000 A 
ENDBRANCH   5   7
BRANCH   1  14
ATOM     14  C   UNL     1       6.408   2.233  -2.345  0.00  0.00    +0.000 C 
BRANCH  14  20
ATOM     15  C   UNL     1       3.624   0.989   0.744  0.00  0.00    +0.000 A 
ATOM     16  C   UNL     1       2.962   2.028   1.374  0.00  0.00    +0.000 A 
ATOM     17  C   UNL     1       3.386   3.315   1.099  0.00  0.00    +0.000 A 
ATOM     18  N   UNL     1       4.400   3.617   0.258  0.00  0.00    +0.000 NA
ATOM     19  C   UNL     1       5.055   2.601  -0.334  0.00  0.00    +0.000 A 
ATOM     20  N   UNL     1       6.137   2.973  -1.114  0.00  0.00    +0.000 N 
ATOM     21  C   UNL     1       4.698   1.279  -0.102  0.00  0.00    +0.000 A 
ATOM     22  H   UNL     1       6.094   3.982  -1.239  0.00  0.00    +0.000 HD
BRANCH  15  24
ATOM     23  C   UNL     1       2.045  -0.670   1.346  0.00  0.00    +0.000 C 
ATOM     24  O   UNL     1       3.358  -0.344   0.903  0.00  0.00    +0.000 OA
ENDBRANCH  15  24
ENDBRANCH  14  20
ENDBRANCH   1  14
TORSDOF 4
