REMARK  Name = 
REMARK  5 active torsions:
REMARK  status: ('A' for Active; 'I' for Inactive)
REMARK    1  A    between atoms: C_2  and  C_4
REMARK    2  A    between atoms: C_7  and  N_8
REMARK    3  A    between atoms: N_8  and  C_9
REMARK    4  A    between atoms: C_9  and  C_10
REMARK    5  A    between atoms: C_14  and  C_15
REMARK                            x       y       z     vdW  Elec       q    Type
REMARK                         _______ _______ _______ _____ _____    ______ ____
ROOT
ATOM      1  N   UNL     1       5.324  -4.507  -2.082  0.00  0.00    +0.000 N 
ATOM      2  H   UNL     1       6.210  -4.004  -2.072  0.00  0.00    +0.000 HD
ENDROOT
BRANCH   1   6
ATOM      3  C   UNL     1       2.392  -2.641   0.313  0.00  0.00    +0.000 A 
ATOM      4  C   UNL     1       2.002  -3.576  -0.646  0.00  0.00    +0.000 A 
ATOM      5  C   UNL     1       2.961  -4.175  -1.474  0.00  0.00    +0.000 A 
ATOM      6  C   UNL     1       4.319  -3.842  -1.382  0.00  0.00    +0.000 A 
ATOM      7  C   UNL     1       4.688  -2.900  -0.408  0.00  0.00    +0.000 A 
ATOM      8  C   UNL     1       3.737  -2.289   0.418  0.00  0.00    +0.000 A 
BRANCH   3  10
ATOM      9  N   UNL     1       0.305  -2.752   1.558  0.00  0.00    +0.000 N 
ATOM     10  C   UNL     1       1.413  -2.017   1.239  0.00  0.00    +0.000 C 
ATOM     11  O   UNL     1       1.608  -0.915   1.736  0.00  0.00    +0.000 OA
ATOM     12  H   UNL     1      -0.286  -2.371   2.286  0.00  0.00    +0.000 HD
ATOM     13  H   UNL     1       0.256  -3.747   1.394  0.00  0.00    +0.000 HD
ENDBRANCH   3  10
ENDBRANCH   1   6
BRANCH   1  14
ATOM     14  C   UNL     1       5.075  -5.112  -3.391  0.00  0.00    +0.000 C 
BRANCH  14  15
ATOM     15  C   UNL     1       5.972  -6.311  -3.599  0.00  0.00    +0.000 A 
ATOM     16  C   UNL     1       5.897  -7.387  -2.721  0.00  0.00    +0.000 A 
ATOM     17  N   UNL     1       6.616  -8.519  -2.886  0.00  0.00    +0.000 NA
ATOM     18  C   UNL     1       7.425  -8.530  -3.972  0.00  0.00    +0.000 A 
ATOM     19  C   UNL     1       7.525  -7.470  -4.875  0.00  0.00    +0.000 A 
ATOM     20  N   UNL     1       6.793  -6.337  -4.685  0.00  0.00    +0.000 NA
BRANCH  19  21
ATOM     21  C   UNL     1       8.404  -7.498  -6.053  0.00  0.00    +0.000 A 
ATOM     22  C   UNL     1       8.982  -6.332  -6.577  0.00  0.00    +0.000 A 
ATOM     23  C   UNL     1       9.845  -6.394  -7.671  0.00  0.00    +0.000 A 
ATOM     24  C   UNL     1      10.107  -7.631  -8.230  0.00  0.00    +0.000 A 
ATOM     25  N   UNL     1       9.563  -8.780  -7.783  0.00  0.00    +0.000 NA
ATOM     26  C   UNL     1       8.727  -8.683  -6.720  0.00  0.00    +0.000 A 
ENDBRANCH  19  21
ENDBRANCH  14  15
ENDBRANCH   1  14
TORSDOF 5
