REMARK  Name = 
REMARK  9 active torsions:
REMARK  status: ('A' for Active; 'I' for Inactive)
REMARK    1  A    between atoms: C_1  and  C_2
REMARK    2  A    between atoms: C_2  and  C_3
REMARK    3  A    between atoms: C_7  and  C_8
REMARK    4  A    between atoms: C_8  and  C_9
REMARK    5  A    between atoms: C_9  and  N_10
REMARK    6  A    between atoms: N_10  and  C_11
REMARK    7  A    between atoms: C_14  and  C_15
REMARK    8  A    between atoms: N_23  and  C_24
REMARK    9  A    between atoms: C_24  and  C_25
REMARK                            x       y       z     vdW  Elec       q    Type
REMARK                         _______ _______ _______ _____ _____    ______ ____
ROOT
ATOM      1  C   UNL     1       2.750   0.146  -1.395  0.00  0.00    +0.000 A 
ATOM      2  C   UNL     1       2.443  -0.906  -2.275  0.00  0.00    +0.000 A 
ATOM      3  C   UNL     1       2.759  -0.831  -3.629  0.00  0.00    +0.000 A 
ATOM      4  C   UNL     1       3.353   0.312  -4.146  0.00  0.00    +0.000 A 
ATOM      5  C   UNL     1       3.620   1.412  -3.321  0.00  0.00    +0.000 A 
ATOM      6  C   UNL     1       3.296   1.318  -1.956  0.00  0.00    +0.000 A 
ENDROOT
BRANCH   1   8
ATOM      7  C   UNL     1       0.997   0.595   0.281  0.00  0.00    +0.000 C 
ATOM      8  C   UNL     1       2.423   0.044   0.106  0.00  0.00    +0.000 C 
ATOM      9  C   UNL     1       2.538  -1.387   0.691  0.00  0.00    +0.000 C 
ATOM     10  C   UNL     1       3.860  -1.450   1.459  0.00  0.00    +0.000 C 
ATOM     11  N   UNL     1       4.504  -0.137   1.354  0.00  0.00    +0.000 NA
ATOM     12  C   UNL     1       3.405   0.794   1.041  0.00  0.00    +0.000 C 
BRANCH  11  13
ATOM     13  C   UNL     1       5.597  -0.144   0.344  0.00  0.00    +0.000 C 
BRANCH  13  14
ATOM     14  C   UNL     1       6.418   1.149   0.124  0.00  0.00    +0.000 C 
ATOM     15  F   UNL     1       6.074   2.150   0.965  0.00  0.00    +0.000 F 
ATOM     16  F   UNL     1       7.741   0.914   0.302  0.00  0.00    +0.000 F 
ATOM     17  F   UNL     1       6.266   1.616  -1.137  0.00  0.00    +0.000 F 
ENDBRANCH  13  14
ENDBRANCH  11  13
ENDBRANCH   1   8
BRANCH   5  18
ATOM     18  C   UNL     1       4.233   2.705  -3.838  0.00  0.00    +0.000 C 
BRANCH  18  19
ATOM     19  C   UNL     1       4.545   2.694  -5.337  0.00  0.00    +0.000 C 
BRANCH  19  20
ATOM     20  N   UNL     1       5.172   3.928  -5.797  0.00  0.00    +0.000 N 
ATOM     21  H   UNL     1       4.787   4.783  -5.404  0.00  0.00    +0.000 HD
BRANCH  20  22
ATOM     22  C   UNL     1       5.469   4.044  -7.163  0.00  0.00    +0.000 A 
ATOM     23  C   UNL     1       5.328   2.990  -8.079  0.00  0.00    +0.000 A 
ATOM     24  C   UNL     1       5.743   3.117  -9.407  0.00  0.00    +0.000 A 
ATOM     25  C   UNL     1       6.337   4.300  -9.845  0.00  0.00    +0.000 A 
ATOM     26  C   UNL     1       6.504   5.357  -8.945  0.00  0.00    +0.000 A 
ATOM     27  C   UNL     1       6.073   5.223  -7.618  0.00  0.00    +0.000 A 
BRANCH  25  28
ATOM     28  C   UNL     1       6.816   4.360 -11.250  0.00  0.00    +0.000 C 
ATOM     29  N   UNL     1       6.945   5.594 -11.820  0.00  0.00    +0.000 N 
ATOM     30  O   UNL     1       7.058   3.345 -11.893  0.00  0.00    +0.000 OA
ATOM     31  H   UNL     1       6.543   6.426 -11.417  0.00  0.00    +0.000 HD
ATOM     32  H   UNL     1       7.179   5.609 -12.805  0.00  0.00    +0.000 HD
ENDBRANCH  25  28
ENDBRANCH  20  22
ENDBRANCH  19  20
ENDBRANCH  18  19
ENDBRANCH   5  18
TORSDOF 8
