REMARK  Name = 
REMARK  5 active torsions:
REMARK  status: ('A' for Active; 'I' for Inactive)
REMARK    1  A    between atoms: C_1  and  C_2
REMARK    2  A    between atoms: C_6  and  C_7
REMARK    3  A    between atoms: C_7  and  N_8
REMARK    4  A    between atoms: N_8  and  C_9
REMARK    5  A    between atoms: C_12  and  C_13
REMARK                            x       y       z     vdW  Elec       q    Type
REMARK                         _______ _______ _______ _____ _____    ______ ____
ROOT
ATOM      1  C   UNL     1      -3.907   3.491  -0.703  0.00  0.00    +0.000 A 
ATOM      2  C   UNL     1      -5.159   3.292  -1.288  0.00  0.00    +0.000 A 
ATOM      3  C   UNL     1      -5.884   4.375  -1.798  0.00  0.00    +0.000 A 
ATOM      4  C   UNL     1      -5.344   5.648  -1.676  0.00  0.00    +0.000 A 
ATOM      5  N   UNL     1      -4.143   5.902  -1.091  0.00  0.00    +0.000 NA
ATOM      6  C   UNL     1      -3.475   4.819  -0.618  0.00  0.00    +0.000 A 
ENDROOT
BRANCH   4   7
ATOM      7  C   UNL     1      -6.110   6.840  -2.172  0.00  0.00    +0.000 C 
ATOM      8  N   UNL     1      -5.497   8.053  -1.987  0.00  0.00    +0.000 N 
ATOM      9  O   UNL     1      -7.206   6.749  -2.694  0.00  0.00    +0.000 OA
ATOM     10  H   UNL     1      -4.592   8.094  -1.528  0.00  0.00    +0.000 HD
ATOM     11  H   UNL     1      -5.966   8.898  -2.271  0.00  0.00    +0.000 HD
ENDBRANCH   4   7
BRANCH   1  12
ATOM     12  N   UNL     1      -3.224   2.401  -0.122  0.00  0.00    +0.000 N 
ATOM     13  H   UNL     1      -3.587   2.254   0.824  0.00  0.00    +0.000 HD
BRANCH  12  14
ATOM     14  C   UNL     1      -1.750   2.502  -0.051  0.00  0.00    +0.000 C 
BRANCH  14  20
ATOM     15  C   UNL     1       1.242  -0.609   2.266  0.00  0.00    +0.000 C 
ATOM     16  C   UNL     1       0.345  -0.345   1.092  0.00  0.00    +0.000 A 
ATOM     17  C   UNL     1       0.192  -1.304   0.098  0.00  0.00    +0.000 A 
ATOM     18  C   UNL     1      -0.622  -1.012  -0.989  0.00  0.00    +0.000 A 
ATOM     19  C   UNL     1      -1.259   0.224  -1.054  0.00  0.00    +0.000 A 
ATOM     20  C   UNL     1      -1.086   1.134  -0.011  0.00  0.00    +0.000 A 
ATOM     21  N   UNL     1      -0.282   0.860   1.053  0.00  0.00    +0.000 NA
ENDBRANCH  14  20
ENDBRANCH  12  14
ENDBRANCH   1  12
TORSDOF 4
