REMARK  Name = 
REMARK  7 active torsions:
REMARK  status: ('A' for Active; 'I' for Inactive)
REMARK    1  A    between atoms: C_1  and  O_2
REMARK    2  A    between atoms: O_2  and  C_3
REMARK    3  A    between atoms: C_5  and  C_6
REMARK    4  A    between atoms: C_6  and  N_7
REMARK    5  A    between atoms: C_12  and  C_13
REMARK    6  A    between atoms: C_21  and  O_22
REMARK    7  A    between atoms: O_22  and  C_23
REMARK                            x       y       z     vdW  Elec       q    Type
REMARK                         _______ _______ _______ _____ _____    ______ ____
ROOT
ATOM      1  C   UNL     1       2.914   4.668   0.627  0.00  0.00    +0.000 C 
ENDROOT
BRANCH   1   2
ATOM      2  N   UNL     1       1.769   4.544   1.523  0.00  0.00    +0.000 N 
ATOM      3  C   UNL     1       1.857   4.144   2.841  0.00  0.00    +0.000 A 
ATOM      4  C   UNL     1       0.611   4.274   3.414  0.00  0.00    +0.000 A 
ATOM      5  C   UNL     1      -0.262   4.772   2.421  0.00  0.00    +0.000 A 
ATOM      6  N   UNL     1      -1.570   5.084   2.526  0.00  0.00    +0.000 NA
ATOM      7  C   UNL     1      -2.097   5.548   1.367  0.00  0.00    +0.000 A 
ATOM      8  N   UNL     1      -1.465   5.707   0.182  0.00  0.00    +0.000 NA
ATOM      9  C   UNL     1      -0.161   5.386   0.109  0.00  0.00    +0.000 A 
ATOM     10  C   UNL     1       0.470   4.919   1.247  0.00  0.00    +0.000 A 
BRANCH   7  11
ATOM     11  C   UNL     1      -3.549   5.966   1.429  0.00  0.00    +0.000 C 
ATOM     12  N   UNL     1      -4.173   5.828   2.648  0.00  0.00    +0.000 N 
ATOM     13  O   UNL     1      -4.172   6.416   0.473  0.00  0.00    +0.000 OA
ATOM     14  H   UNL     1      -3.667   5.467   3.446  0.00  0.00    +0.000 HD
ATOM     15  H   UNL     1      -5.137   6.110   2.743  0.00  0.00    +0.000 HD
ENDBRANCH   7  11
ENDBRANCH   1   2
BRANCH   1  18
ATOM     16  C   UNL     1       2.811   1.831  -1.946  0.00  0.00    +0.000 A 
ATOM     17  C   UNL     1       2.582   3.054  -1.293  0.00  0.00    +0.000 A 
ATOM     18  C   UNL     1       3.224   3.375  -0.086  0.00  0.00    +0.000 A 
ATOM     19  C   UNL     1       4.124   2.454   0.458  0.00  0.00    +0.000 A 
ATOM     20  C   UNL     1       4.384   1.254  -0.205  0.00  0.00    +0.000 A 
ATOM     21  C   UNL     1       3.749   0.938  -1.414  0.00  0.00    +0.000 A 
BRANCH  16  23
ATOM     22  C   UNL     1       1.608   2.451  -3.895  0.00  0.00    +0.000 C 
ATOM     23  O   UNL     1       2.068   1.422  -3.021  0.00  0.00    +0.000 OA
ENDBRANCH  16  23
BRANCH  21  24
ATOM     24  O   UNL     1       4.108  -0.282  -1.904  0.00  0.00    +0.000 OA
BRANCH  24  25
ATOM     25  C   UNL     1       4.093  -0.526  -3.302  0.00  0.00    +0.000 C 
ATOM     26  F   UNL     1       4.131   0.585  -4.066  0.00  0.00    +0.000 F 
ATOM     27  F   UNL     1       5.207  -1.241  -3.602  0.00  0.00    +0.000 F 
ATOM     28  F   UNL     1       3.026  -1.284  -3.630  0.00  0.00    +0.000 F 
ENDBRANCH  24  25
ENDBRANCH  21  24
ENDBRANCH   1  18
TORSDOF 6
