REMARK  Name = 
REMARK  10 active torsions:
REMARK  status: ('A' for Active; 'I' for Inactive)
REMARK    1  A    between atoms: C_1  and  C_2
REMARK    2  A    between atoms: C_2  and  C_3
REMARK    3  A    between atoms: C_2  and  C_18
REMARK    4  A    between atoms: C_3  and  O_4
REMARK    5  A    between atoms: O_4  and  C_5
REMARK    6  A    between atoms: C_8  and  C_9
REMARK    7  A    between atoms: C_12  and  O_13
REMARK    8  A    between atoms: O_13  and  C_14
REMARK    9  A    between atoms: C_14  and  C_15
REMARK   10  A    between atoms: C_22  and  C_23
REMARK                            x       y       z     vdW  Elec       q    Type
REMARK                         _______ _______ _______ _____ _____    ______ ____
ROOT
ATOM      1  C   UNL     1       2.994  -3.367  -1.450  0.00  0.00    +0.000 A 
ATOM      2  C   UNL     1       4.242  -3.573  -2.031  0.00  0.00    +0.000 A 
ATOM      3  C   UNL     1       4.464  -4.689  -2.835  0.00  0.00    +0.000 A 
ATOM      4  C   UNL     1       3.466  -5.649  -3.071  0.00  0.00    +0.000 A 
ATOM      5  C   UNL     1       2.207  -5.469  -2.471  0.00  0.00    +0.000 A 
ATOM      6  C   UNL     1       1.981  -4.302  -1.695  0.00  0.00    +0.000 A 
ENDROOT
BRANCH   4   7
ATOM      7  C   UNL     1       3.932  -6.767  -3.933  0.00  0.00    +0.000 C 
ATOM      8  N   UNL     1       3.098  -7.299  -4.869  0.00  0.00    +0.000 N 
ATOM      9  O   UNL     1       5.086  -7.175  -3.853  0.00  0.00    +0.000 OA
ATOM     10  H   UNL     1       2.180  -6.930  -5.082  0.00  0.00    +0.000 HD
ATOM     11  H   UNL     1       3.502  -7.990  -5.487  0.00  0.00    +0.000 HD
ENDBRANCH   4   7
BRANCH   1  12
ATOM     12  O   UNL     1       2.684  -2.310  -0.625  0.00  0.00    +0.000 OA
BRANCH  12  13
ATOM     13  C   UNL     1       3.779  -1.441  -0.293  0.00  0.00    +0.000 C 
BRANCH  13  15
ATOM     14  C   UNL     1       2.270   0.598   0.117  0.00  0.00    +0.000 C 
ATOM     15  C   UNL     1       3.332  -0.329   0.619  0.00  0.00    +0.000 C 
BRANCH  15  16
ATOM     16  C   UNL     1       4.221   0.104   1.718  0.00  0.00    +0.000 A 
ATOM     17  C   UNL     1       4.759  -0.835   2.609  0.00  0.00    +0.000 A 
ATOM     18  C   UNL     1       5.598  -0.435   3.656  0.00  0.00    +0.000 A 
ATOM     19  C   UNL     1       5.912   0.912   3.829  0.00  0.00    +0.000 A 
ATOM     20  C   UNL     1       5.389   1.863   2.948  0.00  0.00    +0.000 A 
ATOM     21  C   UNL     1       4.547   1.458   1.905  0.00  0.00    +0.000 A 
BRANCH  20  22
ATOM     22  C   UNL     1       5.717   3.257   3.112  0.00  0.00    +0.000 C 
ATOM     23  N   UNL     1       5.989   4.374   3.241  0.00  0.00    +0.000 NA
ENDBRANCH  20  22
ENDBRANCH  15  16
ENDBRANCH  13  15
ENDBRANCH  12  13
ENDBRANCH   1  12
BRANCH   5  24
ATOM     24  O   UNL     1       1.119  -6.305  -2.518  0.00  0.00    +0.000 OA
BRANCH  24  25
ATOM     25  C   UNL     1       1.377  -7.713  -2.441  0.00  0.00    +0.000 C 
BRANCH  25  26
ATOM     26  C   UNL     1       0.350  -8.416  -1.565  0.00  0.00    +0.000 C 
ATOM     27  F   UNL     1      -0.877  -8.336  -2.148  0.00  0.00    +0.000 F 
ENDBRANCH  25  26
ENDBRANCH  24  25
ENDBRANCH   5  24
TORSDOF 9
