REMARK  Name = 
REMARK  8 active torsions:
REMARK  status: ('A' for Active; 'I' for Inactive)
REMARK    1  A    between atoms: C_1  and  C_2
REMARK    2  A    between atoms: C_2  and  N_3
REMARK    3  A    between atoms: N_3  and  C_4
REMARK    4  A    between atoms: C_4  and  C_5
REMARK    5  A    between atoms: C_8  and  C_9
REMARK    6  A    between atoms: C_9  and  N_10
REMARK    7  A    between atoms: C_11  and  C_13
REMARK    8  A    between atoms: C_20  and  C_22
REMARK                            x       y       z     vdW  Elec       q    Type
REMARK                         _______ _______ _______ _____ _____    ______ ____
ROOT
ATOM      1  C   UNL     1       2.020  -1.167  -1.986  0.00  0.00    +0.000 C 
ENDROOT
BRANCH   1   2
ATOM      2  C   UNL     1       0.540  -0.954  -1.794  0.00  0.00    +0.000 A 
ATOM      3  C   UNL     1      -0.125   0.044  -2.524  0.00  0.00    +0.000 A 
ATOM      4  C   UNL     1      -1.519   0.092  -2.556  0.00  0.00    +0.000 A 
ATOM      5  C   UNL     1      -2.275  -0.850  -1.846  0.00  0.00    +0.000 A 
ATOM      6  C   UNL     1      -1.609  -1.806  -1.066  0.00  0.00    +0.000 A 
ATOM      7  C   UNL     1      -0.213  -1.850  -1.029  0.00  0.00    +0.000 A 
BRANCH   5   8
ATOM      8  C   UNL     1      -3.771  -0.903  -2.006  0.00  0.00    +0.000 C 
BRANCH   8   9
ATOM      9  N   UNL     1      -4.128  -1.771  -3.105  0.00  0.00    +0.000 N 
ATOM     10  C   UNL     1      -5.438  -2.034  -3.414  0.00  0.00    +0.000 C 
ATOM     11  O   UNL     1      -6.373  -1.567  -2.772  0.00  0.00    +0.000 OA
ATOM     12  H   UNL     1      -3.389  -2.129  -3.691  0.00  0.00    +0.000 HD
BRANCH  10  13
ATOM     13  C   UNL     1      -5.640  -2.889  -4.555  0.00  0.00    +0.000 A 
ATOM     14  C   UNL     1      -4.786  -3.555  -5.414  0.00  0.00    +0.000 A 
ATOM     15  C   UNL     1      -5.624  -4.217  -6.330  0.00  0.00    +0.000 A 
ATOM     16  N   UNL     1      -6.916  -4.000  -6.082  0.00  0.00    +0.000 NA
ATOM     17  N   UNL     1      -6.899  -3.197  -5.004  0.00  0.00    +0.000 N 
ATOM     18  H   UNL     1      -7.781  -2.886  -4.607  0.00  0.00    +0.000 HD
ENDBRANCH  10  13
ENDBRANCH   8   9
ENDBRANCH   5   8
ENDBRANCH   1   2
BRANCH   1  19
ATOM     19  N   UNL     1       2.984  -0.620  -1.037  0.00  0.00    +0.000 N 
ATOM     20  C   UNL     1       4.334  -1.030  -1.004  0.00  0.00    +0.000 C 
ATOM     21  O   UNL     1       5.137  -0.518  -0.226  0.00  0.00    +0.000 OA
BRANCH  20  22
ATOM     22  C   UNL     1       4.812  -2.059  -1.943  0.00  0.00    +0.000 A 
ATOM     23  C   UNL     1       4.588  -2.057  -3.311  0.00  0.00    +0.000 A 
ATOM     24  S   UNL     1       5.349  -3.345  -4.135  0.00  0.00    +0.000 S 
ATOM     25  C   UNL     1       6.128  -3.858  -2.713  0.00  0.00    +0.000 A 
ATOM     26  N   UNL     1       7.039  -4.866  -2.738  0.00  0.00    +0.000 NA
ATOM     27  C   UNL     1       7.598  -5.099  -1.597  0.00  0.00    +0.000 A 
ATOM     28  N   UNL     1       7.296  -4.445  -0.429  0.00  0.00    +0.000 N 
ATOM     29  C   UNL     1       6.283  -3.518  -0.332  0.00  0.00    +0.000 A 
ATOM     30  O   UNL     1       5.876  -3.136   0.758  0.00  0.00    +0.000 OA
ATOM     31  C   UNL     1       5.724  -3.130  -1.614  0.00  0.00    +0.000 A 
ATOM     32  H   UNL     1       7.719  -4.726   0.443  0.00  0.00    +0.000 HD
ENDBRANCH  20  22
BRANCH  19  34
ATOM     33  C   UNL     1       2.402   0.066   1.272  0.00  0.00    +0.000 C 
ATOM     34  C   UNL     1       2.616   0.502  -0.170  0.00  0.00    +0.000 C 
ENDBRANCH  19  34
ENDBRANCH   1  19
TORSDOF 7
