REMARK  Name = 
REMARK  7 active torsions:
REMARK  status: ('A' for Active; 'I' for Inactive)
REMARK    1  A    between atoms: C_1  and  C_2
REMARK    2  A    between atoms: C_7  and  C_8
REMARK    3  A    between atoms: N_10  and  C_11
REMARK    4  A    between atoms: C_11  and  C_12
REMARK    5  A    between atoms: C_15  and  C_16
REMARK    6  A    between atoms: C_16  and  O_17
REMARK    7  A    between atoms: O_17  and  C_18
REMARK                            x       y       z     vdW  Elec       q    Type
REMARK                         _______ _______ _______ _____ _____    ______ ____
ROOT
ATOM      1  C   UNL     1       9.815   2.692   2.100  0.00  0.00    +0.000 C 
ATOM      2  O   UNL     1      10.788   3.292   1.637  0.00  0.00    +0.000 OA
ATOM      3  N   UNL     1       8.637   2.595   1.408  0.00  0.00    +0.000 N 
ATOM      4  H   UNL     1       7.872   2.079   1.823  0.00  0.00    +0.000 HD
ENDROOT
BRANCH   1  11
ATOM      5  C   UNL     1       6.555  -0.957   6.933  0.00  0.00    +0.000 C 
ATOM      6  C   UNL     1       7.460  -0.171   6.034  0.00  0.00    +0.000 A 
ATOM      7  N   UNL     1       8.676   0.132   6.361  0.00  0.00    +0.000 NA
ATOM      8  C   UNL     1       9.360   0.855   5.429  0.00  0.00    +0.000 A 
ATOM      9  S   UNL     1      10.970   1.342   5.692  0.00  0.00    +0.000 S 
ATOM     10  C   UNL     1      11.048   2.125   4.176  0.00  0.00    +0.000 A 
ATOM     11  C   UNL     1       9.877   2.045   3.434  0.00  0.00    +0.000 A 
ATOM     12  C   UNL     1       8.896   1.289   4.195  0.00  0.00    +0.000 A 
ATOM     13  C   UNL     1       7.534   0.916   3.892  0.00  0.00    +0.000 A 
ATOM     14  O   UNL     1       6.959   1.215   2.839  0.00  0.00    +0.000 OA
ATOM     15  N   UNL     1       6.885   0.197   4.842  0.00  0.00    +0.000 N 
ATOM     16  H   UNL     1       5.927  -0.063   4.627  0.00  0.00    +0.000 HD
ENDBRANCH   1  11
BRANCH   3  17
ATOM     17  C   UNL     1       8.424   3.163   0.087  0.00  0.00    +0.000 C 
BRANCH  17  18
ATOM     18  C   UNL     1       7.880   4.579   0.089  0.00  0.00    +0.000 A 
ATOM     19  C   UNL     1       8.750   5.676   0.079  0.00  0.00    +0.000 A 
ATOM     20  C   UNL     1       8.253   6.990   0.073  0.00  0.00    +0.000 A 
ATOM     21  C   UNL     1       6.875   7.238   0.075  0.00  0.00    +0.000 A 
ATOM     22  C   UNL     1       6.005   6.156   0.070  0.00  0.00    +0.000 A 
ATOM     23  C   UNL     1       6.503   4.853   0.085  0.00  0.00    +0.000 A 
BRANCH  21  24
ATOM     24  C   UNL     1       6.278   8.610   0.104  0.00  0.00    +0.000 C 
BRANCH  24  25
ATOM     25  O   UNL     1       6.084   9.074  -1.230  0.00  0.00    +0.000 OA
BRANCH  25  26
ATOM     26  C   UNL     1       5.547  10.327  -1.313  0.00  0.00    +0.000 A 
ATOM     27  C   UNL     1       5.167  11.113  -0.227  0.00  0.00    +0.000 A 
ATOM     28  C   UNL     1       4.682  12.396  -0.451  0.00  0.00    +0.000 A 
ATOM     29  C   UNL     1       4.590  12.848  -1.757  0.00  0.00    +0.000 A 
ATOM     30  N   UNL     1       4.943  12.111  -2.836  0.00  0.00    +0.000 NA
ATOM     31  C   UNL     1       5.410  10.866  -2.586  0.00  0.00    +0.000 A 
ENDBRANCH  25  26
ENDBRANCH  24  25
ENDBRANCH  21  24
ENDBRANCH  17  18
ENDBRANCH   3  17
TORSDOF 6
