REMARK  Name = 
REMARK  6 active torsions:
REMARK  status: ('A' for Active; 'I' for Inactive)
REMARK    1  A    between atoms: C_1  and  O_2
REMARK    2  A    between atoms: O_2  and  C_3
REMARK    3  A    between atoms: C_7  and  N_8
REMARK    4  A    between atoms: C_12  and  C_13
REMARK    5  A    between atoms: C_13  and  N_14
REMARK    6  A    between atoms: C_15  and  C_17
REMARK                            x       y       z     vdW  Elec       q    Type
REMARK                         _______ _______ _______ _____ _____    ______ ____
ROOT
ATOM      1  N   UNL     1       6.525  -2.624  -0.836  0.00  0.00    +0.000 N 
ATOM      2  C   UNL     1       7.270  -3.319  -1.813  0.00  0.00    +0.000 A 
ATOM      3  C   UNL     1       7.691  -2.656  -2.969  0.00  0.00    +0.000 A 
ATOM      4  N   UNL     1       8.534  -3.188  -3.896  0.00  0.00    +0.000 NA
ATOM      5  C   UNL     1       8.975  -4.444  -3.628  0.00  0.00    +0.000 A 
ATOM      6  C   UNL     1       8.529  -5.130  -2.509  0.00  0.00    +0.000 A 
ATOM      7  N   UNL     1       7.685  -4.587  -1.601  0.00  0.00    +0.000 NA
ATOM      8  H   UNL     1       5.850  -1.979  -1.225  0.00  0.00    +0.000 HD
ENDROOT
BRANCH   1  13
ATOM      9  C   UNL     1       4.906  -2.810   2.525  0.00  0.00    +0.000 A 
ATOM     10  C   UNL     1       5.763  -3.688   3.188  0.00  0.00    +0.000 A 
ATOM     11  C   UNL     1       6.864  -4.218   2.527  0.00  0.00    +0.000 A 
ATOM     12  C   UNL     1       7.113  -3.871   1.201  0.00  0.00    +0.000 A 
ATOM     13  C   UNL     1       6.268  -3.002   0.500  0.00  0.00    +0.000 A 
ATOM     14  C   UNL     1       5.165  -2.469   1.188  0.00  0.00    +0.000 A 
BRANCH   9  16
ATOM     15  C   UNL     1       3.499  -2.590   4.424  0.00  0.00    +0.000 C 
ATOM     16  O   UNL     1       3.794  -2.228   3.077  0.00  0.00    +0.000 OA
ENDBRANCH   9  16
ENDBRANCH   1  13
BRANCH   5  17
ATOM     17  C   UNL     1       9.956  -5.089  -4.572  0.00  0.00    +0.000 C 
BRANCH  17  18
ATOM     18  N   UNL     1       9.299  -5.818  -5.629  0.00  0.00    +0.000 N 
ATOM     19  C   UNL     1       8.856  -7.105  -5.479  0.00  0.00    +0.000 C 
ATOM     20  O   UNL     1       9.015  -7.727  -4.433  0.00  0.00    +0.000 OA
ATOM     21  H   UNL     1       9.189  -5.335  -6.512  0.00  0.00    +0.000 HD
BRANCH  19  22
ATOM     22  C   UNL     1       8.120  -7.670  -6.613  0.00  0.00    +0.000 A 
ATOM     23  C   UNL     1       7.228  -8.715  -6.409  0.00  0.00    +0.000 A 
ATOM     24  S   UNL     1       6.418  -9.204  -7.828  0.00  0.00    +0.000 S 
ATOM     25  C   UNL     1       7.272  -8.075  -8.773  0.00  0.00    +0.000 A 
ATOM     26  N   UNL     1       7.057  -7.979 -10.113  0.00  0.00    +0.000 NA
ATOM     27  C   UNL     1       7.804  -7.112 -10.712  0.00  0.00    +0.000 A 
ATOM     28  N   UNL     1       8.741  -6.328 -10.092  0.00  0.00    +0.000 N 
ATOM     29  C   UNL     1       8.962  -6.359  -8.734  0.00  0.00    +0.000 A 
ATOM     30  O   UNL     1       9.760  -5.593  -8.203  0.00  0.00    +0.000 OA
ATOM     31  C   UNL     1       8.156  -7.329  -8.015  0.00  0.00    +0.000 A 
ATOM     32  H   UNL     1       9.286  -5.657 -10.613  0.00  0.00    +0.000 HD
ENDBRANCH  19  22
ENDBRANCH  17  18
ENDBRANCH   5  17
TORSDOF 5
