REMARK  Name = 
REMARK  5 active torsions:
REMARK  status: ('A' for Active; 'I' for Inactive)
REMARK    1  A    between atoms: N_1  and  C_2
REMARK    2  A    between atoms: C_2  and  C_3
REMARK    3  A    between atoms: C_6  and  C_7
REMARK    4  A    between atoms: C_7  and  N_8
REMARK    5  A    between atoms: C_13  and  C_14
REMARK                            x       y       z     vdW  Elec       q    Type
REMARK                         _______ _______ _______ _____ _____    ______ ____
ROOT
ATOM      1  N   UNL     1       3.823   4.006   4.997  0.00  0.00    +0.000 N 
ATOM      2  C   UNL     1       4.122   4.680   6.166  0.00  0.00    +0.000 A 
ATOM      3  N   UNL     1       3.407   5.790   6.395  0.00  0.00    +0.000 NA
ATOM      4  C   UNL     1       3.698   6.504   7.501  0.00  0.00    +0.000 A 
ATOM      5  C   UNL     1       4.668   6.148   8.395  0.00  0.00    +0.000 A 
ATOM      6  C   UNL     1       5.332   4.986   8.080  0.00  0.00    +0.000 A 
ATOM      7  N   UNL     1       5.076   4.230   6.985  0.00  0.00    +0.000 NA
ATOM      8  H   UNL     1       2.923   4.331   4.665  0.00  0.00    +0.000 HD
ENDROOT
BRANCH   6   9
ATOM      9  C   UNL     1       6.419   4.498   8.984  0.00  0.00    +0.000 C 
ATOM     10  N   UNL     1       7.027   3.334   8.599  0.00  0.00    +0.000 N 
ATOM     11  O   UNL     1       6.751   5.098   9.998  0.00  0.00    +0.000 OA
ATOM     12  H   UNL     1       6.777   2.904   7.718  0.00  0.00    +0.000 HD
ATOM     13  H   UNL     1       7.812   2.985   9.132  0.00  0.00    +0.000 HD
ENDBRANCH   6   9
BRANCH   1  14
ATOM     14  C   UNL     1       4.016   2.569   5.040  0.00  0.00    +0.000 C 
BRANCH  14  18
ATOM     15  C   UNL     1       3.208   0.647   1.295  0.00  0.00    +0.000 A 
ATOM     16  C   UNL     1       2.157   0.884   2.184  0.00  0.00    +0.000 A 
ATOM     17  C   UNL     1       2.398   1.535   3.394  0.00  0.00    +0.000 A 
ATOM     18  C   UNL     1       3.701   1.922   3.703  0.00  0.00    +0.000 A 
ATOM     19  N   UNL     1       4.735   1.715   2.847  0.00  0.00    +0.000 NA
ATOM     20  C   UNL     1       4.467   1.094   1.675  0.00  0.00    +0.000 A 
BRANCH  15  21
ATOM     21  C   UNL     1       3.004  -0.098   0.007  0.00  0.00    +0.000 C 
BRANCH  21  22
ATOM     22  N   UNL     1       2.002   0.539  -0.840  0.00  0.00    +0.000 NA
ATOM     23  H   UNL     1       1.963   0.052  -1.734  0.00  0.00    +0.000 HD
ATOM     24  H   UNL     1       2.301   1.491  -1.048  0.00  0.00    +0.000 HD
ENDBRANCH  21  22
ENDBRANCH  15  21
ENDBRANCH  14  18
ENDBRANCH   1  14
TORSDOF 5
