REMARK  Name = 
REMARK  7 active torsions:
REMARK  status: ('A' for Active; 'I' for Inactive)
REMARK    1  A    between atoms: N_1  and  C_2
REMARK    2  A    between atoms: C_2  and  C_3
REMARK    3  A    between atoms: C_7  and  C_8
REMARK    4  A    between atoms: C_8  and  C_9
REMARK    5  A    between atoms: C_9  and  O_10
REMARK    6  A    between atoms: O_10  and  C_11
REMARK    7  A    between atoms: C_14  and  C_15
REMARK                            x       y       z     vdW  Elec       q    Type
REMARK                         _______ _______ _______ _____ _____    ______ ____
ROOT
ATOM      1  C   UNL     1       5.830   2.452  -4.748  0.00  0.00    +0.000 C 
ENDROOT
BRANCH   1   2
ATOM      2  C   UNL     1       5.382   1.195  -3.999  0.00  0.00    +0.000 C 
BRANCH   2   7
ATOM      3  C   UNL     1       3.710   2.404  -0.769  0.00  0.00    +0.000 A 
ATOM      4  C   UNL     1       2.359   2.356  -1.140  0.00  0.00    +0.000 A 
ATOM      5  C   UNL     1       1.990   1.907  -2.408  0.00  0.00    +0.000 A 
ATOM      6  C   UNL     1       2.963   1.504  -3.323  0.00  0.00    +0.000 A 
ATOM      7  C   UNL     1       4.320   1.542  -2.978  0.00  0.00    +0.000 A 
ATOM      8  C   UNL     1       4.681   1.989  -1.697  0.00  0.00    +0.000 A 
BRANCH   3   9
ATOM      9  C   UNL     1       4.111   2.879   0.605  0.00  0.00    +0.000 C 
BRANCH   9  10
ATOM     10  N   UNL     1       5.000   4.035   0.539  0.00  0.00    +0.000 NA
ATOM     11  H   UNL     1       5.166   4.379   1.484  0.00  0.00    +0.000 HD
ATOM     12  H   UNL     1       4.522   4.784   0.041  0.00  0.00    +0.000 HD
ENDBRANCH   9  10
ENDBRANCH   3   9
ENDBRANCH   2   7
ENDBRANCH   1   2
BRANCH   1  13
ATOM     13  O   UNL     1       6.831   2.134  -5.727  0.00  0.00    +0.000 OA
BRANCH  13  14
ATOM     14  C   UNL     1       7.277   3.213  -6.452  0.00  0.00    +0.000 A 
ATOM     15  C   UNL     1       7.283   4.531  -5.987  0.00  0.00    +0.000 A 
ATOM     16  C   UNL     1       7.725   5.573  -6.805  0.00  0.00    +0.000 A 
ATOM     17  C   UNL     1       8.190   5.309  -8.098  0.00  0.00    +0.000 A 
ATOM     18  C   UNL     1       8.219   3.988  -8.560  0.00  0.00    +0.000 A 
ATOM     19  C   UNL     1       7.769   2.946  -7.732  0.00  0.00    +0.000 A 
BRANCH  17  20
ATOM     20  C   UNL     1       8.605   6.473  -8.926  0.00  0.00    +0.000 C 
ATOM     21  N   UNL     1       9.500   6.251  -9.933  0.00  0.00    +0.000 N 
ATOM     22  O   UNL     1       8.191   7.602  -8.696  0.00  0.00    +0.000 OA
ATOM     23  H   UNL     1      10.048   5.406 -10.000  0.00  0.00    +0.000 HD
ATOM     24  H   UNL     1       9.853   7.080 -10.396  0.00  0.00    +0.000 HD
ENDBRANCH  17  20
ENDBRANCH  13  14
ENDBRANCH   1  13
TORSDOF 7
