REMARK  Name = 
REMARK  6 active torsions:
REMARK  status: ('A' for Active; 'I' for Inactive)
REMARK    1  A    between atoms: C_2  and  C_3
REMARK    2  A    between atoms: N_8  and  C_9
REMARK    3  A    between atoms: C_9  and  C_10
REMARK    4  A    between atoms: C_10  and  C_11
REMARK    5  A    between atoms: C_13  and  N_14
REMARK    6  A    between atoms: N_14  and  C_15
REMARK                            x       y       z     vdW  Elec       q    Type
REMARK                         _______ _______ _______ _____ _____    ______ ____
ROOT
ATOM      1  C   UNL     1      -5.848  -3.721   0.029  0.00  0.00    +0.000 A 
ATOM      2  C   UNL     1      -6.502  -4.954   0.089  0.00  0.00    +0.000 A 
ATOM      3  C   UNL     1      -7.896  -5.002   0.052  0.00  0.00    +0.000 A 
ATOM      4  C   UNL     1      -8.588  -3.793   0.013  0.00  0.00    +0.000 A 
ATOM      5  C   UNL     1      -7.868  -2.612  -0.044  0.00  0.00    +0.000 A 
ATOM      6  N   UNL     1      -6.519  -2.552  -0.048  0.00  0.00    +0.000 NA
ENDROOT
BRANCH   3   7
ATOM      7  N   UNL     1      -8.615  -6.216   0.143  0.00  0.00    +0.000 N 
ATOM      8  H   UNL     1      -9.606  -6.085  -0.050  0.00  0.00    +0.000 HD
BRANCH   7   9
ATOM      9  C   UNL     1      -8.139  -7.505  -0.294  0.00  0.00    +0.000 C 
ATOM     10  C   UNL     1      -8.526  -7.851  -1.749  0.00  0.00    +0.000 C 
ATOM     11  N   UNL     1      -8.981  -9.184  -1.292  0.00  0.00    +0.000 NA
ATOM     12  C   UNL     1      -9.088  -8.661   0.088  0.00  0.00    +0.000 C 
ATOM     13  H   UNL     1      -8.271  -9.909  -1.394  0.00  0.00    +0.000 HD
ENDBRANCH   7   9
ENDBRANCH   3   7
BRANCH   1  14
ATOM     14  C   UNL     1      -4.338  -3.691   0.047  0.00  0.00    +0.000 C 
BRANCH  14  15
ATOM     15  C   UNL     1      -3.726  -2.289  -0.058  0.00  0.00    +0.000 C 
BRANCH  15  21
ATOM     16  C   UNL     1       0.482   0.050   0.006  0.00  0.00    +0.000 A 
ATOM     17  C   UNL     1      -0.228   1.242  -0.063  0.00  0.00    +0.000 A 
ATOM     18  C   UNL     1      -1.602   1.159  -0.145  0.00  0.00    +0.000 A 
ATOM     19  N   UNL     1      -2.281  -0.007  -0.153  0.00  0.00    +0.000 NA
ATOM     20  C   UNL     1      -1.589  -1.161  -0.088  0.00  0.00    +0.000 A 
ATOM     21  N   UNL     1      -2.259  -2.396  -0.041  0.00  0.00    +0.000 N 
ATOM     22  C   UNL     1      -0.202  -1.167  -0.016  0.00  0.00    +0.000 A 
ATOM     23  H   UNL     1      -1.907  -2.990  -0.786  0.00  0.00    +0.000 HD
BRANCH  16  25
ATOM     24  N   UNL     1       3.066   0.085   0.200  0.00  0.00    +0.000 NA
ATOM     25  C   UNL     1       1.909   0.065   0.115  0.00  0.00    +0.000 C 
ENDBRANCH  16  25
ENDBRANCH  15  21
ENDBRANCH  14  15
ENDBRANCH   1  14
TORSDOF 6
