REMARK  Name = 
REMARK  8 active torsions:
REMARK  status: ('A' for Active; 'I' for Inactive)
REMARK    1  A    between atoms: C_1  and  C_2
REMARK    2  A    between atoms: C_5  and  N_6
REMARK    3  A    between atoms: N_6  and  C_7
REMARK    4  A    between atoms: C_7  and  C_8
REMARK    5  A    between atoms: C_8  and  C_11
REMARK    6  A    between atoms: C_16  and  O_17
REMARK    7  A    between atoms: O_17  and  C_18
REMARK    8  A    between atoms: C_24  and  C_25
REMARK                            x       y       z     vdW  Elec       q    Type
REMARK                         _______ _______ _______ _____ _____    ______ ____
ROOT
ATOM      1  C   UNL     1      -5.546  -0.700  -0.054  0.00  0.00    +0.000 C 
ATOM      2  F   UNL     1      -5.862   0.066   1.041  0.00  0.00    +0.000 F 
ATOM      3  F   UNL     1      -5.819   0.107  -1.129  0.00  0.00    +0.000 F 
ENDROOT
BRANCH   1   4
ATOM      4  C   UNL     1      -6.407  -1.951  -0.097  0.00  0.00    +0.000 A 
ATOM      5  C   UNL     1      -5.889  -3.254  -0.146  0.00  0.00    +0.000 A 
ATOM      6  C   UNL     1      -6.747  -4.348  -0.149  0.00  0.00    +0.000 A 
ATOM      7  F   UNL     1      -6.228  -5.583  -0.184  0.00  0.00    +0.000 F 
ATOM      8  C   UNL     1      -8.121  -4.182  -0.110  0.00  0.00    +0.000 A 
ATOM      9  C   UNL     1      -8.657  -2.900  -0.068  0.00  0.00    +0.000 A 
ATOM     10  C   UNL     1      -7.808  -1.790  -0.076  0.00  0.00    +0.000 A 
BRANCH   9  11
ATOM     11  O   UNL     1     -10.026  -2.832  -0.045  0.00  0.00    +0.000 OA
BRANCH  11  12
ATOM     12  C   UNL     1     -10.654  -1.655   0.513  0.00  0.00    +0.000 C 
ATOM     13  C   UNL     1     -10.509  -1.406   2.031  0.00  0.00    +0.000 C 
ATOM     14  N   UNL     1     -11.951  -1.094   2.110  0.00  0.00    +0.000 NA
ATOM     15  C   UNL     1     -12.158  -1.802   0.830  0.00  0.00    +0.000 C 
ATOM     16  H   UNL     1     -12.160  -0.097   2.063  0.00  0.00    +0.000 HD
ENDBRANCH  11  12
ENDBRANCH   9  11
ENDBRANCH   1   4
BRANCH   1  17
ATOM     17  C   UNL     1      -4.012  -0.904  -0.034  0.00  0.00    +0.000 C 
BRANCH  17  18
ATOM     18  N   UNL     1      -3.518  -1.659   1.133  0.00  0.00    +0.000 N 
ATOM     19  H   UNL     1      -3.957  -1.398   2.017  0.00  0.00    +0.000 HD
BRANCH  18  24
ATOM     20  C   UNL     1       1.863  -3.342   1.800  0.00  0.00    +0.000 C 
ATOM     21  C   UNL     1       0.474  -2.831   1.554  0.00  0.00    +0.000 A 
ATOM     22  N   UNL     1      -0.418  -3.075   2.551  0.00  0.00    +0.000 NA
ATOM     23  C   UNL     1      -1.695  -2.655   2.375  0.00  0.00    +0.000 A 
ATOM     24  C   UNL     1      -2.164  -1.967   1.256  0.00  0.00    +0.000 A 
ATOM     25  C   UNL     1      -1.228  -1.754   0.243  0.00  0.00    +0.000 A 
ATOM     26  C   UNL     1       0.101  -2.180   0.376  0.00  0.00    +0.000 A 
BRANCH  26  27
ATOM     27  C   UNL     1       1.073  -1.901  -0.717  0.00  0.00    +0.000 C 
ATOM     28  N   UNL     1       0.582  -1.798  -1.991  0.00  0.00    +0.000 N 
ATOM     29  O   UNL     1       2.272  -1.764  -0.517  0.00  0.00    +0.000 OA
ATOM     30  H   UNL     1      -0.345  -2.091  -2.263  0.00  0.00    +0.000 HD
ATOM     31  H   UNL     1       1.268  -1.675  -2.726  0.00  0.00    +0.000 HD
ENDBRANCH  26  27
ENDBRANCH  18  24
ENDBRANCH  17  18
ENDBRANCH   1  17
TORSDOF 7
