REMARK  Name = 
REMARK  4 active torsions:
REMARK  status: ('A' for Active; 'I' for Inactive)
REMARK    1  A    between atoms: N_1  and  C_2
REMARK    2  A    between atoms: C_2  and  C_3
REMARK    3  A    between atoms: C_5  and  C_6
REMARK    4  A    between atoms: C_6  and  N_7
REMARK                            x       y       z     vdW  Elec       q    Type
REMARK                         _______ _______ _______ _____ _____    ______ ____
ROOT
ATOM      1  C   UNL     1       2.477   4.948   0.236  0.00  0.00    +0.000 C 
ENDROOT
BRANCH   1   2
ATOM      2  N   UNL     1       3.448   5.381   1.231  0.00  0.00    +0.000 N 
ATOM      3  C   UNL     1       3.378   5.043   2.561  0.00  0.00    +0.000 A 
ATOM      4  C   UNL     1       4.410   5.670   3.217  0.00  0.00    +0.000 A 
ATOM      5  C   UNL     1       5.150   6.405   2.252  0.00  0.00    +0.000 A 
ATOM      6  C   UNL     1       6.292   7.228   2.331  0.00  0.00    +0.000 A 
ATOM      7  C   UNL     1       6.804   7.807   1.166  0.00  0.00    +0.000 A 
ATOM      8  C   UNL     1       6.190   7.575  -0.061  0.00  0.00    +0.000 A 
ATOM      9 CL   UNL     1       6.851   8.288  -1.483  0.00  0.00    +0.000 Cl
ATOM     10  C   UNL     1       5.048   6.774  -0.169  0.00  0.00    +0.000 A 
ATOM     11  C   UNL     1       4.538   6.197   1.009  0.00  0.00    +0.000 A 
ENDBRANCH   1   2
BRANCH   1  14
ATOM     12  C   UNL     1       2.957   1.314  -0.563  0.00  0.00    +0.000 C 
ATOM     13  C   UNL     1       3.034   2.459   0.432  0.00  0.00    +0.000 C 
ATOM     14  C   UNL     1       2.883   3.663  -0.476  0.00  0.00    +0.000 C 
ATOM     15  C   UNL     1       1.830   3.155  -1.451  0.00  0.00    +0.000 C 
ATOM     16  O   UNL     1       2.046   1.742  -1.600  0.00  0.00    +0.000 OA
BRANCH  12  17
ATOM     17  C   UNL     1       2.508  -0.022   0.047  0.00  0.00    +0.000 C 
BRANCH  17  18
ATOM     18  N   UNL     1       1.159   0.045   0.622  0.00  0.00    +0.000 NA
ATOM     19  H   UNL     1       0.853  -0.895   0.865  0.00  0.00    +0.000 HD
ATOM     20  H   UNL     1       0.530   0.369  -0.117  0.00  0.00    +0.000 HD
ENDBRANCH  17  18
ENDBRANCH  12  17
ENDBRANCH   1  14
TORSDOF 4
