REMARK  Name = 
REMARK  5 active torsions:
REMARK  status: ('A' for Active; 'I' for Inactive)
REMARK    1  A    between atoms: C_1  and  C_2
REMARK    2  A    between atoms: C_2  and  N_3
REMARK    3  A    between atoms: C_2  and  C_13
REMARK    4  A    between atoms: N_3  and  C_4
REMARK    5  A    between atoms: C_7  and  C_8
REMARK                            x       y       z     vdW  Elec       q    Type
REMARK                         _______ _______ _______ _____ _____    ______ ____
ROOT
ATOM      1  N   UNL     1       2.702  -1.098  -0.995  0.00  0.00    +0.000 N 
ATOM      2  H   UNL     1       3.644  -0.987  -1.370  0.00  0.00    +0.000 HD
ENDROOT
BRANCH   1   3
ATOM      3  C   UNL     1       2.439  -2.456  -0.787  0.00  0.00    +0.000 A 
ATOM      4  C   UNL     1       2.226  -3.253  -1.919  0.00  0.00    +0.000 A 
ATOM      5  C   UNL     1       1.959  -4.622  -1.808  0.00  0.00    +0.000 A 
ATOM      6  C   UNL     1       1.947  -5.236  -0.554  0.00  0.00    +0.000 A 
ATOM      7  C   UNL     1       2.201  -4.465   0.584  0.00  0.00    +0.000 A 
ATOM      8  C   UNL     1       2.452  -3.088   0.462  0.00  0.00    +0.000 A 
BRANCH   6   9
ATOM      9  C   UNL     1       1.629  -6.688  -0.485  0.00  0.00    +0.000 C 
ATOM     10  N   UNL     1       2.105  -7.395   0.584  0.00  0.00    +0.000 N 
ATOM     11  O   UNL     1       0.993  -7.249  -1.369  0.00  0.00    +0.000 OA
ATOM     12  H   UNL     1       2.828  -7.040   1.193  0.00  0.00    +0.000 HD
ATOM     13  H   UNL     1       1.971  -8.398   0.547  0.00  0.00    +0.000 HD
ENDBRANCH   6   9
ENDBRANCH   1   3
BRANCH   1  15
ATOM     14  C   UNL     1       0.911   0.006   0.289  0.00  0.00    +0.000 C 
ATOM     15  C   UNL     1       2.420  -0.099   0.042  0.00  0.00    +0.000 C 
BRANCH  15  16
ATOM     16  C   UNL     1       2.984   1.249  -0.400  0.00  0.00    +0.000 A 
ATOM     17  C   UNL     1       3.935   1.911   0.398  0.00  0.00    +0.000 A 
ATOM     18  C   UNL     1       4.450   3.156   0.022  0.00  0.00    +0.000 A 
ATOM     19  C   UNL     1       4.021   3.759  -1.159  0.00  0.00    +0.000 A 
ATOM     20  C   UNL     1       3.084   3.109  -1.953  0.00  0.00    +0.000 A 
ATOM     21  F   UNL     1       2.669   3.691  -3.086  0.00  0.00    +0.000 F 
ATOM     22  C   UNL     1       2.566   1.868  -1.589  0.00  0.00    +0.000 A 
ENDBRANCH  15  16
ENDBRANCH   1  15
TORSDOF 4
