REMARK  Name = 
REMARK  5 active torsions:
REMARK  status: ('A' for Active; 'I' for Inactive)
REMARK    1  A    between atoms: C_2  and  C_4
REMARK    2  A    between atoms: C_7  and  N_8
REMARK    3  A    between atoms: N_8  and  C_9
REMARK    4  A    between atoms: C_9  and  C_10
REMARK    5  A    between atoms: C_15  and  C_16
REMARK                            x       y       z     vdW  Elec       q    Type
REMARK                         _______ _______ _______ _____ _____    ______ ____
ROOT
ATOM      1  C   UNL     1       4.898   2.816   5.323  0.00  0.00    +0.000 C 
ENDROOT
BRANCH   1   2
ATOM      2  C   UNL     1       5.644   3.848   6.135  0.00  0.00    +0.000 A 
ATOM      3  C   UNL     1       5.346   5.207   6.036  0.00  0.00    +0.000 A 
ATOM      4  C   UNL     1       6.041   6.113   6.829  0.00  0.00    +0.000 A 
ATOM      5  F   UNL     1       5.756   7.419   6.735  0.00  0.00    +0.000 F 
ATOM      6  C   UNL     1       7.021   5.693   7.725  0.00  0.00    +0.000 A 
ATOM      7  C   UNL     1       7.354   4.334   7.851  0.00  0.00    +0.000 A 
ATOM      8  C   UNL     1       6.645   3.430   7.036  0.00  0.00    +0.000 A 
BRANCH   7   9
ATOM      9  C   UNL     1       8.387   3.873   8.805  0.00  0.00    +0.000 A 
ATOM     10  C   UNL     1       9.495   4.662   9.149  0.00  0.00    +0.000 A 
ATOM     11  C   UNL     1      10.432   4.215  10.081  0.00  0.00    +0.000 A 
ATOM     12  C   UNL     1      10.251   2.967  10.646  0.00  0.00    +0.000 A 
ATOM     13  N   UNL     1       9.220   2.157  10.342  0.00  0.00    +0.000 NA
ATOM     14  C   UNL     1       8.321   2.628   9.440  0.00  0.00    +0.000 A 
ENDBRANCH   7   9
ENDBRANCH   1   2
BRANCH   1  15
ATOM     15  N   UNL     1       5.859   2.099   4.498  0.00  0.00    +0.000 N 
ATOM     16  H   UNL     1       5.974   2.517   3.582  0.00  0.00    +0.000 HD
BRANCH  15  20
ATOM     17  C   UNL     1       5.968  -2.002   4.491  0.00  0.00    +0.000 A 
ATOM     18  C   UNL     1       5.146  -1.320   5.373  0.00  0.00    +0.000 A 
ATOM     19  N   UNL     1       5.046   0.038   5.375  0.00  0.00    +0.000 NA
ATOM     20  C   UNL     1       5.791   0.708   4.469  0.00  0.00    +0.000 A 
ATOM     21  C   UNL     1       6.622  -0.008   3.594  0.00  0.00    +0.000 A 
ATOM     22  N   UNL     1       6.727  -1.361   3.563  0.00  0.00    +0.000 NA
BRANCH  17  24
ATOM     23  N   UNL     1       6.932  -4.060   3.668  0.00  0.00    +0.000 N 
ATOM     24  C   UNL     1       6.060  -3.486   4.553  0.00  0.00    +0.000 C 
ATOM     25  O   UNL     1       5.405  -4.151   5.344  0.00  0.00    +0.000 OA
ATOM     26  H   UNL     1       7.058  -5.063   3.669  0.00  0.00    +0.000 HD
ATOM     27  H   UNL     1       7.474  -3.477   3.040  0.00  0.00    +0.000 HD
ENDBRANCH  17  24
ENDBRANCH  15  20
ENDBRANCH   1  15
TORSDOF 5
