REMARK  Name = 
REMARK  7 active torsions:
REMARK  status: ('A' for Active; 'I' for Inactive)
REMARK    1  A    between atoms: C_2  and  C_4
REMARK    2  A    between atoms: N_8  and  C_9
REMARK    3  A    between atoms: C_9  and  C_10
REMARK    4  A    between atoms: C_14  and  C_15
REMARK    5  A    between atoms: C_19  and  O_20
REMARK    6  A    between atoms: O_20  and  C_21
REMARK    7  A    between atoms: C_21  and  C_22
REMARK                            x       y       z     vdW  Elec       q    Type
REMARK                         _______ _______ _______ _____ _____    ______ ____
ROOT
ATOM      1  C   UNL     1       5.020   1.430  -5.758  0.00  0.00    +0.000 C 
ATOM      2  C   UNL     1       3.955   0.688  -4.950  0.00  0.00    +0.000 C 
ATOM      3  C   UNL     1       5.298   0.926  -4.352  0.00  0.00    +0.000 C 
ENDROOT
BRANCH   1   8
ATOM      4  C   UNL     1       6.964   6.270  -5.705  0.00  0.00    +0.000 A 
ATOM      5  C   UNL     1       7.208   5.222  -4.825  0.00  0.00    +0.000 A 
ATOM      6  C   UNL     1       6.474   4.039  -4.947  0.00  0.00    +0.000 A 
ATOM      7  C   UNL     1       5.508   3.928  -5.940  0.00  0.00    +0.000 A 
ATOM      8  N   UNL     1       4.671   2.820  -6.077  0.00  0.00    +0.000 N 
ATOM      9  N   UNL     1       5.258   4.945  -6.793  0.00  0.00    +0.000 NA
ATOM     10  C   UNL     1       5.978   6.090  -6.660  0.00  0.00    +0.000 A 
ATOM     11  H   UNL     1       4.119   2.980  -6.917  0.00  0.00    +0.000 HD
BRANCH   4  13
ATOM     12  N   UNL     1       8.935   7.548  -5.090  0.00  0.00    +0.000 N 
ATOM     13  C   UNL     1       7.681   7.560  -5.636  0.00  0.00    +0.000 C 
ATOM     14  O   UNL     1       7.189   8.592  -6.072  0.00  0.00    +0.000 OA
ATOM     15  H   UNL     1       9.452   8.419  -5.122  0.00  0.00    +0.000 HD
ATOM     16  H   UNL     1       9.462   6.698  -4.945  0.00  0.00    +0.000 HD
ENDBRANCH   4  13
ENDBRANCH   1   8
BRANCH   1  17
ATOM     17  C   UNL     1       5.706   0.670  -6.893  0.00  0.00    +0.000 A 
ATOM     18  C   UNL     1       7.098   0.693  -7.058  0.00  0.00    +0.000 A 
ATOM     19  C   UNL     1       7.724  -0.088  -8.029  0.00  0.00    +0.000 A 
ATOM     20  C   UNL     1       6.967  -0.921  -8.855  0.00  0.00    +0.000 A 
ATOM     21  C   UNL     1       5.571  -0.978  -8.735  0.00  0.00    +0.000 A 
ATOM     22  C   UNL     1       4.969  -0.149  -7.770  0.00  0.00    +0.000 A 
BRANCH  21  23
ATOM     23  C   UNL     1       4.755  -1.917  -9.536  0.00  0.00    +0.000 A 
ATOM     24  C   UNL     1       5.182  -3.212  -9.822  0.00  0.00    +0.000 A 
ATOM     25  N   UNL     1       4.463  -4.140 -10.499  0.00  0.00    +0.000 NA
ATOM     26  C   UNL     1       3.230  -3.756 -10.905  0.00  0.00    +0.000 A 
ATOM     27  C   UNL     1       2.688  -2.500 -10.684  0.00  0.00    +0.000 A 
ATOM     28  C   UNL     1       3.476  -1.573  -9.999  0.00  0.00    +0.000 A 
BRANCH  27  29
ATOM     29  O   UNL     1       1.421  -2.290 -11.152  0.00  0.00    +0.000 OA
BRANCH  29  30
ATOM     30  C   UNL     1       0.851  -1.007 -10.890  0.00  0.00    +0.000 C 
BRANCH  30  31
ATOM     31  C   UNL     1      -0.549  -0.954 -11.474  0.00  0.00    +0.000 C 
ATOM     32  F   UNL     1      -1.083   0.273 -11.235  0.00  0.00    +0.000 F 
ENDBRANCH  30  31
ENDBRANCH  29  30
ENDBRANCH  27  29
ENDBRANCH  21  23
ENDBRANCH   1  17
TORSDOF 7
