REMARK  Name = 
REMARK  5 active torsions:
REMARK  status: ('A' for Active; 'I' for Inactive)
REMARK    1  A    between atoms: C_2  and  C_3
REMARK    2  A    between atoms: C_6  and  C_7
REMARK    3  A    between atoms: C_7  and  N_8
REMARK    4  A    between atoms: N_8  and  C_9
REMARK    5  A    between atoms: C_12  and  C_13
REMARK                            x       y       z     vdW  Elec       q    Type
REMARK                         _______ _______ _______ _____ _____    ______ ____
ROOT
ATOM      1  N   UNL     1       3.413  -2.467  -0.894  0.00  0.00    +0.000 N 
ATOM      2  H   UNL     1       3.677  -2.334  -1.863  0.00  0.00    +0.000 HD
ENDROOT
BRANCH   1   3
ATOM      3  C   UNL     1       2.828  -3.712  -0.621  0.00  0.00    +0.000 A 
ATOM      4  C   UNL     1       2.520  -4.181   0.655  0.00  0.00    +0.000 A 
ATOM      5  C   UNL     1       1.947  -5.452   0.834  0.00  0.00    +0.000 A 
ATOM      6  C   UNL     1       1.654  -6.264  -0.271  0.00  0.00    +0.000 A 
ATOM      7  C   UNL     1       1.944  -5.797  -1.554  0.00  0.00    +0.000 A 
ATOM      8  C   UNL     1       2.517  -4.534  -1.717  0.00  0.00    +0.000 A 
BRANCH   6   9
ATOM      9  C   UNL     1       1.091  -7.621  -0.048  0.00  0.00    +0.000 C 
ATOM     10  N   UNL     1       0.378  -8.184  -1.070  0.00  0.00    +0.000 N 
ATOM     11  O   UNL     1       1.237  -8.212   1.015  0.00  0.00    +0.000 OA
ATOM     12  H   UNL     1       0.045  -7.660  -1.866  0.00  0.00    +0.000 HD
ATOM     13  H   UNL     1      -0.059  -9.080  -0.882  0.00  0.00    +0.000 HD
ENDBRANCH   6   9
ENDBRANCH   1   3
BRANCH   1  14
ATOM     14  C   UNL     1       3.691  -1.365   0.027  0.00  0.00    +0.000 C 
ATOM     15  C   UNL     1       4.702  -1.433   1.154  0.00  0.00    +0.000 C 
ATOM     16  C   UNL     1       5.104  -0.798  -0.134  0.00  0.00    +0.000 C 
BRANCH  14  20
ATOM     17  C   UNL     1       0.490   1.552   0.596  0.00  0.00    +0.000 A 
ATOM     18  C   UNL     1       0.555   0.405   1.395  0.00  0.00    +0.000 A 
ATOM     19  C   UNL     1       1.568  -0.540   1.191  0.00  0.00    +0.000 A 
ATOM     20  C   UNL     1       2.540  -0.374   0.190  0.00  0.00    +0.000 A 
ATOM     21  C   UNL     1       2.427   0.762  -0.630  0.00  0.00    +0.000 A 
ATOM     22  C   UNL     1       1.429   1.722  -0.424  0.00  0.00    +0.000 A 
ATOM     23 CL   UNL     1       1.433   3.115  -1.447  0.00  0.00    +0.000 Cl
BRANCH  17  25
ATOM     24  N   UNL     1      -1.362   3.294   1.102  0.00  0.00    +0.000 NA
ATOM     25  C   UNL     1      -0.532   2.524   0.861  0.00  0.00    +0.000 C 
ENDBRANCH  17  25
ENDBRANCH  14  20
ENDBRANCH   1  14
TORSDOF 5
