REMARK  Name = 
REMARK  7 active torsions:
REMARK  status: ('A' for Active; 'I' for Inactive)
REMARK    1  A    between atoms: C_1  and  N_2
REMARK    2  A    between atoms: N_2  and  C_3
REMARK    3  A    between atoms: C_3  and  C_4
REMARK    4  A    between atoms: C_7  and  C_8
REMARK    5  A    between atoms: C_8  and  N_9
REMARK    6  A    between atoms: C_10  and  C_12
REMARK    7  A    between atoms: C_24  and  C_26
REMARK                            x       y       z     vdW  Elec       q    Type
REMARK                         _______ _______ _______ _____ _____    ______ ____
ROOT
ATOM      1  C   UNL     1       2.175   1.336  -2.003  0.00  0.00    +0.000 A 
ATOM      2  C   UNL     1       1.357   0.547  -2.807  0.00  0.00    +0.000 A 
ATOM      3  C   UNL     1       0.541   1.171  -3.750  0.00  0.00    +0.000 A 
ATOM      4  C   UNL     1       0.570   2.562  -3.882  0.00  0.00    +0.000 A 
ATOM      5  C   UNL     1       1.409   3.265  -3.027  0.00  0.00    +0.000 A 
ATOM      6  N   UNL     1       2.204   2.689  -2.103  0.00  0.00    +0.000 NA
ENDROOT
BRANCH   1   7
ATOM      7  C   UNL     1       3.074   0.715  -0.961  0.00  0.00    +0.000 C 
BRANCH   7   9
ATOM      8  C   UNL     1       1.173   0.897   0.721  0.00  0.00    +0.000 C 
ATOM      9  N   UNL     1       2.517   0.468   0.382  0.00  0.00    +0.000 N 
ATOM     10  C   UNL     1       3.202  -0.310   1.339  0.00  0.00    +0.000 C 
ATOM     11  O   UNL     1       2.624  -0.670   2.365  0.00  0.00    +0.000 OA
BRANCH  10  12
ATOM     12  C   UNL     1       4.576  -0.715   1.068  0.00  0.00    +0.000 A 
ATOM     13  C   UNL     1       5.292  -1.813   1.503  0.00  0.00    +0.000 A 
ATOM     14  C   UNL     1       6.588  -1.713   0.931  0.00  0.00    +0.000 A 
ATOM     15  C   UNL     1       6.593  -0.552   0.206  0.00  0.00    +0.000 A 
ATOM     16  O   UNL     1       5.390   0.066   0.300  0.00  0.00    +0.000 OA
ENDBRANCH  10  12
ENDBRANCH   7   9
ENDBRANCH   1   7
BRANCH   4  17
ATOM     17  C   UNL     1      -0.313   3.298  -4.846  0.00  0.00    +0.000 C 
BRANCH  17  18
ATOM     18  N   UNL     1      -1.564   3.638  -4.221  0.00  0.00    +0.000 N 
ATOM     19  C   UNL     1      -2.573   4.266  -4.903  0.00  0.00    +0.000 C 
ATOM     20  O   UNL     1      -2.484   4.546  -6.095  0.00  0.00    +0.000 OA
ATOM     21  H   UNL     1      -1.567   3.682  -3.207  0.00  0.00    +0.000 HD
BRANCH  19  22
ATOM     22  C   UNL     1      -3.798   4.519  -4.135  0.00  0.00    +0.000 A 
ATOM     23  C   UNL     1      -5.017   4.638  -4.790  0.00  0.00    +0.000 A 
ATOM     24  S   UNL     1      -6.341   4.839  -3.733  0.00  0.00    +0.000 S 
ATOM     25  C   UNL     1      -5.326   4.833  -2.368  0.00  0.00    +0.000 A 
ATOM     26  N   UNL     1      -5.832   4.984  -1.115  0.00  0.00    +0.000 NA
ATOM     27  C   UNL     1      -4.946   4.988  -0.176  0.00  0.00    +0.000 A 
ATOM     28  N   UNL     1      -3.596   4.856  -0.376  0.00  0.00    +0.000 N 
ATOM     29  C   UNL     1      -3.044   4.674  -1.619  0.00  0.00    +0.000 A 
ATOM     30  O   UNL     1      -1.838   4.508  -1.763  0.00  0.00    +0.000 OA
ATOM     31  C   UNL     1      -3.997   4.667  -2.713  0.00  0.00    +0.000 A 
ATOM     32  H   UNL     1      -2.954   4.861   0.401  0.00  0.00    +0.000 HD
ENDBRANCH  19  22
ENDBRANCH  17  18
ENDBRANCH   4  17
TORSDOF 6
