REMARK  Name = 
REMARK  6 active torsions:
REMARK  status: ('A' for Active; 'I' for Inactive)
REMARK    1  A    between atoms: N_1  and  C_2
REMARK    2  A    between atoms: C_2  and  C_3
REMARK    3  A    between atoms: C_3  and  C_4
REMARK    4  A    between atoms: C_7  and  C_8
REMARK    5  A    between atoms: C_8  and  N_9
REMARK    6  A    between atoms: C_15  and  O_16
REMARK                            x       y       z     vdW  Elec       q    Type
REMARK                         _______ _______ _______ _____ _____    ______ ____
ROOT
ATOM      1  C   UNL     1       8.681   0.503  -1.574  0.00  0.00    +0.000 C 
ENDROOT
BRANCH   1   2
ATOM      2  N   UNL     1       9.061   1.910  -1.586  0.00  0.00    +0.000 N 
ATOM      3  C   UNL     1       9.302   2.657  -2.718  0.00  0.00    +0.000 A 
ATOM      4  C   UNL     1       9.596   3.945  -2.324  0.00  0.00    +0.000 A 
ATOM      5  C   UNL     1       9.553   3.980  -0.905  0.00  0.00    +0.000 A 
ATOM      6  C   UNL     1       9.731   4.971   0.073  0.00  0.00    +0.000 A 
ATOM      7  C   UNL     1       9.595   4.594   1.410  0.00  0.00    +0.000 A 
ATOM      8  C   UNL     1       9.317   3.265   1.704  0.00  0.00    +0.000 A 
ATOM      9  N   UNL     1       9.149   2.276   0.809  0.00  0.00    +0.000 NA
ATOM     10  C   UNL     1       9.257   2.690  -0.471  0.00  0.00    +0.000 A 
BRANCH   8  11
ATOM     11  O   UNL     1       9.177   2.873   3.009  0.00  0.00    +0.000 OA
ATOM     12  H   UNL     1       9.238   3.659   3.565  0.00  0.00    +0.000 HD
ENDBRANCH   8  11
ENDBRANCH   1   2
BRANCH   1  16
ATOM     13  C   UNL     1       4.364   0.122  -1.361  0.00  0.00    +0.000 A 
ATOM     14  C   UNL     1       5.013   0.153  -2.601  0.00  0.00    +0.000 A 
ATOM     15  C   UNL     1       6.407   0.259  -2.677  0.00  0.00    +0.000 A 
ATOM     16  C   UNL     1       7.182   0.327  -1.511  0.00  0.00    +0.000 A 
ATOM     17  C   UNL     1       6.531   0.263  -0.270  0.00  0.00    +0.000 A 
ATOM     18  C   UNL     1       5.139   0.156  -0.196  0.00  0.00    +0.000 A 
BRANCH  13  19
ATOM     19  C   UNL     1       2.854   0.102  -1.285  0.00  0.00    +0.000 C 
BRANCH  19  20
ATOM     20  C   UNL     1       2.256  -1.307  -1.313  0.00  0.00    +0.000 C 
BRANCH  20  21
ATOM     21  N   UNL     1       0.792  -1.250  -1.285  0.00  0.00    +0.000 NA
ATOM     22  H   UNL     1       0.415  -2.196  -1.336  0.00  0.00    +0.000 HD
ATOM     23  H   UNL     1       0.452  -0.762  -2.113  0.00  0.00    +0.000 HD
ENDBRANCH  20  21
ENDBRANCH  19  20
ENDBRANCH  13  19
ENDBRANCH   1  16
TORSDOF 6
