REMARK  Name = 
REMARK  7 active torsions:
REMARK  status: ('A' for Active; 'I' for Inactive)
REMARK    1  A    between atoms: N_1  and  C_2
REMARK    2  A    between atoms: C_2  and  C_3
REMARK    3  A    between atoms: C_3  and  N_4
REMARK    4  A    between atoms: C_3  and  C_17
REMARK    5  A    between atoms: C_5  and  C_7
REMARK    6  A    between atoms: C_20  and  O_21
REMARK    7  A    between atoms: O_21  and  C_22
REMARK                            x       y       z     vdW  Elec       q    Type
REMARK                         _______ _______ _______ _____ _____    ______ ____
ROOT
ATOM      1  C   UNL     1       2.856  -0.053  -1.368  0.00  0.00    +0.000 C 
ENDROOT
BRANCH   1   2
ATOM      2  C   UNL     1       4.381  -0.037  -1.373  0.00  0.00    +0.000 A 
ATOM      3  C   UNL     1       5.064  -1.056  -2.043  0.00  0.00    +0.000 A 
ATOM      4  C   UNL     1       6.458  -1.068  -2.095  0.00  0.00    +0.000 A 
ATOM      5  C   UNL     1       7.197  -0.031  -1.526  0.00  0.00    +0.000 A 
ATOM      6  C   UNL     1       6.533   0.979  -0.826  0.00  0.00    +0.000 A 
ATOM      7  C   UNL     1       5.134   0.980  -0.751  0.00  0.00    +0.000 A 
BRANCH   5   8
ATOM      8  O   UNL     1       8.574   0.025  -1.560  0.00  0.00    +0.000 OA
BRANCH   8   9
ATOM      9  C   UNL     1       9.214  -0.398  -2.722  0.00  0.00    +0.000 A 
ATOM     10  C   UNL     1      10.513  -0.865  -2.589  0.00  0.00    +0.000 A 
ATOM     11  C   UNL     1      11.170  -1.320  -3.730  0.00  0.00    +0.000 A 
ATOM     12  C   UNL     1      10.511  -1.291  -4.955  0.00  0.00    +0.000 A 
ATOM     13  C   UNL     1       9.223  -0.786  -4.994  0.00  0.00    +0.000 A 
ATOM     14  N   UNL     1       8.570  -0.321  -3.911  0.00  0.00    +0.000 NA
ENDBRANCH   8   9
ENDBRANCH   5   8
ENDBRANCH   1   2
BRANCH   1  15
ATOM     15  N   UNL     1       2.382   1.094  -2.123  0.00  0.00    +0.000 N 
ATOM     16  C   UNL     1       1.203   1.117  -2.816  0.00  0.00    +0.000 C 
ATOM     17  O   UNL     1       0.504   0.123  -2.984  0.00  0.00    +0.000 OA
ATOM     18  H   UNL     1       2.837   1.970  -1.908  0.00  0.00    +0.000 HD
BRANCH  16  19
ATOM     19  C   UNL     1       0.854   2.416  -3.402  0.00  0.00    +0.000 A 
ATOM     20  C   UNL     1       0.091   2.494  -4.557  0.00  0.00    +0.000 A 
ATOM     21  S   UNL     1      -0.140   4.093  -5.110  0.00  0.00    +0.000 S 
ATOM     22  C   UNL     1       0.745   4.734  -3.804  0.00  0.00    +0.000 A 
ATOM     23  N   UNL     1       0.952   6.073  -3.680  0.00  0.00    +0.000 NA
ATOM     24  C   UNL     1       1.630   6.415  -2.635  0.00  0.00    +0.000 A 
ATOM     25  N   UNL     1       2.105   5.541  -1.691  0.00  0.00    +0.000 N 
ATOM     26  C   UNL     1       1.920   4.184  -1.773  0.00  0.00    +0.000 A 
ATOM     27  O   UNL     1       2.373   3.431  -0.917  0.00  0.00    +0.000 OA
ATOM     28  C   UNL     1       1.193   3.745  -2.950  0.00  0.00    +0.000 A 
ATOM     29  H   UNL     1       2.627   5.872  -0.893  0.00  0.00    +0.000 HD
ENDBRANCH  16  19
ENDBRANCH   1  15
BRANCH   1  30
ATOM     30  C   UNL     1       2.257  -0.073   0.066  0.00  0.00    +0.000 C 
BRANCH  30  31
ATOM     31  N   UNL     1       2.678  -1.221   0.882  0.00  0.00    +0.000 NA
ATOM     32  H   UNL     1       2.444  -1.040   1.855  0.00  0.00    +0.000 HD
ATOM     33  H   UNL     1       3.695  -1.309   0.843  0.00  0.00    +0.000 HD
ENDBRANCH  30  31
ENDBRANCH   1  30
TORSDOF 7
