REMARK  Name = 
REMARK  9 active torsions:
REMARK  status: ('A' for Active; 'I' for Inactive)
REMARK    1  A    between atoms: C_1  and  O_2
REMARK    2  A    between atoms: O_2  and  C_3
REMARK    3  A    between atoms: C_7  and  C_8
REMARK    4  A    between atoms: C_8  and  N_9
REMARK    5  A    between atoms: N_9  and  C_10
REMARK    6  A    between atoms: C_10  and  C_11
REMARK    7  A    between atoms: C_14  and  C_15
REMARK    8  A    between atoms: C_15  and  N_16
REMARK    9  A    between atoms: C_17  and  C_19
REMARK                            x       y       z     vdW  Elec       q    Type
REMARK                         _______ _______ _______ _____ _____    ______ ____
ROOT
ATOM      1  C   UNL     1       9.113   5.115  -0.464  0.00  0.00    +0.000 A 
ATOM      2  C   UNL     1       8.651   6.345  -0.959  0.00  0.00    +0.000 A 
ATOM      3  C   UNL     1       9.140   7.554  -0.457  0.00  0.00    +0.000 A 
ATOM      4  C   UNL     1      10.100   7.562   0.561  0.00  0.00    +0.000 A 
ATOM      5  C   UNL     1      10.533   6.337   1.088  0.00  0.00    +0.000 A 
ATOM      6  C   UNL     1      10.053   5.126   0.575  0.00  0.00    +0.000 A 
ENDROOT
BRANCH   1   7
ATOM      7  C   UNL     1       8.589   3.811  -1.034  0.00  0.00    +0.000 C 
BRANCH   7   8
ATOM      8  N   UNL     1       8.854   3.727  -2.467  0.00  0.00    +0.000 NA
ATOM      9  H   UNL     1       8.450   4.536  -2.935  0.00  0.00    +0.000 HD
BRANCH   8  10
ATOM     10  C   UNL     1       8.292   2.527  -3.081  0.00  0.00    +0.000 C 
BRANCH  10  15
ATOM     11  C   UNL     1       7.680   2.785  -6.848  0.00  0.00    +0.000 A 
ATOM     12  C   UNL     1       8.986   2.859  -7.331  0.00  0.00    +0.000 A 
ATOM     13  C   UNL     1      10.065   2.764  -6.450  0.00  0.00    +0.000 A 
ATOM     14  C   UNL     1       9.842   2.615  -5.082  0.00  0.00    +0.000 A 
ATOM     15  C   UNL     1       8.535   2.567  -4.574  0.00  0.00    +0.000 A 
ATOM     16  C   UNL     1       7.462   2.627  -5.475  0.00  0.00    +0.000 A 
BRANCH  11  18
ATOM     17  C   UNL     1       6.715   3.132  -8.989  0.00  0.00    +0.000 C 
ATOM     18  O   UNL     1       6.541   2.872  -7.602  0.00  0.00    +0.000 OA
ENDBRANCH  11  18
ENDBRANCH  10  15
ENDBRANCH   8  10
ENDBRANCH   7   8
ENDBRANCH   1   7
BRANCH   4  19
ATOM     19  C   UNL     1      10.636   8.862   1.103  0.00  0.00    +0.000 C 
BRANCH  19  20
ATOM     20  N   UNL     1       9.822   9.354   2.184  0.00  0.00    +0.000 N 
ATOM     21  C   UNL     1      10.105  10.541   2.809  0.00  0.00    +0.000 C 
ATOM     22  O   UNL     1      11.044  11.254   2.468  0.00  0.00    +0.000 OA
ATOM     23  H   UNL     1       9.199   8.688   2.630  0.00  0.00    +0.000 HD
BRANCH  21  24
ATOM     24  C   UNL     1       9.180  10.948   3.873  0.00  0.00    +0.000 A 
ATOM     25  C   UNL     1       9.032  12.293   4.186  0.00  0.00    +0.000 A 
ATOM     26  S   UNL     1       7.864  12.587   5.393  0.00  0.00    +0.000 S 
ATOM     27  C   UNL     1       7.563  10.922   5.583  0.00  0.00    +0.000 A 
ATOM     28  N   UNL     1       6.659  10.478   6.501  0.00  0.00    +0.000 NA
ATOM     29  C   UNL     1       6.552   9.193   6.560  0.00  0.00    +0.000 A 
ATOM     30  N   UNL     1       7.263   8.316   5.785  0.00  0.00    +0.000 N 
ATOM     31  C   UNL     1       8.156   8.719   4.824  0.00  0.00    +0.000 A 
ATOM     32  O   UNL     1       8.737   7.907   4.111  0.00  0.00    +0.000 OA
ATOM     33  C   UNL     1       8.326  10.155   4.725  0.00  0.00    +0.000 A 
ATOM     34  H   UNL     1       7.128   7.317   5.873  0.00  0.00    +0.000 HD
ENDBRANCH  21  24
ENDBRANCH  19  20
ENDBRANCH   4  19
TORSDOF 8
