REMARK  Name = 
REMARK  7 active torsions:
REMARK  status: ('A' for Active; 'I' for Inactive)
REMARK    1  A    between atoms: C_1  and  O_2
REMARK    2  A    between atoms: O_2  and  C_3
REMARK    3  A    between atoms: C_5  and  C_6
REMARK    4  A    between atoms: C_11  and  O_12
REMARK    5  A    between atoms: O_12  and  C_13
REMARK    6  A    between atoms: C_13  and  C_14
REMARK    7  A    between atoms: C_18  and  C_19
REMARK                            x       y       z     vdW  Elec       q    Type
REMARK                         _______ _______ _______ _____ _____    ______ ____
ROOT
ATOM      1  O   UNL     1       4.198  -1.313   1.604  0.00  0.00    +0.000 OA
ENDROOT
BRANCH   1   7
ATOM      2  C   UNL     1       3.061  -0.865  -0.587  0.00  0.00    +0.000 A 
ATOM      3  C   UNL     1       2.860  -1.343  -1.890  0.00  0.00    +0.000 A 
ATOM      4  C   UNL     1       3.447  -2.535  -2.336  0.00  0.00    +0.000 A 
ATOM      5  C   UNL     1       4.262  -3.256  -1.462  0.00  0.00    +0.000 A 
ATOM      6  C   UNL     1       4.475  -2.783  -0.160  0.00  0.00    +0.000 A 
ATOM      7  C   UNL     1       3.881  -1.596   0.293  0.00  0.00    +0.000 A 
BRANCH   4   8
ATOM      8  C   UNL     1       3.152  -2.952  -3.739  0.00  0.00    +0.000 C 
ATOM      9  N   UNL     1       3.731  -4.092  -4.224  0.00  0.00    +0.000 N 
ATOM     10  O   UNL     1       2.404  -2.299  -4.458  0.00  0.00    +0.000 OA
ATOM     11  H   UNL     1       4.371  -4.682  -3.721  0.00  0.00    +0.000 HD
ATOM     12  H   UNL     1       3.510  -4.334  -5.180  0.00  0.00    +0.000 HD
ENDBRANCH   4   8
BRANCH   2  14
ATOM     13  C   UNL     1       1.378   0.814  -0.853  0.00  0.00    +0.000 C 
ATOM     14  O   UNL     1       2.523   0.323  -0.166  0.00  0.00    +0.000 OA
ENDBRANCH   2  14
ENDBRANCH   1   7
BRANCH   1  15
ATOM     15  C   UNL     1       3.604  -0.151   2.179  0.00  0.00    +0.000 C 
BRANCH  15  16
ATOM     16  C   UNL     1       3.971   0.040   3.636  0.00  0.00    +0.000 A 
ATOM     17  C   UNL     1       4.083   1.350   4.130  0.00  0.00    +0.000 A 
ATOM     18  C   UNL     1       4.312   1.583   5.482  0.00  0.00    +0.000 A 
ATOM     19  C   UNL     1       4.403   0.510   6.363  0.00  0.00    +0.000 A 
ATOM     20  C   UNL     1       4.258  -0.810   5.907  0.00  0.00    +0.000 A 
ATOM     21  C   UNL     1       4.060  -1.034   4.533  0.00  0.00    +0.000 A 
BRANCH  20  22
ATOM     22  C   UNL     1       4.212  -1.970   6.888  0.00  0.00    +0.000 C 
ATOM     23  C   UNL     1       2.996  -1.833   7.820  0.00  0.00    +0.000 C 
ATOM     24  C   UNL     1       2.995  -2.916   8.886  0.00  0.00    +0.000 C 
ATOM     25  O   UNL     1       4.225  -2.914   9.608  0.00  0.00    +0.000 OA
ATOM     26  C   UNL     1       5.342  -3.199   8.767  0.00  0.00    +0.000 C 
ATOM     27  C   UNL     1       5.505  -2.121   7.703  0.00  0.00    +0.000 C 
ENDBRANCH  20  22
ENDBRANCH  15  16
ENDBRANCH   1  15
TORSDOF 6
