REMARK  Name = 
REMARK  7 active torsions:
REMARK  status: ('A' for Active; 'I' for Inactive)
REMARK    1  A    between atoms: C_2  and  C_4
REMARK    2  A    between atoms: N_8  and  C_9
REMARK    3  A    between atoms: C_9  and  C_10
REMARK    4  A    between atoms: C_10  and  C_11
REMARK    5  A    between atoms: C_10  and  C_13
REMARK    6  A    between atoms: C_17  and  O_18
REMARK    7  A    between atoms: O_18  and  C_19
REMARK                            x       y       z     vdW  Elec       q    Type
REMARK                         _______ _______ _______ _____ _____    ______ ____
ROOT
ATOM      1  C   UNL     1       5.986  -2.156  -6.768  0.00  0.00    +0.000 C 
ENDROOT
BRANCH   1   2
ATOM      2  C   UNL     1       5.658  -1.811  -8.219  0.00  0.00    +0.000 A 
ATOM      3  C   UNL     1       4.645  -2.453  -8.945  0.00  0.00    +0.000 A 
ATOM      4  C   UNL     1       4.328  -2.044 -10.243  0.00  0.00    +0.000 A 
ATOM      5  C   UNL     1       5.004  -0.977 -10.837  0.00  0.00    +0.000 A 
ATOM      6  C   UNL     1       6.008  -0.324 -10.128  0.00  0.00    +0.000 A 
ATOM      7  C   UNL     1       6.329  -0.740  -8.833  0.00  0.00    +0.000 A 
BRANCH   6   8
ATOM      8  O   UNL     1       6.702   0.772 -10.572  0.00  0.00    +0.000 OA
BRANCH   8   9
ATOM      9  C   UNL     1       6.789   1.021 -11.993  0.00  0.00    +0.000 C 
ATOM     10  C   UNL     1       7.643   0.057 -12.839  0.00  0.00    +0.000 C 
ATOM     11  N   UNL     1       8.396   1.189 -13.399  0.00  0.00    +0.000 NA
ATOM     12  C   UNL     1       7.825   2.093 -12.390  0.00  0.00    +0.000 C 
ATOM     13  H   UNL     1       8.142   1.426 -14.358  0.00  0.00    +0.000 HD
ENDBRANCH   8   9
ENDBRANCH   6   8
ENDBRANCH   1   2
BRANCH   1  14
ATOM     14  C   UNL     1       5.074  -1.358  -5.830  0.00  0.00    +0.000 C 
ATOM     15  F   UNL     1       3.778  -1.731  -6.006  0.00  0.00    +0.000 F 
ENDBRANCH   1  14
BRANCH   1  16
ATOM     16  C   UNL     1       5.955  -3.668  -6.453  0.00  0.00    +0.000 C 
BRANCH  16  21
ATOM     17  C   UNL     1       9.919  -4.495  -3.218  0.00  0.00    +0.000 A 
ATOM     18  C   UNL     1       9.902  -3.798  -4.420  0.00  0.00    +0.000 A 
ATOM     19  C   UNL     1       8.692  -3.647  -5.100  0.00  0.00    +0.000 A 
ATOM     20  C   UNL     1       7.529  -4.182  -4.563  0.00  0.00    +0.000 A 
ATOM     21  N   UNL     1       6.273  -3.952  -5.062  0.00  0.00    +0.000 N 
ATOM     22  N   UNL     1       7.549  -4.909  -3.428  0.00  0.00    +0.000 NA
ATOM     23  C   UNL     1       8.736  -5.066  -2.786  0.00  0.00    +0.000 A 
ATOM     24  H   UNL     1       5.610  -4.541  -4.561  0.00  0.00    +0.000 HD
BRANCH  17  26
ATOM     25  N   UNL     1      12.023  -3.587  -2.435  0.00  0.00    +0.000 N 
ATOM     26  C   UNL     1      11.128  -4.620  -2.384  0.00  0.00    +0.000 C 
ATOM     27  O   UNL     1      11.297  -5.574  -1.636  0.00  0.00    +0.000 OA
ATOM     28  H   UNL     1      12.774  -3.611  -1.756  0.00  0.00    +0.000 HD
ATOM     29  H   UNL     1      11.778  -2.686  -2.822  0.00  0.00    +0.000 HD
ENDBRANCH  17  26
ENDBRANCH  16  21
ENDBRANCH   1  16
TORSDOF 7
