REMARK  Name = 
REMARK  4 active torsions:
REMARK  status: ('A' for Active; 'I' for Inactive)
REMARK    1  A    between atoms: N_1  and  C_2
REMARK    2  A    between atoms: C_2  and  C_3
REMARK    3  A    between atoms: C_7  and  C_8
REMARK    4  A    between atoms: C_8  and  N_9
REMARK                            x       y       z     vdW  Elec       q    Type
REMARK                         _______ _______ _______ _____ _____    ______ ____
ROOT
ATOM      1  C   UNL     1       3.174   3.610  -3.340  0.00  0.00    +0.000 C 
ENDROOT
BRANCH   1   2
ATOM      2  N   UNL     1       2.686   4.491  -2.283  0.00  0.00    +0.000 N 
ATOM      3  C   UNL     1       3.493   5.066  -1.331  0.00  0.00    +0.000 A 
ATOM      4  C   UNL     1       2.738   5.973  -0.620  0.00  0.00    +0.000 A 
ATOM      5  C   UNL     1       1.422   5.949  -1.154  0.00  0.00    +0.000 A 
ATOM      6  C   UNL     1       0.245   6.667  -0.861  0.00  0.00    +0.000 A 
ATOM      7  C   UNL     1      -0.922   6.405  -1.587  0.00  0.00    +0.000 A 
ATOM      8  C   UNL     1      -0.925   5.432  -2.580  0.00  0.00    +0.000 A 
ATOM      9 CL   UNL     1      -2.377   5.118  -3.455  0.00  0.00    +0.000 Cl
ATOM     10  C   UNL     1       0.228   4.707  -2.894  0.00  0.00    +0.000 A 
ATOM     11  C   UNL     1       1.401   4.992  -2.175  0.00  0.00    +0.000 A 
ENDBRANCH   1   2
BRANCH   1  16
ATOM     12  C   UNL     1       2.214  -0.022  -2.682  0.00  0.00    +0.000 A 
ATOM     13  C   UNL     1       3.415  -0.448  -2.129  0.00  0.00    +0.000 A 
ATOM     14  N   UNL     1       4.496   0.346  -1.954  0.00  0.00    +0.000 NA
ATOM     15  C   UNL     1       4.372   1.634  -2.345  0.00  0.00    +0.000 A 
ATOM     16  C   UNL     1       3.225   2.173  -2.915  0.00  0.00    +0.000 A 
ATOM     17  C   UNL     1       2.131   1.317  -3.079  0.00  0.00    +0.000 A 
BRANCH  12  18
ATOM     18  C   UNL     1       1.045  -0.954  -2.823  0.00  0.00    +0.000 C 
BRANCH  18  19
ATOM     19  N   UNL     1       0.646  -1.111  -4.217  0.00  0.00    +0.000 NA
ATOM     20  H   UNL     1      -0.122  -1.779  -4.269  0.00  0.00    +0.000 HD
ATOM     21  H   UNL     1       1.417  -1.524  -4.740  0.00  0.00    +0.000 HD
ENDBRANCH  18  19
ENDBRANCH  12  18
ENDBRANCH   1  16
TORSDOF 4
