REMARK  Name = 
REMARK  8 active torsions:
REMARK  status: ('A' for Active; 'I' for Inactive)
REMARK    1  A    between atoms: C_1  and  C_2
REMARK    2  A    between atoms: C_2  and  C_3
REMARK    3  A    between atoms: C_7  and  O_8
REMARK    4  A    between atoms: O_8  and  C_9
REMARK    5  A    between atoms: C_9  and  C_10
REMARK    6  A    between atoms: C_10  and  C_11
REMARK    7  A    between atoms: N_21  and  C_22
REMARK    8  A    between atoms: C_22  and  C_23
REMARK                            x       y       z     vdW  Elec       q    Type
REMARK                         _______ _______ _______ _____ _____    ______ ____
ROOT
ATOM      1  C   UNL     1       3.004   0.282   1.383  0.00  0.00    +0.000 A 
ATOM      2  C   UNL     1       2.743   1.554   1.929  0.00  0.00    +0.000 A 
ATOM      3  C   UNL     1       3.073   1.863   3.250  0.00  0.00    +0.000 A 
ATOM      4  C   UNL     1       3.659   0.901   4.067  0.00  0.00    +0.000 A 
ATOM      5  C   UNL     1       3.907  -0.373   3.562  0.00  0.00    +0.000 A 
ATOM      6  C   UNL     1       3.618  -0.663   2.223  0.00  0.00    +0.000 A 
ENDROOT
BRANCH   1   8
ATOM      7  C   UNL     1       0.989   0.034  -0.059  0.00  0.00    +0.000 C 
ATOM      8  C   UNL     1       2.538  -0.052  -0.053  0.00  0.00    +0.000 C 
ATOM      9  C   UNL     1       3.148   0.960  -1.059  0.00  0.00    +0.000 C 
ATOM     10  C   UNL     1       2.827   0.608  -2.512  0.00  0.00    +0.000 C 
ATOM     11  C   UNL     1       3.203  -0.835  -2.849  0.00  0.00    +0.000 C 
ATOM     12  N   UNL     1       2.561  -1.778  -1.922  0.00  0.00    +0.000 NA
ATOM     13  C   UNL     1       2.953  -1.481  -0.528  0.00  0.00    +0.000 C 
BRANCH  12  14
ATOM     14  C   UNL     1       2.887  -3.193  -2.255  0.00  0.00    +0.000 C 
BRANCH  14  15
ATOM     15  C   UNL     1       2.439  -3.781  -3.615  0.00  0.00    +0.000 C 
ATOM     16  F   UNL     1       1.704  -2.928  -4.359  0.00  0.00    +0.000 F 
ATOM     17  F   UNL     1       3.517  -4.138  -4.354  0.00  0.00    +0.000 F 
ATOM     18  F   UNL     1       1.694  -4.898  -3.432  0.00  0.00    +0.000 F 
ENDBRANCH  14  15
ENDBRANCH  12  14
ENDBRANCH   1   8
BRANCH   5  19
ATOM     19  O   UNL     1       4.419  -1.412   4.292  0.00  0.00    +0.000 OA
BRANCH  19  20
ATOM     20  C   UNL     1       4.062  -1.401   5.679  0.00  0.00    +0.000 C 
BRANCH  20  21
ATOM     21  C   UNL     1       4.043  -2.841   6.188  0.00  0.00    +0.000 C 
BRANCH  21  22
ATOM     22  C   UNL     1       3.609  -2.912   7.617  0.00  0.00    +0.000 A 
ATOM     23  C   UNL     1       2.281  -2.978   7.987  0.00  0.00    +0.000 A 
ATOM     24  N   UNL     1       1.856  -2.995   9.264  0.00  0.00    +0.000 NA
ATOM     25  C   UNL     1       2.820  -2.944  10.195  0.00  0.00    +0.000 A 
ATOM     26  N   UNL     1       4.139  -2.874   9.964  0.00  0.00    +0.000 NA
ATOM     27  C   UNL     1       4.504  -2.857   8.667  0.00  0.00    +0.000 A 
ENDBRANCH  21  22
ENDBRANCH  20  21
ENDBRANCH  19  20
ENDBRANCH   5  19
TORSDOF 7
