REMARK  Name = 
REMARK  7 active torsions:
REMARK  status: ('A' for Active; 'I' for Inactive)
REMARK    1  A    between atoms: C_1  and  C_2
REMARK    2  A    between atoms: C_2  and  C_3
REMARK    3  A    between atoms: C_2  and  C_4
REMARK    4  A    between atoms: C_2  and  C_18
REMARK    5  A    between atoms: C_4  and  O_5
REMARK    6  A    between atoms: O_5  and  C_6
REMARK    7  A    between atoms: C_10  and  C_11
REMARK                            x       y       z     vdW  Elec       q    Type
REMARK                         _______ _______ _______ _____ _____    ______ ____
ROOT
ATOM      1  C   UNL     1       2.937   2.009  -3.097  0.00  0.00    +0.000 A 
ATOM      2  C   UNL     1       2.519   1.975  -4.418  0.00  0.00    +0.000 A 
ATOM      3  N   UNL     1       2.848   2.909  -5.342  0.00  0.00    +0.000 NA
ATOM      4  C   UNL     1       3.644   3.923  -4.923  0.00  0.00    +0.000 A 
ATOM      5  C   UNL     1       4.128   4.075  -3.623  0.00  0.00    +0.000 A 
ATOM      6  C   UNL     1       3.736   3.083  -2.710  0.00  0.00    +0.000 A 
ENDROOT
BRANCH   5   7
ATOM      7  C   UNL     1       4.998   5.190  -3.205  0.00  0.00    +0.000 A 
ATOM      8  C   UNL     1       4.880   6.481  -3.738  0.00  0.00    +0.000 A 
ATOM      9  C   UNL     1       5.707   7.510  -3.290  0.00  0.00    +0.000 A 
ATOM     10  C   UNL     1       6.639   7.230  -2.305  0.00  0.00    +0.000 A 
ATOM     11  N   UNL     1       6.799   6.010  -1.761  0.00  0.00    +0.000 NA
ATOM     12  C   UNL     1       5.987   5.030  -2.226  0.00  0.00    +0.000 A 
ENDBRANCH   5   7
BRANCH   1  13
ATOM     13  O   UNL     1       2.550   0.979  -2.288  0.00  0.00    +0.000 OA
BRANCH  13  14
ATOM     14  C   UNL     1       2.897   1.106  -0.905  0.00  0.00    +0.000 C 
BRANCH  14  16
ATOM     15  C   UNL     1       2.932  -1.418  -0.629  0.00  0.00    +0.000 C 
ATOM     16  C   UNL     1       2.402  -0.091  -0.046  0.00  0.00    +0.000 C 
ATOM     17  C   UNL     1       3.058   0.094   1.347  0.00  0.00    +0.000 C 
BRANCH  16  18
ATOM     18  C   UNL     1       0.869  -0.123   0.018  0.00  0.00    +0.000 A 
ATOM     19  C   UNL     1       0.143   0.011   1.209  0.00  0.00    +0.000 A 
ATOM     20  C   UNL     1      -1.253  -0.022   1.197  0.00  0.00    +0.000 A 
ATOM     21  C   UNL     1      -1.897  -0.188  -0.012  0.00  0.00    +0.000 A 
ATOM     22  N   UNL     1      -1.252  -0.325  -1.184  0.00  0.00    +0.000 NA
ATOM     23  C   UNL     1       0.102  -0.292  -1.141  0.00  0.00    +0.000 A 
ENDBRANCH  16  18
ENDBRANCH  14  16
ENDBRANCH  13  14
ENDBRANCH   1  13
TORSDOF 5
