REMARK  Name = 
REMARK  6 active torsions:
REMARK  status: ('A' for Active; 'I' for Inactive)
REMARK    1  A    between atoms: C_2  and  C_4
REMARK    2  A    between atoms: C_7  and  N_8
REMARK    3  A    between atoms: N_8  and  C_9
REMARK    4  A    between atoms: C_9  and  C_10
REMARK    5  A    between atoms: C_10  and  C_13
REMARK    6  A    between atoms: C_17  and  N_18
REMARK                            x       y       z     vdW  Elec       q    Type
REMARK                         _______ _______ _______ _____ _____    ______ ____
ROOT
ATOM      1  C   UNL     1       5.851  -3.770  -6.183  0.00  0.00    +0.000 C 
ATOM      2  F   UNL     1       6.663  -2.699  -5.942  0.00  0.00    +0.000 F 
ATOM      3  F   UNL     1       6.604  -4.871  -5.874  0.00  0.00    +0.000 F 
ENDROOT
BRANCH   1   4
ATOM      4  C   UNL     1       5.347  -3.798  -7.612  0.00  0.00    +0.000 A 
ATOM      5  C   UNL     1       5.108  -5.011  -8.263  0.00  0.00    +0.000 A 
ATOM      6  C   UNL     1       4.562  -5.015  -9.542  0.00  0.00    +0.000 A 
ATOM      7  C   UNL     1       4.240  -3.808 -10.170  0.00  0.00    +0.000 A 
ATOM      8  C   UNL     1       4.454  -2.569  -9.550  0.00  0.00    +0.000 A 
ATOM      9  C   UNL     1       5.034  -2.595  -8.273  0.00  0.00    +0.000 A 
BRANCH   8  10
ATOM     10  N   UNL     1       4.038  -1.396 -10.139  0.00  0.00    +0.000 N 
ATOM     11  C   UNL     1       3.670  -0.205  -9.361  0.00  0.00    +0.000 C 
ATOM     12  C   UNL     1       2.410   0.421  -9.984  0.00  0.00    +0.000 C 
ATOM     13  O   UNL     1       2.599   0.728 -11.376  0.00  0.00    +0.000 OA
ATOM     14  C   UNL     1       2.925  -0.465 -12.113  0.00  0.00    +0.000 C 
ATOM     15  C   UNL     1       4.203  -1.130 -11.577  0.00  0.00    +0.000 C 
ENDBRANCH   8  10
ENDBRANCH   1   4
BRANCH   1  16
ATOM     16  C   UNL     1       4.643  -3.723  -5.210  0.00  0.00    +0.000 C 
BRANCH  16  17
ATOM     17  N   UNL     1       5.026  -3.735  -3.787  0.00  0.00    +0.000 N 
ATOM     18  H   UNL     1       5.830  -4.326  -3.575  0.00  0.00    +0.000 HD
BRANCH  17  22
ATOM     19  C   UNL     1       2.190  -3.519  -0.670  0.00  0.00    +0.000 A 
ATOM     20  C   UNL     1       1.753  -3.547  -1.995  0.00  0.00    +0.000 A 
ATOM     21  C   UNL     1       2.682  -3.634  -3.038  0.00  0.00    +0.000 A 
ATOM     22  C   UNL     1       4.057  -3.727  -2.786  0.00  0.00    +0.000 A 
ATOM     23  C   UNL     1       4.478  -3.670  -1.450  0.00  0.00    +0.000 A 
ATOM     24  C   UNL     1       3.558  -3.561  -0.399  0.00  0.00    +0.000 A 
BRANCH  19  26
ATOM     25  N   UNL     1      -0.014  -3.929   0.275  0.00  0.00    +0.000 N 
ATOM     26  C   UNL     1       1.235  -3.409   0.463  0.00  0.00    +0.000 C 
ATOM     27  O   UNL     1       1.558  -2.911   1.535  0.00  0.00    +0.000 OA
ATOM     28  H   UNL     1      -0.612  -3.954   1.090  0.00  0.00    +0.000 HD
ATOM     29  H   UNL     1      -0.224  -4.567  -0.480  0.00  0.00    +0.000 HD
ENDBRANCH  19  26
ENDBRANCH  17  22
ENDBRANCH  16  17
ENDBRANCH   1  16
TORSDOF 6
