REMARK  Name = 
REMARK  5 active torsions:
REMARK  status: ('A' for Active; 'I' for Inactive)
REMARK    1  A    between atoms: N_1  and  C_2
REMARK    2  A    between atoms: C_2  and  C_3
REMARK    3  A    between atoms: C_6  and  C_7
REMARK    4  A    between atoms: C_7  and  N_8
REMARK    5  A    between atoms: C_13  and  C_14
REMARK                            x       y       z     vdW  Elec       q    Type
REMARK                         _______ _______ _______ _____ _____    ______ ____
ROOT
ATOM      1  N   UNL     1       4.686  -5.508  -0.287  0.00  0.00    +0.000 N 
ATOM      2  C   UNL     1       4.825  -6.533  -1.192  0.00  0.00    +0.000 A 
ATOM      3  C   UNL     1       4.157  -7.627  -0.695  0.00  0.00    +0.000 A 
ATOM      4  C   UNL     1       3.713  -7.299   0.614  0.00  0.00    +0.000 A 
ATOM      5  C   UNL     1       3.042  -8.030   1.615  0.00  0.00    +0.000 A 
ATOM      6  C   UNL     1       2.803  -7.426   2.857  0.00  0.00    +0.000 A 
ATOM      7  C   UNL     1       3.156  -6.095   3.078  0.00  0.00    +0.000 A 
ATOM      8  C   UNL     1       3.790  -5.339   2.080  0.00  0.00    +0.000 A 
ATOM      9  C   UNL     1       4.072  -5.971   0.860  0.00  0.00    +0.000 A 
ENDROOT
BRANCH   6  10
ATOM     10  C   UNL     1       2.180  -8.179   3.972  0.00  0.00    +0.000 C 
ATOM     11  N   UNL     1       2.353  -9.538   3.987  0.00  0.00    +0.000 N 
ATOM     12  O   UNL     1       1.573  -7.614   4.875  0.00  0.00    +0.000 OA
ATOM     13  H   UNL     1       3.012 -10.014   3.388  0.00  0.00    +0.000 HD
ATOM     14  H   UNL     1       2.019 -10.024   4.808  0.00  0.00    +0.000 HD
ENDBRANCH   6  10
BRANCH   1  15
ATOM     15  C   UNL     1       5.130  -4.140  -0.522  0.00  0.00    +0.000 C 
BRANCH  15  19
ATOM     16  C   UNL     1       2.960  -0.916  -1.113  0.00  0.00    +0.000 C 
ATOM     17  C   UNL     1       2.431  -2.297  -0.703  0.00  0.00    +0.000 C 
ATOM     18  C   UNL     1       2.930  -3.404  -1.627  0.00  0.00    +0.000 C 
ATOM     19  C   UNL     1       4.465  -3.465  -1.740  0.00  0.00    +0.000 C 
ATOM     20  C   UNL     1       5.087  -2.078  -1.986  0.00  0.00    +0.000 C 
ATOM     21  C   UNL     1       4.497  -0.953  -1.134  0.00  0.00    +0.000 C 
BRANCH  16  22
ATOM     22  C   UNL     1       2.376  -0.411  -2.452  0.00  0.00    +0.000 C 
BRANCH  22  23
ATOM     23  N   UNL     1       0.925  -0.260  -2.393  0.00  0.00    +0.000 NA
ATOM     24  H   UNL     1       0.590   0.167  -3.259  0.00  0.00    +0.000 HD
ATOM     25  H   UNL     1       0.669   0.379  -1.641  0.00  0.00    +0.000 HD
ENDBRANCH  22  23
ENDBRANCH  16  22
ENDBRANCH  15  19
ENDBRANCH   1  15
TORSDOF 5
