REMARK  Name = 
REMARK  7 active torsions:
REMARK  status: ('A' for Active; 'I' for Inactive)
REMARK    1  A    between atoms: N_1  and  C_2
REMARK    2  A    between atoms: C_2  and  C_3
REMARK    3  A    between atoms: C_7  and  C_8
REMARK    4  A    between atoms: C_8  and  O_9
REMARK    5  A    between atoms: O_9  and  C_10
REMARK    6  A    between atoms: C_13  and  S_14
REMARK    7  A    between atoms: S_14  and  N_15
REMARK                            x       y       z     vdW  Elec       q    Type
REMARK                         _______ _______ _______ _____ _____    ______ ____
ROOT
ATOM      1  O   UNL     1       2.425  -5.953   1.559  0.00  0.00    +0.000 OA
ENDROOT
BRANCH   1   2
ATOM      2  C   UNL     1       2.096  -7.240   1.235  0.00  0.00    +0.000 A 
ATOM      3  C   UNL     1       1.691  -7.687  -0.027  0.00  0.00    +0.000 A 
ATOM      4  C   UNL     1       1.396  -9.037  -0.232  0.00  0.00    +0.000 A 
ATOM      5  C   UNL     1       1.518  -9.937   0.828  0.00  0.00    +0.000 A 
ATOM      6  C   UNL     1       1.897  -9.499   2.098  0.00  0.00    +0.000 A 
ATOM      7  C   UNL     1       2.189  -8.149   2.293  0.00  0.00    +0.000 A 
BRANCH   5   8
ATOM      8  S   UNL     1       1.198 -11.652   0.556  0.00  0.00    +0.000 S 
ATOM      9  O   UNL     1       0.852 -12.281   1.811  0.00  0.00    +0.000 OA
ATOM     10  O   UNL     1       0.403 -11.808  -0.638  0.00  0.00    +0.000 OA
BRANCH   8  11
ATOM     11  N   UNL     1       2.735 -12.203   0.167  0.00  0.00    +0.000 NA
ATOM     12  H   UNL     1       3.058 -12.872   0.866  0.00  0.00    +0.000 HD
ATOM     13  H   UNL     1       2.753 -12.550  -0.792  0.00  0.00    +0.000 HD
ENDBRANCH   8  11
ENDBRANCH   5   8
ENDBRANCH   1   2
BRANCH   1  14
ATOM     14  C   UNL     1       2.394  -5.005   0.495  0.00  0.00    +0.000 C 
BRANCH  14  19
ATOM     15  C   UNL     1       4.640  -2.264   1.905  0.00  0.00    +0.000 A 
ATOM     16  C   UNL     1       3.790  -1.153   1.823  0.00  0.00    +0.000 A 
ATOM     17  C   UNL     1       2.485  -1.295   1.352  0.00  0.00    +0.000 A 
ATOM     18  C   UNL     1       2.020  -2.545   0.943  0.00  0.00    +0.000 A 
ATOM     19  C   UNL     1       2.855  -3.666   1.011  0.00  0.00    +0.000 A 
ATOM     20  C   UNL     1       4.159  -3.518   1.505  0.00  0.00    +0.000 A 
BRANCH  15  21
ATOM     21  C   UNL     1       6.078  -2.105   2.321  0.00  0.00    +0.000 C 
BRANCH  21  22
ATOM     22  N   UNL     1       6.925  -1.916   1.149  0.00  0.00    +0.000 NA
ATOM     23  H   UNL     1       7.858  -1.645   1.447  0.00  0.00    +0.000 HD
ATOM     24  H   UNL     1       6.556  -1.142   0.599  0.00  0.00    +0.000 HD
ENDBRANCH  21  22
ENDBRANCH  15  21
ENDBRANCH  14  19
ENDBRANCH   1  14
TORSDOF 7
