REMARK  Name = 
REMARK  7 active torsions:
REMARK  status: ('A' for Active; 'I' for Inactive)
REMARK    1  A    between atoms: C_2  and  C_4
REMARK    2  A    between atoms: C_7  and  N_8
REMARK    3  A    between atoms: N_8  and  C_9
REMARK    4  A    between atoms: C_9  and  C_10
REMARK    5  A    between atoms: C_10  and  C_13
REMARK    6  A    between atoms: C_18  and  O_19
REMARK    7  A    between atoms: O_19  and  C_20
REMARK                            x       y       z     vdW  Elec       q    Type
REMARK                         _______ _______ _______ _____ _____    ______ ____
ROOT
ATOM      1  C   UNL     1       5.916  -1.572  -7.178  0.00  0.00    +0.000 C 
ATOM      2  F   UNL     1       7.192  -1.135  -6.967  0.00  0.00    +0.000 F 
ATOM      3  F   UNL     1       5.965  -2.929  -7.005  0.00  0.00    +0.000 F 
ENDROOT
BRANCH   1   4
ATOM      4  C   UNL     1       5.403  -1.188  -8.553  0.00  0.00    +0.000 A 
ATOM      5  C   UNL     1       4.491  -2.007  -9.235  0.00  0.00    +0.000 A 
ATOM      6  C   UNL     1       3.975  -1.606 -10.468  0.00  0.00    +0.000 A 
ATOM      7  C   UNL     1       4.367  -0.391 -11.034  0.00  0.00    +0.000 A 
ATOM      8  F   UNL     1       3.816  -0.033 -12.202  0.00  0.00    +0.000 F 
ATOM      9  C   UNL     1       5.282   0.432 -10.379  0.00  0.00    +0.000 A 
ATOM     10  C   UNL     1       5.792   0.028  -9.140  0.00  0.00    +0.000 A 
BRANCH   9  11
ATOM     11  O   UNL     1       5.712   1.667 -10.790  0.00  0.00    +0.000 OA
BRANCH  11  12
ATOM     12  C   UNL     1       5.690   2.011 -12.193  0.00  0.00    +0.000 C 
ATOM     13  C   UNL     1       6.682   1.270 -13.120  0.00  0.00    +0.000 C 
ATOM     14  C   UNL     1       7.152   2.619 -13.679  0.00  0.00    +0.000 C 
ATOM     15  C   UNL     1       6.454   3.321 -12.512  0.00  0.00    +0.000 C 
ENDBRANCH  11  12
ENDBRANCH   9  11
ENDBRANCH   1   4
BRANCH   1  16
ATOM     16  C   UNL     1       4.986  -0.980  -6.087  0.00  0.00    +0.000 C 
BRANCH  16  17
ATOM     17  N   UNL     1       5.391  -1.339  -4.720  0.00  0.00    +0.000 N 
ATOM     18  H   UNL     1       5.771  -2.281  -4.622  0.00  0.00    +0.000 HD
BRANCH  17  22
ATOM     19  C   UNL     1       3.418   0.110  -1.290  0.00  0.00    +0.000 A 
ATOM     20  C   UNL     1       2.922   0.431  -2.555  0.00  0.00    +0.000 A 
ATOM     21  C   UNL     1       3.553  -0.060  -3.702  0.00  0.00    +0.000 A 
ATOM     22  C   UNL     1       4.670  -0.901  -3.615  0.00  0.00    +0.000 A 
ATOM     23  C   UNL     1       5.165  -1.198  -2.337  0.00  0.00    +0.000 A 
ATOM     24  C   UNL     1       4.553  -0.696  -1.184  0.00  0.00    +0.000 A 
BRANCH  19  26
ATOM     25  N   UNL     1       1.461   0.925  -0.095  0.00  0.00    +0.000 N 
ATOM     26  C   UNL     1       2.799   0.640  -0.048  0.00  0.00    +0.000 C 
ATOM     27  O   UNL     1       3.439   0.782   0.983  0.00  0.00    +0.000 OA
ATOM     28  H   UNL     1       1.031   1.185   0.784  0.00  0.00    +0.000 HD
ATOM     29  H   UNL     1       0.860   0.585  -0.831  0.00  0.00    +0.000 HD
ENDBRANCH  19  26
ENDBRANCH  17  22
ENDBRANCH  16  17
ENDBRANCH   1  16
TORSDOF 7
