REMARK  Name = 
REMARK  4 active torsions:
REMARK  status: ('A' for Active; 'I' for Inactive)
REMARK    1  A    between atoms: C_1  and  O_2
REMARK    2  A    between atoms: O_2  and  C_3
REMARK    3  A    between atoms: N_10  and  C_11
REMARK    4  A    between atoms: C_11  and  C_12
REMARK                            x       y       z     vdW  Elec       q    Type
REMARK                         _______ _______ _______ _____ _____    ______ ____
ROOT
ATOM      1  C   UNL     1       3.122  -0.849  -0.814  0.00  0.00    +0.000 A 
ATOM      2  C   UNL     1       2.707  -0.968  -2.137  0.00  0.00    +0.000 A 
ATOM      3  C   UNL     1       3.338  -1.858  -3.023  0.00  0.00    +0.000 A 
ATOM      4  C   UNL     1       4.420  -2.619  -2.549  0.00  0.00    +0.000 A 
ATOM      5  C   UNL     1       4.849  -2.509  -1.218  0.00  0.00    +0.000 A 
ATOM      6  C   UNL     1       5.930  -3.423  -1.053  0.00  0.00    +0.000 A 
ATOM      7  C   UNL     1       6.144  -4.046  -2.257  0.00  0.00    +0.000 A 
ATOM      8  N   UNL     1       5.246  -3.544  -3.166  0.00  0.00    +0.000 N 
ATOM      9  C   UNL     1       4.206  -1.605  -0.352  0.00  0.00    +0.000 A 
ENDROOT
BRANCH   1  11
ATOM     10  C   UNL     1       1.176   0.279  -0.107  0.00  0.00    +0.000 C 
ATOM     11  O   UNL     1       2.558  -0.003   0.101  0.00  0.00    +0.000 OA
ENDBRANCH   1  11
BRANCH   8  12
ATOM     12  C   UNL     1       5.293  -3.862  -4.593  0.00  0.00    +0.000 C 
BRANCH  12  13
ATOM     13  C   UNL     1       4.467  -5.050  -5.010  0.00  0.00    +0.000 A 
ATOM     14  C   UNL     1       4.870  -5.851  -6.087  0.00  0.00    +0.000 A 
ATOM     15  C   UNL     1       4.007  -6.824  -6.595  0.00  0.00    +0.000 A 
ATOM     16  C   UNL     1       2.763  -6.965  -6.005  0.00  0.00    +0.000 A 
ATOM     17  N   UNL     1       2.357  -6.245  -4.941  0.00  0.00    +0.000 NA
ATOM     18  C   UNL     1       3.213  -5.312  -4.467  0.00  0.00    +0.000 A 
ENDBRANCH  12  13
ENDBRANCH   8  12
TORSDOF 3
