REMARK  Name = 
REMARK  3 active torsions:
REMARK  status: ('A' for Active; 'I' for Inactive)
REMARK    1  A    between atoms: C_2  and  C_4
REMARK    2  A    between atoms: N_8  and  C_9
REMARK    3  A    between atoms: C_9  and  C_10
REMARK                            x       y       z     vdW  Elec       q    Type
REMARK                         _______ _______ _______ _____ _____    ______ ____
ROOT
ATOM      1  C   UNL     1       2.687  -1.492  -0.753  0.00  0.00    +0.000 A 
ATOM      2  C   UNL     1       3.904  -1.435  -0.080  0.00  0.00    +0.000 A 
ATOM      3  C   UNL     1       4.763  -2.533  -0.148  0.00  0.00    +0.000 A 
ATOM      4  C   UNL     1       4.425  -3.637  -0.929  0.00  0.00    +0.000 A 
ATOM      5  N   UNL     1       5.320  -4.720  -0.968  0.00  0.00    +0.000 N 
ATOM      6  N   UNL     1       3.236  -3.709  -1.563  0.00  0.00    +0.000 NA
ATOM      7  C   UNL     1       2.385  -2.655  -1.444  0.00  0.00    +0.000 A 
ATOM      8  H   UNL     1       6.267  -4.377  -0.874  0.00  0.00    +0.000 HD
ENDROOT
BRANCH   1  10
ATOM      9  N   UNL     1       2.216   0.883  -0.626  0.00  0.00    +0.000 N 
ATOM     10  C   UNL     1       1.715  -0.384  -0.748  0.00  0.00    +0.000 C 
ATOM     11  O   UNL     1       0.517  -0.579  -0.894  0.00  0.00    +0.000 OA
ATOM     12  H   UNL     1       1.551   1.638  -0.751  0.00  0.00    +0.000 HD
ATOM     13  H   UNL     1       3.194   1.096  -0.775  0.00  0.00    +0.000 HD
ENDBRANCH   1  10
BRANCH   5  14
ATOM     14  C   UNL     1       5.169  -5.572  -2.150  0.00  0.00    +0.000 C 
BRANCH  14  15
ATOM     15  C   UNL     1       6.195  -6.725  -2.146  0.00  0.00    +0.000 C 
ATOM     16  C   UNL     1       6.016  -7.638  -0.922  0.00  0.00    +0.000 C 
ATOM     17  C   UNL     1       7.035  -8.775  -0.901  0.00  0.00    +0.000 C 
ATOM     18  C   UNL     1       8.463  -8.247  -0.994  0.00  0.00    +0.000 C 
ATOM     19  C   UNL     1       8.651  -7.382  -2.236  0.00  0.00    +0.000 C 
ATOM     20  C   UNL     1       7.648  -6.229  -2.270  0.00  0.00    +0.000 C 
ENDBRANCH  14  15
ENDBRANCH   5  14
TORSDOF 3
