REMARK  Name = 
REMARK  5 active torsions:
REMARK  status: ('A' for Active; 'I' for Inactive)
REMARK    1  A    between atoms: C_1  and  C_2
REMARK    2  A    between atoms: C_5  and  N_6
REMARK    3  A    between atoms: N_6  and  C_7
REMARK    4  A    between atoms: C_7  and  C_8
REMARK    5  A    between atoms: C_12  and  C_13
REMARK                            x       y       z     vdW  Elec       q    Type
REMARK                         _______ _______ _______ _____ _____    ______ ____
ROOT
ATOM      1  C   UNL     1      -5.432   0.225   0.008  0.00  0.00    +0.000 A 
ATOM      2  C   UNL     1      -5.763  -1.129  -0.119  0.00  0.00    +0.000 A 
ATOM      3  C   UNL     1      -7.088  -1.541  -0.001  0.00  0.00    +0.000 A 
ATOM      4  C   UNL     1      -8.098  -0.606   0.246  0.00  0.00    +0.000 A 
ATOM      5  C   UNL     1      -7.809   0.764   0.380  0.00  0.00    +0.000 A 
ATOM      6  C   UNL     1      -6.463   1.156   0.237  0.00  0.00    +0.000 A 
ENDROOT
BRANCH   5   7
ATOM      7  C   UNL     1      -8.871   1.748   0.691  0.00  0.00    +0.000 A 
ATOM      8  C   UNL     1      -8.863   3.054   0.178  0.00  0.00    +0.000 A 
ATOM      9  C   UNL     1      -9.864   3.963   0.524  0.00  0.00    +0.000 A 
ATOM     10  C   UNL     1     -10.870   3.543   1.375  0.00  0.00    +0.000 A 
ATOM     11  N   UNL     1     -10.936   2.301   1.890  0.00  0.00    +0.000 NA
ATOM     12  C   UNL     1      -9.941   1.446   1.541  0.00  0.00    +0.000 A 
ENDBRANCH   5   7
BRANCH   1  13
ATOM     13  C   UNL     1      -3.991   0.686  -0.103  0.00  0.00    +0.000 C 
BRANCH  13  14
ATOM     14  N   UNL     1      -3.684   0.970  -1.497  0.00  0.00    +0.000 N 
ATOM     15  H   UNL     1      -3.883   0.174  -2.095  0.00  0.00    +0.000 HD
BRANCH  14  20
ATOM     16  C   UNL     1       1.427   2.994  -2.694  0.00  0.00    +0.000 C 
ATOM     17  C   UNL     1       0.085   2.423  -2.364  0.00  0.00    +0.000 A 
ATOM     18  C   UNL     1      -0.291   2.132  -1.057  0.00  0.00    +0.000 A 
ATOM     19  N   UNL     1      -1.513   1.638  -0.723  0.00  0.00    +0.000 NA
ATOM     20  C   UNL     1      -2.378   1.429  -1.738  0.00  0.00    +0.000 A 
ATOM     21  C   UNL     1      -1.988   1.731  -3.047  0.00  0.00    +0.000 A 
ATOM     22  N   UNL     1      -0.769   2.218  -3.390  0.00  0.00    +0.000 NA
ENDBRANCH  14  20
ENDBRANCH  13  14
ENDBRANCH   1  13
TORSDOF 4
