REMARK  Name = 
REMARK  6 active torsions:
REMARK  status: ('A' for Active; 'I' for Inactive)
REMARK    1  A    between atoms: C_1  and  C_2
REMARK    2  A    between atoms: C_4  and  C_5
REMARK    3  A    between atoms: C_10  and  N_11
REMARK    4  A    between atoms: N_11  and  C_12
REMARK    5  A    between atoms: C_12  and  C_13
REMARK    6  A    between atoms: C_17  and  C_18
REMARK                            x       y       z     vdW  Elec       q    Type
REMARK                         _______ _______ _______ _____ _____    ______ ____
ROOT
ATOM      1  N   UNL     1       0.839  -2.404  -0.234  0.00  0.00    +0.000 N 
ATOM      2  H   UNL     1       0.313  -3.003   0.391  0.00  0.00    +0.000 HD
ENDROOT
BRANCH   1   9
ATOM      3  C   UNL     1      -2.063  -1.820  -0.161  0.00  0.00    +0.000 C 
ATOM      4  C   UNL     1      -0.986  -0.775  -0.168  0.00  0.00    +0.000 A 
ATOM      5  C   UNL     1      -1.385   0.575  -0.188  0.00  0.00    +0.000 A 
ATOM      6  C   UNL     1      -0.442   1.600  -0.204  0.00  0.00    +0.000 A 
ATOM      7  C   UNL     1       0.884   1.214  -0.194  0.00  0.00    +0.000 A 
ATOM      8  N   UNL     1       1.307  -0.079  -0.177  0.00  0.00    +0.000 NA
ATOM      9  C   UNL     1       0.388  -1.072  -0.161  0.00  0.00    +0.000 A 
BRANCH   6  10
ATOM     10  C   UNL     1      -0.912   3.005  -0.243  0.00  0.00    +0.000 C 
ATOM     11  N   UNL     1       0.012   4.014  -0.265  0.00  0.00    +0.000 N 
ATOM     12  O   UNL     1      -2.104   3.280  -0.254  0.00  0.00    +0.000 OA
ATOM     13  H   UNL     1       1.014   3.912  -0.272  0.00  0.00    +0.000 HD
ATOM     14  H   UNL     1      -0.362   4.956  -0.303  0.00  0.00    +0.000 HD
ENDBRANCH   6  10
ENDBRANCH   1   9
BRANCH   1  15
ATOM     15  C   UNL     1       2.285  -2.554  -0.059  0.00  0.00    +0.000 C 
BRANCH  15  16
ATOM     16  C   UNL     1       2.663  -4.014   0.100  0.00  0.00    +0.000 A 
ATOM     17  C   UNL     1       2.831  -4.573   1.373  0.00  0.00    +0.000 A 
ATOM     18  C   UNL     1       3.199  -5.909   1.515  0.00  0.00    +0.000 A 
ATOM     19  C   UNL     1       3.376  -6.712   0.386  0.00  0.00    +0.000 A 
ATOM     20  C   UNL     1       3.187  -6.200  -0.911  0.00  0.00    +0.000 A 
ATOM     21  C   UNL     1       2.852  -4.834  -1.027  0.00  0.00    +0.000 A 
BRANCH  20  22
ATOM     22  C   UNL     1       3.293  -7.072  -2.100  0.00  0.00    +0.000 A 
ATOM     23  C   UNL     1       3.773  -6.610  -3.335  0.00  0.00    +0.000 A 
ATOM     24  C   UNL     1       3.807  -7.455  -4.445  0.00  0.00    +0.000 A 
ATOM     25  C   UNL     1       3.371  -8.756  -4.285  0.00  0.00    +0.000 A 
ATOM     26 CL   UNL     1       3.381  -9.858  -5.598  0.00  0.00    +0.000 Cl
ATOM     27  N   UNL     1       2.912  -9.264  -3.128  0.00  0.00    +0.000 NA
ATOM     28  C   UNL     1       2.880  -8.411  -2.075  0.00  0.00    +0.000 A 
ENDBRANCH  20  22
ENDBRANCH  15  16
ENDBRANCH   1  15
TORSDOF 5
