REMARK  Name = 
REMARK  7 active torsions:
REMARK  status: ('A' for Active; 'I' for Inactive)
REMARK    1  A    between atoms: C_1  and  O_2
REMARK    2  A    between atoms: O_2  and  C_3
REMARK    3  A    between atoms: C_5  and  C_6
REMARK    4  A    between atoms: N_14  and  C_15
REMARK    5  A    between atoms: C_15  and  C_16
REMARK    6  A    between atoms: C_20  and  C_21
REMARK    7  A    between atoms: C_21  and  N_22
REMARK                            x       y       z     vdW  Elec       q    Type
REMARK                         _______ _______ _______ _____ _____    ______ ____
ROOT
ATOM      1  C   UNL     1       3.081  -1.026   0.650  0.00  0.00    +0.000 A 
ATOM      2  C   UNL     1       2.760  -2.380   0.645  0.00  0.00    +0.000 A 
ATOM      3  C   UNL     1       3.566  -3.266   1.353  0.00  0.00    +0.000 A 
ATOM      4  N   UNL     1       4.684  -2.946   2.073  0.00  0.00    +0.000 NA
ATOM      5  C   UNL     1       4.963  -1.621   2.033  0.00  0.00    +0.000 A 
ATOM      6  C   UNL     1       4.229  -0.638   1.368  0.00  0.00    +0.000 A 
ATOM      7  C   UNL     1       4.882   0.604   1.607  0.00  0.00    +0.000 A 
ATOM      8  C   UNL     1       5.988   0.354   2.386  0.00  0.00    +0.000 A 
ATOM      9  N   UNL     1       6.045  -1.001   2.618  0.00  0.00    +0.000 N 
ENDROOT
BRANCH   3  10
ATOM     10  C   UNL     1       3.189  -4.722   1.317  0.00  0.00    +0.000 C 
ATOM     11  N   UNL     1       3.989  -5.567   2.034  0.00  0.00    +0.000 N 
ATOM     12  O   UNL     1       2.222  -5.140   0.693  0.00  0.00    +0.000 OA
ATOM     13  H   UNL     1       4.754  -5.201   2.585  0.00  0.00    +0.000 HD
ATOM     14  H   UNL     1       3.755  -6.549   2.062  0.00  0.00    +0.000 HD
ENDBRANCH   3  10
BRANCH   1  16
ATOM     15  C   UNL     1       1.025  -0.346  -0.314  0.00  0.00    +0.000 C 
ATOM     16  O   UNL     1       2.390  -0.057  -0.027  0.00  0.00    +0.000 OA
ENDBRANCH   1  16
BRANCH   9  17
ATOM     17  C   UNL     1       7.105  -1.656   3.372  0.00  0.00    +0.000 C 
BRANCH  17  18
ATOM     18  C   UNL     1       8.280  -1.994   2.485  0.00  0.00    +0.000 A 
ATOM     19  C   UNL     1       8.166  -2.985   1.513  0.00  0.00    +0.000 A 
ATOM     20  C   UNL     1       9.245  -3.237   0.675  0.00  0.00    +0.000 A 
ATOM     21  C   UNL     1      10.413  -2.501   0.830  0.00  0.00    +0.000 A 
ATOM     22  C   UNL     1      10.477  -1.540   1.835  0.00  0.00    +0.000 A 
ATOM     23  N   UNL     1       9.427  -1.283   2.662  0.00  0.00    +0.000 NA
BRANCH  22  24
ATOM     24  C   UNL     1      11.733  -0.710   2.013  0.00  0.00    +0.000 C 
BRANCH  24  25
ATOM     25  N   UNL     1      12.948  -1.518   2.178  0.00  0.00    +0.000 NA
ATOM     26  H   UNL     1      12.814  -2.129   2.983  0.00  0.00    +0.000 HD
ATOM     27  H   UNL     1      13.717  -0.896   2.424  0.00  0.00    +0.000 HD
ENDBRANCH  24  25
ENDBRANCH  22  24
ENDBRANCH  17  18
ENDBRANCH   9  17
TORSDOF 6
