REMARK  Name = 
REMARK  5 active torsions:
REMARK  status: ('A' for Active; 'I' for Inactive)
REMARK    1  A    between atoms: C_2  and  C_3
REMARK    2  A    between atoms: C_6  and  N_7
REMARK    3  A    between atoms: N_7  and  C_8
REMARK    4  A    between atoms: C_8  and  C_9
REMARK    5  A    between atoms: C_11  and  C_12
REMARK                            x       y       z     vdW  Elec       q    Type
REMARK                         _______ _______ _______ _____ _____    ______ ____
ROOT
ATOM      1  C   UNL     1       8.595  -0.966  -0.606  0.00  0.00    +0.000 C 
ATOM      2  C   UNL     1       7.665  -1.114   0.595  0.00  0.00    +0.000 C 
ATOM      3  C   UNL     1       7.157  -0.472  -0.653  0.00  0.00    +0.000 C 
ENDROOT
BRANCH   1   4
ATOM      4  C   UNL     1       9.665   0.131  -0.494  0.00  0.00    +0.000 A 
ATOM      5  C   UNL     1       9.832   1.026  -1.551  0.00  0.00    +0.000 A 
ATOM      6  C   UNL     1      10.532   2.227  -1.391  0.00  0.00    +0.000 A 
ATOM      7  C   UNL     1      11.108   2.452  -0.138  0.00  0.00    +0.000 A 
ATOM      8  C   UNL     1      10.995   1.477   0.841  0.00  0.00    +0.000 A 
ATOM      9  N   UNL     1      10.294   0.335   0.690  0.00  0.00    +0.000 NA
BRANCH   6  10
ATOM     10  C   UNL     1      10.634   3.186  -2.512  0.00  0.00    +0.000 A 
ATOM     11  C   UNL     1       9.624   3.281  -3.496  0.00  0.00    +0.000 A 
ATOM     12  C   UNL     1       9.768   4.095  -4.624  0.00  0.00    +0.000 A 
ATOM     13  C   UNL     1      10.916   4.861  -4.777  0.00  0.00    +0.000 A 
ATOM     14  C   UNL     1      11.895   4.818  -3.796  0.00  0.00    +0.000 A 
ATOM     15  F   UNL     1      12.999   5.564  -3.933  0.00  0.00    +0.000 F 
ATOM     16  C   UNL     1      11.767   3.998  -2.677  0.00  0.00    +0.000 A 
ENDBRANCH   6  10
ENDBRANCH   1   4
BRANCH   1  17
ATOM     17  N   UNL     1       9.003  -2.225  -1.232  0.00  0.00    +0.000 N 
ATOM     18  H   UNL     1       9.536  -2.893  -0.683  0.00  0.00    +0.000 HD
BRANCH  17  22
ATOM     19  C   UNL     1       9.242  -3.336  -5.175  0.00  0.00    +0.000 A 
ATOM     20  C   UNL     1       9.757  -4.104  -4.149  0.00  0.00    +0.000 A 
ATOM     21  N   UNL     1       9.694  -3.720  -2.849  0.00  0.00    +0.000 NA
ATOM     22  C   UNL     1       9.085  -2.542  -2.579  0.00  0.00    +0.000 A 
ATOM     23  C   UNL     1       8.562  -1.787  -3.630  0.00  0.00    +0.000 A 
ATOM     24  N   UNL     1       8.632  -2.147  -4.938  0.00  0.00    +0.000 NA
BRANCH  19  26
ATOM     25  N   UNL     1       9.395  -4.199  -7.617  0.00  0.00    +0.000 NA
ATOM     26  C   UNL     1       9.316  -3.789  -6.529  0.00  0.00    +0.000 C 
ENDBRANCH  19  26
ENDBRANCH  17  22
ENDBRANCH   1  17
TORSDOF 5
