REMARK  Name = 
REMARK  3 active torsions:
REMARK  status: ('A' for Active; 'I' for Inactive)
REMARK    1  A    between atoms: C_2  and  C_4
REMARK    2  A    between atoms: N_8  and  C_9
REMARK    3  A    between atoms: C_9  and  C_10
REMARK                            x       y       z     vdW  Elec       q    Type
REMARK                         _______ _______ _______ _____ _____    ______ ____
ROOT
ATOM      1  C   UNL     1       3.590   3.448  -0.912  0.00  0.00    +0.000 A 
ATOM      2  C   UNL     1       2.812   3.812   0.180  0.00  0.00    +0.000 A 
ATOM      3  C   UNL     1       3.393   3.865   1.449  0.00  0.00    +0.000 A 
ATOM      4  C   UNL     1       4.735   3.545   1.605  0.00  0.00    +0.000 A 
ATOM      5  N   UNL     1       5.360   3.464   2.853  0.00  0.00    +0.000 N 
ATOM      6  N   UNL     1       5.501   3.188   0.551  0.00  0.00    +0.000 NA
ATOM      7  C   UNL     1       4.921   3.140  -0.678  0.00  0.00    +0.000 A 
ATOM      8  H   UNL     1       6.342   3.280   2.655  0.00  0.00    +0.000 HD
ENDROOT
BRANCH   1  10
ATOM      9  N   UNL     1       1.930   4.073  -2.570  0.00  0.00    +0.000 N 
ATOM     10  C   UNL     1       3.040   3.324  -2.279  0.00  0.00    +0.000 C 
ATOM     11  O   UNL     1       3.557   2.602  -3.119  0.00  0.00    +0.000 OA
ATOM     12  H   UNL     1       1.588   4.031  -3.523  0.00  0.00    +0.000 HD
ATOM     13  H   UNL     1       1.618   4.841  -1.994  0.00  0.00    +0.000 HD
ENDBRANCH   1  10
BRANCH   5  14
ATOM     14  C   UNL     1       5.089   4.355   3.994  0.00  0.00    +0.000 C 
ATOM     15  C   UNL     1       4.987   3.633   5.333  0.00  0.00    +0.000 C 
ATOM     16  C   UNL     1       3.796   4.342   4.789  0.00  0.00    +0.000 C 
BRANCH  14  17
ATOM     17  C   UNL     1       5.863   5.670   3.930  0.00  0.00    +0.000 A 
ATOM     18  C   UNL     1       7.150   5.796   4.485  0.00  0.00    +0.000 A 
ATOM     19  C   UNL     1       7.886   6.979   4.373  0.00  0.00    +0.000 A 
ATOM     20  C   UNL     1       7.348   8.070   3.695  0.00  0.00    +0.000 A 
ATOM     21  C   UNL     1       6.073   7.973   3.147  0.00  0.00    +0.000 A 
ATOM     22 BR   UNL     1       5.338   9.445   2.215  0.00  0.00    +0.000 Br
ATOM     23  C   UNL     1       5.336   6.792   3.266  0.00  0.00    +0.000 A 
ENDBRANCH  14  17
ENDBRANCH   5  14
TORSDOF 3
