REMARK  Name = 
REMARK  10 active torsions:
REMARK  status: ('A' for Active; 'I' for Inactive)
REMARK    1  A    between atoms: C_1  and  C_2
REMARK    2  A    between atoms: C_2  and  C_3
REMARK    3  A    between atoms: C_2  and  C_4
REMARK    4  A    between atoms: C_2  and  C_5
REMARK    5  A    between atoms: C_9  and  C_10
REMARK    6  A    between atoms: C_10  and  N_11
REMARK    7  A    between atoms: C_12  and  C_13
REMARK    8  A    between atoms: N_15  and  C_16
REMARK    9  A    between atoms: C_16  and  C_17
REMARK   10  A    between atoms: C_17  and  N_18
REMARK                            x       y       z     vdW  Elec       q    Type
REMARK                         _______ _______ _______ _____ _____    ______ ____
ROOT
ATOM      1  C   UNL     1       2.991   1.330   0.730  0.00  0.00    +0.000 A 
ATOM      2  N   UNL     1       3.700   1.105   1.851  0.00  0.00    +0.000 NA
ATOM      3  N   UNL     1       4.049   2.152   2.642  0.00  0.00    +0.000 NA
ATOM      4  C   UNL     1       3.674   3.399   2.323  0.00  0.00    +0.000 A 
ATOM      5  C   UNL     1       4.000   4.525   3.115  0.00  0.00    +0.000 A 
ATOM      6  C   UNL     1       3.565   5.795   2.707  0.00  0.00    +0.000 A 
ATOM      7  C   UNL     1       2.870   5.862   1.505  0.00  0.00    +0.000 A 
ATOM      8  N   UNL     1       2.549   4.795   0.742  0.00  0.00    +0.000 NA
ATOM      9  C   UNL     1       2.933   3.583   1.140  0.00  0.00    +0.000 A 
ATOM     10  N   UNL     1       2.591   2.558   0.361  0.00  0.00    +0.000 NA
ENDROOT
BRANCH   1  12
ATOM     11  C   UNL     1       1.145  -0.303   0.399  0.00  0.00    +0.000 C 
ATOM     12  C   UNL     1       2.540   0.123  -0.087  0.00  0.00    +0.000 C 
ATOM     13  C   UNL     1       3.509  -1.064   0.091  0.00  0.00    +0.000 C 
ATOM     14  C   UNL     1       2.478   0.459  -1.590  0.00  0.00    +0.000 C 
ENDBRANCH   1  12
BRANCH   6  15
ATOM     15  C   UNL     1       3.844   7.067   3.439  0.00  0.00    +0.000 C 
ATOM     16  O   UNL     1       4.853   7.185   4.125  0.00  0.00    +0.000 OA
ATOM     17  N   UNL     1       2.909   8.077   3.308  0.00  0.00    +0.000 N 
ATOM     18  H   UNL     1       2.038   7.930   2.816  0.00  0.00    +0.000 HD
BRANCH  17  19
ATOM     19  C   UNL     1       3.062   9.391   3.924  0.00  0.00    +0.000 C 
BRANCH  19  20
ATOM     20  C   UNL     1       3.806  10.385   3.019  0.00  0.00    +0.000 C 
BRANCH  20  21
ATOM     21  N   UNL     1       3.135  10.562   1.725  0.00  0.00    +0.000 NA
ATOM     22  H   UNL     1       3.150   9.675   1.226  0.00  0.00    +0.000 HD
ATOM     23  H   UNL     1       3.685  11.208   1.157  0.00  0.00    +0.000 HD
ENDBRANCH  20  21
ENDBRANCH  19  20
ENDBRANCH  17  19
ENDBRANCH   6  15
BRANCH   5  24
ATOM     24  C   UNL     1       4.854   4.299   4.347  0.00  0.00    +0.000 C 
BRANCH  24  25
ATOM     25  N   UNL     1       4.197   4.696   5.590  0.00  0.00    +0.000 NA
ATOM     26  H   UNL     1       4.086   5.712   5.579  0.00  0.00    +0.000 HD
ATOM     27  H   UNL     1       4.865   4.540   6.349  0.00  0.00    +0.000 HD
ENDBRANCH  24  25
ENDBRANCH   5  24
TORSDOF 7
