REMARK  Name = 
REMARK  5 active torsions:
REMARK  status: ('A' for Active; 'I' for Inactive)
REMARK    1  A    between atoms: N_1  and  C_2
REMARK    2  A    between atoms: C_2  and  C_3
REMARK    3  A    between atoms: C_6  and  O_7
REMARK    4  A    between atoms: O_7  and  C_8
REMARK    5  A    between atoms: C_8  and  C_9
REMARK                            x       y       z     vdW  Elec       q    Type
REMARK                         _______ _______ _______ _____ _____    ______ ____
ROOT
ATOM      1  C   UNL     1       2.783  -0.499   1.324  0.00  0.00    +0.000 A 
ATOM      2  C   UNL     1       3.122   0.346   2.392  0.00  0.00    +0.000 A 
ATOM      3  C   UNL     1       3.404  -0.182   3.655  0.00  0.00    +0.000 A 
ATOM      4  C   UNL     1       3.338  -1.559   3.870  0.00  0.00    +0.000 A 
ATOM      5  C   UNL     1       3.071  -2.408   2.796  0.00  0.00    +0.000 A 
ATOM      6  C   UNL     1       2.781  -1.883   1.536  0.00  0.00    +0.000 A 
ENDROOT
BRANCH   1   7
ATOM      7  C   UNL     1       2.393   0.060  -0.019  0.00  0.00    +0.000 C 
BRANCH   7   8
ATOM      8  N   UNL     1       3.465   0.847  -0.612  0.00  0.00    +0.000 NA
ATOM      9  H   UNL     1       3.216   1.072  -1.573  0.00  0.00    +0.000 HD
ATOM     10  H   UNL     1       4.305   0.271  -0.660  0.00  0.00    +0.000 HD
ENDBRANCH   7   8
ENDBRANCH   1   7
BRANCH   4  11
ATOM     11  O   UNL     1       3.537  -1.977   5.161  0.00  0.00    +0.000 OA
BRANCH  11  12
ATOM     12  C   UNL     1       2.946  -3.241   5.470  0.00  0.00    +0.000 C 
BRANCH  12  13
ATOM     13  C   UNL     1       2.740  -3.361   6.956  0.00  0.00    +0.000 A 
ATOM     14  C   UNL     1       1.452  -3.478   7.487  0.00  0.00    +0.000 A 
ATOM     15  C   UNL     1       1.308  -3.616   8.858  0.00  0.00    +0.000 A 
ATOM     16  N   UNL     1       2.345  -3.644   9.720  0.00  0.00    +0.000 NA
ATOM     17  C   UNL     1       3.580  -3.521   9.188  0.00  0.00    +0.000 A 
ATOM     18  C   UNL     1       3.827  -3.380   7.833  0.00  0.00    +0.000 A 
ENDBRANCH  12  13
ENDBRANCH  11  12
ENDBRANCH   4  11
TORSDOF 5
