REMARK  Name = 
REMARK  9 active torsions:
REMARK  status: ('A' for Active; 'I' for Inactive)
REMARK    1  A    between atoms: C_1  and  C_2
REMARK    2  A    between atoms: C_2  and  O_3
REMARK    3  A    between atoms: O_3  and  C_4
REMARK    4  A    between atoms: C_8  and  C_9
REMARK    5  A    between atoms: C_9  and  C_10
REMARK    6  A    between atoms: C_10  and  N_11
REMARK    7  A    between atoms: C_15  and  C_16
REMARK    8  A    between atoms: C_23  and  O_24
REMARK    9  A    between atoms: C_25  and  O_26
REMARK                            x       y       z     vdW  Elec       q    Type
REMARK                         _______ _______ _______ _____ _____    ______ ____
ROOT
ATOM      1  C   UNL     1       0.355   0.108   1.365  0.00  0.00    +0.000 A 
ATOM      2  C   UNL     1       0.986   0.177   2.602  0.00  0.00    +0.000 A 
ATOM      3  C   UNL     1       0.270   0.598   3.722  0.00  0.00    +0.000 A 
ATOM      4  C   UNL     1      -1.086   0.922   3.618  0.00  0.00    +0.000 A 
ATOM      5  C   UNL     1      -1.750   0.824   2.390  0.00  0.00    +0.000 A 
ATOM      6  C   UNL     1      -1.005   0.401   1.273  0.00  0.00    +0.000 A 
ENDROOT
BRANCH   1   7
ATOM      7  O   UNL     1       0.974  -0.234   0.188  0.00  0.00    +0.000 OA
BRANCH   7   9
ATOM      8  C   UNL     1       2.481   1.727   0.126  0.00  0.00    +0.000 C 
ATOM      9  C   UNL     1       2.335   0.213  -0.071  0.00  0.00    +0.000 C 
ATOM     10  C   UNL     1       2.848  -0.209  -1.484  0.00  0.00    +0.000 C 
ATOM     11  C   UNL     1       4.144  -0.738  -0.855  0.00  0.00    +0.000 C 
ATOM     12  C   UNL     1       3.476  -0.663   0.541  0.00  0.00    +0.000 C 
BRANCH  11  13
ATOM     13  O   UNL     1       5.338   0.066  -1.007  0.00  0.00    +0.000 OA
ATOM     14  H   UNL     1       5.038   0.982  -1.138  0.00  0.00    +0.000 HD
ENDBRANCH  11  13
BRANCH  12  15
ATOM     15  O   UNL     1       4.280  -0.049   1.579  0.00  0.00    +0.000 OA
ATOM     16  H   UNL     1       5.118   0.177   1.131  0.00  0.00    +0.000 HD
ENDBRANCH  12  15
ENDBRANCH   7   9
ENDBRANCH   1   7
BRANCH   5  17
ATOM     17  C   UNL     1      -3.226   1.189   2.302  0.00  0.00    +0.000 C 
BRANCH  17  18
ATOM     18  C   UNL     1      -3.803   1.024   0.893  0.00  0.00    +0.000 C 
BRANCH  18  19
ATOM     19  N   UNL     1      -5.219   1.392   0.782  0.00  0.00    +0.000 N 
ATOM     20  C   UNL     1      -5.664   1.227  -0.555  0.00  0.00    +0.000 A 
ATOM     21  C   UNL     1      -6.988   1.521  -0.905  0.00  0.00    +0.000 A 
ATOM     22  N   UNL     1      -7.489   1.408  -2.170  0.00  0.00    +0.000 NA
ATOM     23  C   UNL     1      -6.589   0.968  -3.091  0.00  0.00    +0.000 A 
ATOM     24  C   UNL     1      -5.283   0.656  -2.763  0.00  0.00    +0.000 A 
ATOM     25  N   UNL     1      -4.807   0.778  -1.500  0.00  0.00    +0.000 NA
ATOM     26  H   UNL     1      -5.380   2.359   1.056  0.00  0.00    +0.000 HD
BRANCH  23  27
ATOM     27  C   UNL     1      -7.030   0.832  -4.507  0.00  0.00    +0.000 C 
ATOM     28  N   UNL     1      -8.331   1.157  -4.776  0.00  0.00    +0.000 N 
ATOM     29  O   UNL     1      -6.270   0.449  -5.390  0.00  0.00    +0.000 OA
ATOM     30  H   UNL     1      -8.950   1.462  -4.035  0.00  0.00    +0.000 HD
ATOM     31  H   UNL     1      -8.670   1.074  -5.724  0.00  0.00    +0.000 HD
ENDBRANCH  23  27
ENDBRANCH  18  19
ENDBRANCH  17  18
ENDBRANCH   5  17
TORSDOF 8
