REMARK  Name = 
REMARK  7 active torsions:
REMARK  status: ('A' for Active; 'I' for Inactive)
REMARK    1  A    between atoms: C_1  and  C_2
REMARK    2  A    between atoms: C_2  and  C_3
REMARK    3  A    between atoms: C_2  and  C_4
REMARK    4  A    between atoms: C_2  and  C_18
REMARK    5  A    between atoms: C_5  and  C_6
REMARK    6  A    between atoms: C_10  and  N_11
REMARK    7  A    between atoms: C_21  and  C_22
REMARK                            x       y       z     vdW  Elec       q    Type
REMARK                         _______ _______ _______ _____ _____    ______ ____
ROOT
ATOM      1  C   UNL     1       3.567  -0.857  -0.712  0.00  0.00    +0.000 C 
ATOM      2  C   UNL     1       2.554   0.019   0.066  0.00  0.00    +0.000 C 
ATOM      3  C   UNL     1       2.663  -0.401   1.556  0.00  0.00    +0.000 C 
ENDROOT
BRANCH   2   4
ATOM      4  C   UNL     1       1.133  -0.181  -0.455  0.00  0.00    +0.000 A 
ATOM      5  C   UNL     1      -0.000  -0.010   0.331  0.00  0.00    +0.000 A 
ATOM      6  N   UNL     1      -1.266  -0.233  -0.081  0.00  0.00    +0.000 NA
ATOM      7  C   UNL     1      -1.394  -0.627  -1.369  0.00  0.00    +0.000 A 
ATOM      8  N   UNL     1      -0.391  -0.786  -2.244  0.00  0.00    +0.000 NA
ATOM      9  C   UNL     1       0.846  -0.555  -1.761  0.00  0.00    +0.000 A 
BRANCH   7  10
ATOM     10  C   UNL     1      -2.794  -0.947  -1.841  0.00  0.00    +0.000 C 
ATOM     11  N   UNL     1      -3.779  -0.815  -0.890  0.00  0.00    +0.000 N 
ATOM     12  O   UNL     1      -3.070  -1.312  -2.974  0.00  0.00    +0.000 OA
ATOM     13  H   UNL     1      -3.537  -0.544   0.056  0.00  0.00    +0.000 HD
ATOM     14  H   UNL     1      -4.729  -1.049  -1.135  0.00  0.00    +0.000 HD
ENDBRANCH   7  10
ENDBRANCH   2   4
BRANCH   2  15
ATOM     15  C   UNL     1       3.041   1.462  -0.016  0.00  0.00    +0.000 C 
ATOM     16  C   UNL     1       2.700   2.394  -0.920  0.00  0.00    +0.000 C 
BRANCH  16  17
ATOM     17  C   UNL     1       3.274   3.751  -0.961  0.00  0.00    +0.000 A 
ATOM     18  C   UNL     1       4.555   4.049  -0.485  0.00  0.00    +0.000 A 
ATOM     19  C   UNL     1       5.068   5.335  -0.611  0.00  0.00    +0.000 A 
ATOM     20  C   UNL     1       4.318   6.323  -1.250  0.00  0.00    +0.000 A 
ATOM     21  C   UNL     1       3.043   6.064  -1.772  0.00  0.00    +0.000 A 
ATOM     22  C   UNL     1       2.537   4.767  -1.590  0.00  0.00    +0.000 A 
BRANCH  21  23
ATOM     23  N   UNL     1       2.336   7.037  -2.444  0.00  0.00    +0.000 N 
ATOM     24  C   UNL     1       0.868   7.088  -2.493  0.00  0.00    +0.000 C 
ATOM     25  C   UNL     1       0.386   7.056  -3.949  0.00  0.00    +0.000 C 
ATOM     26  O   UNL     1       0.992   8.102  -4.728  0.00  0.00    +0.000 OA
ATOM     27  C   UNL     1       2.422   7.957  -4.726  0.00  0.00    +0.000 C 
ATOM     28  C   UNL     1       3.004   8.027  -3.304  0.00  0.00    +0.000 C 
ENDBRANCH  21  23
ENDBRANCH  16  17
ENDBRANCH   2  15
TORSDOF 5
