REMARK  Name = 
REMARK  5 active torsions:
REMARK  status: ('A' for Active; 'I' for Inactive)
REMARK    1  A    between atoms: C_1  and  C_2
REMARK    2  A    between atoms: C_2  and  O_3
REMARK    3  A    between atoms: C_2  and  C_13
REMARK    4  A    between atoms: O_3  and  C_4
REMARK    5  A    between atoms: C_7  and  C_8
REMARK                            x       y       z     vdW  Elec       q    Type
REMARK                         _______ _______ _______ _____ _____    ______ ____
ROOT
ATOM      1  C   UNL     1       2.446  -1.447   1.915  0.00  0.00    +0.000 A 
ATOM      2  C   UNL     1       2.285  -2.769   2.340  0.00  0.00    +0.000 A 
ATOM      3  C   UNL     1       1.952  -3.059   3.668  0.00  0.00    +0.000 A 
ATOM      4  C   UNL     1       1.826  -2.024   4.602  0.00  0.00    +0.000 A 
ATOM      5  C   UNL     1       2.034  -0.704   4.190  0.00  0.00    +0.000 A 
ATOM      6  C   UNL     1       2.338  -0.418   2.853  0.00  0.00    +0.000 A 
ENDROOT
BRANCH   4   7
ATOM      7  C   UNL     1       1.445  -2.381   5.995  0.00  0.00    +0.000 C 
ATOM      8  N   UNL     1       1.843  -1.537   6.995  0.00  0.00    +0.000 N 
ATOM      9  O   UNL     1       0.824  -3.402   6.246  0.00  0.00    +0.000 OA
ATOM     10  H   UNL     1       2.491  -0.777   6.863  0.00  0.00    +0.000 HD
ATOM     11  H   UNL     1       1.652  -1.840   7.939  0.00  0.00    +0.000 HD
ENDBRANCH   4   7
BRANCH   1  12
ATOM     12  O   UNL     1       2.724  -1.286   0.587  0.00  0.00    +0.000 OA
BRANCH  12  14
ATOM     13  C   UNL     1       0.888   0.119  -0.219  0.00  0.00    +0.000 C 
ATOM     14  C   UNL     1       2.402  -0.035  -0.051  0.00  0.00    +0.000 C 
BRANCH  14  15
ATOM     15  C   UNL     1       3.042   0.003  -1.435  0.00  0.00    +0.000 A 
ATOM     16  C   UNL     1       3.434   1.233  -1.991  0.00  0.00    +0.000 A 
ATOM     17  C   UNL     1       3.977   1.292  -3.275  0.00  0.00    +0.000 A 
ATOM     18  C   UNL     1       4.136   0.125  -4.020  0.00  0.00    +0.000 A 
ATOM     19  C   UNL     1       3.738  -1.099  -3.486  0.00  0.00    +0.000 A 
ATOM     20  C   UNL     1       3.186  -1.159  -2.205  0.00  0.00    +0.000 A 
ENDBRANCH  14  15
ENDBRANCH  12  14
ENDBRANCH   1  12
TORSDOF 4
