REMARK  Name = 
REMARK  6 active torsions:
REMARK  status: ('A' for Active; 'I' for Inactive)
REMARK    1  A    between atoms: C_2  and  C_4
REMARK    2  A    between atoms: N_9  and  C_10
REMARK    3  A    between atoms: C_10  and  C_11
REMARK    4  A    between atoms: C_16  and  C_17
REMARK    5  A    between atoms: C_21  and  O_22
REMARK    6  A    between atoms: O_22  and  C_23
REMARK                            x       y       z     vdW  Elec       q    Type
REMARK                         _______ _______ _______ _____ _____    ______ ____
ROOT
ATOM      1  C   UNL     1       7.787  -3.070  -2.831  0.00  0.00    +0.000 A 
ATOM      2  C   UNL     1       8.898  -2.391  -3.339  0.00  0.00    +0.000 A 
ATOM      3  C   UNL     1       9.962  -3.109  -3.877  0.00  0.00    +0.000 A 
ATOM      4  C   UNL     1       9.916  -4.503  -3.921  0.00  0.00    +0.000 A 
ATOM      5  F   UNL     1      10.972  -5.134  -4.459  0.00  0.00    +0.000 F 
ATOM      6  C   UNL     1       8.819  -5.232  -3.430  0.00  0.00    +0.000 A 
ATOM      7  C   UNL     1       7.756  -4.475  -2.894  0.00  0.00    +0.000 A 
ENDROOT
BRANCH   6   8
ATOM      8  C   UNL     1       8.769  -6.715  -3.418  0.00  0.00    +0.000 A 
ATOM      9  C   UNL     1       9.923  -7.496  -3.241  0.00  0.00    +0.000 A 
ATOM     10  C   UNL     1       9.860  -8.891  -3.176  0.00  0.00    +0.000 A 
ATOM     11  C   UNL     1       8.632  -9.546  -3.254  0.00  0.00    +0.000 A 
ATOM     12  C   UNL     1       7.467  -8.801  -3.410  0.00  0.00    +0.000 A 
ATOM     13  C   UNL     1       7.547  -7.408  -3.529  0.00  0.00    +0.000 A 
BRANCH  12  14
ATOM     14  O   UNL     1       6.202  -9.315  -3.486  0.00  0.00    +0.000 OA
BRANCH  14  15
ATOM     15  C   UNL     1       5.981 -10.509  -2.753  0.00  0.00    +0.000 C 
ATOM     16  F   UNL     1       6.282 -10.303  -1.446  0.00  0.00    +0.000 F 
ATOM     17  F   UNL     1       4.650 -10.773  -2.804  0.00  0.00    +0.000 F 
ENDBRANCH  14  15
ENDBRANCH  12  14
ENDBRANCH   6   8
BRANCH   1  18
ATOM     18  C   UNL     1       6.646  -2.320  -2.191  0.00  0.00    +0.000 C 
BRANCH  18  24
ATOM     19  C   UNL     1       3.026  -0.122  -1.353  0.00  0.00    +0.000 A 
ATOM     20  C   UNL     1       2.196   0.194  -2.420  0.00  0.00    +0.000 A 
ATOM     21  C   UNL     1       2.590  -0.233  -3.671  0.00  0.00    +0.000 A 
ATOM     22  N   UNL     1       3.722  -0.938  -3.905  0.00  0.00    +0.000 NA
ATOM     23  C   UNL     1       4.531  -1.222  -2.869  0.00  0.00    +0.000 A 
ATOM     24  N   UNL     1       5.667  -1.927  -3.172  0.00  0.00    +0.000 N 
ATOM     25  C   UNL     1       4.214  -0.817  -1.581  0.00  0.00    +0.000 A 
ATOM     26  H   UNL     1       5.761  -2.201  -4.140  0.00  0.00    +0.000 HD
BRANCH  19  28
ATOM     27  N   UNL     1       1.390   0.367   0.377  0.00  0.00    +0.000 N 
ATOM     28  C   UNL     1       2.709   0.260   0.044  0.00  0.00    +0.000 C 
ATOM     29  O   UNL     1       3.588   0.416   0.878  0.00  0.00    +0.000 OA
ATOM     30  H   UNL     1       1.196   0.486   1.363  0.00  0.00    +0.000 HD
ATOM     31  H   UNL     1       0.655  -0.022  -0.196  0.00  0.00    +0.000 HD
ENDBRANCH  19  28
ENDBRANCH  18  24
ENDBRANCH   1  18
TORSDOF 6
