REMARK  Name = 
REMARK  3 active torsions:
REMARK  status: ('A' for Active; 'I' for Inactive)
REMARK    1  A    between atoms: C_2  and  C_4
REMARK    2  A    between atoms: N_8  and  C_9
REMARK    3  A    between atoms: C_9  and  C_10
REMARK                            x       y       z     vdW  Elec       q    Type
REMARK                         _______ _______ _______ _____ _____    ______ ____
ROOT
ATOM      1  C   UNL     1       3.472  -3.536   0.003  0.00  0.00    +0.000 A 
ATOM      2  C   UNL     1       2.663  -3.611  -1.114  0.00  0.00    +0.000 A 
ATOM      3  C   UNL     1       3.230  -3.348  -2.361  0.00  0.00    +0.000 A 
ATOM      4  C   UNL     1       4.573  -3.012  -2.451  0.00  0.00    +0.000 A 
ATOM      5  N   UNL     1       5.192  -2.620  -3.645  0.00  0.00    +0.000 N 
ATOM      6  N   UNL     1       5.327  -2.959  -1.327  0.00  0.00    +0.000 NA
ATOM      7  N   UNL     1       4.784  -3.228  -0.088  0.00  0.00    +0.000 NA
ATOM      8  H   UNL     1       6.178  -2.483  -3.428  0.00  0.00    +0.000 HD
ENDROOT
BRANCH   1  10
ATOM      9  N   UNL     1       3.786  -3.610   2.413  0.00  0.00    +0.000 N 
ATOM     10  C   UNL     1       2.916  -3.757   1.367  0.00  0.00    +0.000 C 
ATOM     11  O   UNL     1       1.743  -4.051   1.550  0.00  0.00    +0.000 OA
ATOM     12  H   UNL     1       3.443  -3.730   3.357  0.00  0.00    +0.000 HD
ATOM     13  H   UNL     1       4.751  -3.349   2.259  0.00  0.00    +0.000 HD
ENDBRANCH   1  10
BRANCH   5  14
ATOM     14  C   UNL     1       4.906  -3.207  -4.966  0.00  0.00    +0.000 C 
ATOM     15  C   UNL     1       4.819  -2.198  -6.107  0.00  0.00    +0.000 C 
ATOM     16  C   UNL     1       3.607  -2.970  -5.711  0.00  0.00    +0.000 C 
BRANCH  14  17
ATOM     17  C   UNL     1       5.658  -4.512  -5.218  0.00  0.00    +0.000 A 
ATOM     18  C   UNL     1       6.941  -4.524  -5.796  0.00  0.00    +0.000 A 
ATOM     19  C   UNL     1       7.658  -5.713  -5.963  0.00  0.00    +0.000 A 
ATOM     20  C   UNL     1       7.110  -6.926  -5.547  0.00  0.00    +0.000 A 
ATOM     21 CL   UNL     1       8.064  -8.352  -5.742  0.00  0.00    +0.000 Cl
ATOM     22  C   UNL     1       5.832  -6.945  -4.983  0.00  0.00    +0.000 A 
ATOM     23 CL   UNL     1       5.080  -8.405  -4.443  0.00  0.00    +0.000 Cl
ATOM     24  C   UNL     1       5.118  -5.750  -4.827  0.00  0.00    +0.000 A 
ENDBRANCH  14  17
ENDBRANCH   5  14
TORSDOF 3
