REMARK  Name = 
REMARK  4 active torsions:
REMARK  status: ('A' for Active; 'I' for Inactive)
REMARK    1  A    between atoms: C_2  and  C_4
REMARK    2  A    between atoms: C_7  and  S_8
REMARK    3  A    between atoms: S_8  and  C_9
REMARK    4  A    between atoms: C_9  and  C_10
REMARK                            x       y       z     vdW  Elec       q    Type
REMARK                         _______ _______ _______ _____ _____    ______ ____
ROOT
ATOM      1  C   UNL     1      10.039   4.979   2.372  0.00  0.00    +0.000 A 
ATOM      2  C   UNL     1       9.276   5.000   3.530  0.00  0.00    +0.000 A 
ATOM      3  C   UNL     1       7.900   4.802   3.421  0.00  0.00    +0.000 A 
ATOM      4  C   UNL     1       7.312   4.618   2.168  0.00  0.00    +0.000 A 
ATOM      5  C   UNL     1       8.172   4.598   1.069  0.00  0.00    +0.000 A 
ATOM      6  N   UNL     1       9.519   4.773   1.129  0.00  0.00    +0.000 NA
ENDROOT
BRANCH   1   8
ATOM      7  N   UNL     1      12.190   5.197   1.269  0.00  0.00    +0.000 N 
ATOM      8  C   UNL     1      11.518   5.199   2.462  0.00  0.00    +0.000 C 
ATOM      9  O   UNL     1      12.099   5.375   3.526  0.00  0.00    +0.000 OA
ATOM     10  H   UNL     1      13.189   5.328   1.257  0.00  0.00    +0.000 HD
ATOM     11  H   UNL     1      11.676   5.043   0.406  0.00  0.00    +0.000 HD
ENDBRANCH   1   8
BRANCH   4  12
ATOM     12  S   UNL     1       5.556   4.384   1.922  0.00  0.00    +0.000 S 
BRANCH  12  13
ATOM     13  C   UNL     1       4.881   5.571   3.057  0.00  0.00    +0.000 C 
ATOM     14  C   UNL     1       4.595   5.084   4.469  0.00  0.00    +0.000 C 
ATOM     15  C   UNL     1       3.451   5.378   3.554  0.00  0.00    +0.000 C 
BRANCH  13  16
ATOM     16  C   UNL     1       5.313   7.013   2.778  0.00  0.00    +0.000 A 
ATOM     17  N   UNL     1       4.642   7.724   1.842  0.00  0.00    +0.000 NA
ATOM     18  C   UNL     1       5.106   8.952   1.544  0.00  0.00    +0.000 A 
ATOM     19  C   UNL     1       6.215   9.506   2.132  0.00  0.00    +0.000 A 
ATOM     20  C   UNL     1       6.819   8.733   3.090  0.00  0.00    +0.000 A 
ATOM     21  N   UNL     1       6.383   7.511   3.441  0.00  0.00    +0.000 NA
ENDBRANCH  13  16
ENDBRANCH  12  13
ENDBRANCH   4  12
TORSDOF 4
