REMARK  Name = 
REMARK  7 active torsions:
REMARK  status: ('A' for Active; 'I' for Inactive)
REMARK    1  A    between atoms: C_1  and  C_2
REMARK    2  A    between atoms: N_4  and  C_5
REMARK    3  A    between atoms: C_9  and  C_10
REMARK    4  A    between atoms: C_10  and  N_11
REMARK    5  A    between atoms: N_11  and  C_12
REMARK    6  A    between atoms: C_15  and  C_16
REMARK    7  A    between atoms: C_23  and  C_24
REMARK                            x       y       z     vdW  Elec       q    Type
REMARK                         _______ _______ _______ _____ _____    ______ ____
ROOT
ATOM      1  C   UNL     1       1.878   1.472  -3.191  0.00  0.00    +0.000 A 
ATOM      2  C   UNL     1       2.286   2.764  -3.545  0.00  0.00    +0.000 A 
ATOM      3  C   UNL     1       1.513   3.577  -4.375  0.00  0.00    +0.000 A 
ATOM      4  C   UNL     1       0.315   3.102  -4.893  0.00  0.00    +0.000 A 
ATOM      5  C   UNL     1      -0.121   1.808  -4.596  0.00  0.00    +0.000 A 
ATOM      6  C   UNL     1       0.655   1.027  -3.722  0.00  0.00    +0.000 A 
ENDROOT
BRANCH   1  10
ATOM      7  C   UNL     1       2.096  -2.302  -3.138  0.00  0.00    +0.000 C 
ATOM      8  C   UNL     1       2.667  -1.733  -1.840  0.00  0.00    +0.000 C 
ATOM      9  C   UNL     1       2.085  -0.350  -1.489  0.00  0.00    +0.000 C 
ATOM     10  N   UNL     1       2.648   0.685  -2.363  0.00  0.00    +0.000 N 
ATOM     11  C   UNL     1       4.118   0.698  -2.414  0.00  0.00    +0.000 C 
ATOM     12  C   UNL     1       4.642  -0.715  -2.754  0.00  0.00    +0.000 C 
ATOM     13  C   UNL     1       6.162  -0.760  -2.646  0.00  0.00    +0.000 C 
ATOM     14  O   UNL     1       4.110  -1.715  -1.864  0.00  0.00    +0.000 OA
ENDBRANCH   1  10
BRANCH   5  15
ATOM     15  C   UNL     1      -1.367   1.224  -5.226  0.00  0.00    +0.000 C 
BRANCH  15  16
ATOM     16  N   UNL     1      -2.543   1.476  -4.399  0.00  0.00    +0.000 N 
ATOM     17  H   UNL     1      -2.599   2.454  -4.123  0.00  0.00    +0.000 HD
BRANCH  16  18
ATOM     18  C   UNL     1      -3.782   0.976  -4.831  0.00  0.00    +0.000 A 
ATOM     19  C   UNL     1      -3.926  -0.194  -5.583  0.00  0.00    +0.000 A 
ATOM     20  C   UNL     1      -5.193  -0.684  -5.911  0.00  0.00    +0.000 A 
ATOM     21  C   UNL     1      -6.306   0.001  -5.448  0.00  0.00    +0.000 A 
ATOM     22  N   UNL     1      -6.232   1.122  -4.683  0.00  0.00    +0.000 NA
ATOM     23  C   UNL     1      -4.979   1.556  -4.386  0.00  0.00    +0.000 A 
BRANCH  21  24
ATOM     24  C   UNL     1      -7.677  -0.509  -5.776  0.00  0.00    +0.000 C 
ATOM     25  N   UNL     1      -8.716   0.230  -5.278  0.00  0.00    +0.000 N 
ATOM     26  O   UNL     1      -7.866  -1.519  -6.442  0.00  0.00    +0.000 OA
ATOM     27  H   UNL     1      -8.522   1.048  -4.712  0.00  0.00    +0.000 HD
ATOM     28  H   UNL     1      -9.666  -0.071  -5.442  0.00  0.00    +0.000 HD
ENDBRANCH  21  24
ENDBRANCH  16  18
ENDBRANCH  15  16
ENDBRANCH   5  15
TORSDOF 5
