REMARK  Name = 
REMARK  9 active torsions:
REMARK  status: ('A' for Active; 'I' for Inactive)
REMARK    1  A    between atoms: C_1  and  C_2
REMARK    2  A    between atoms: C_2  and  C_3
REMARK    3  A    between atoms: C_2  and  N_4
REMARK    4  A    between atoms: N_4  and  C_5
REMARK    5  A    between atoms: C_8  and  C_9
REMARK    6  A    between atoms: C_13  and  O_14
REMARK    7  A    between atoms: O_14  and  C_15
REMARK    8  A    between atoms: C_15  and  C_16
REMARK    9  A    between atoms: C_16  and  C_17
REMARK                            x       y       z     vdW  Elec       q    Type
REMARK                         _______ _______ _______ _____ _____    ______ ____
ROOT
ATOM      1  C   UNL     1       4.421  -0.678   1.551  0.00  0.00    +0.000 A 
ATOM      2  N   UNL     1       4.849  -1.939   1.788  0.00  0.00    +0.000 NA
ATOM      3  C   UNL     1       6.184  -2.155   1.890  0.00  0.00    +0.000 A 
ATOM      4  C   UNL     1       7.144  -1.166   1.769  0.00  0.00    +0.000 A 
ATOM      5  C   UNL     1       6.696   0.130   1.508  0.00  0.00    +0.000 A 
ATOM      6  C   UNL     1       5.328   0.396   1.399  0.00  0.00    +0.000 A 
ENDROOT
BRANCH   4   7
ATOM      7  C   UNL     1       8.600  -1.391   1.914  0.00  0.00    +0.000 C 
ATOM      8  N   UNL     1       9.055  -2.637   2.238  0.00  0.00    +0.000 N 
ATOM      9  O   UNL     1       9.400  -0.475   1.763  0.00  0.00    +0.000 OA
ATOM     10  H   UNL     1       8.487  -3.447   2.433  0.00  0.00    +0.000 HD
ATOM     11  H   UNL     1      10.057  -2.729   2.361  0.00  0.00    +0.000 HD
ENDBRANCH   4   7
BRANCH   1  12
ATOM     12  N   UNL     1       3.039  -0.443   1.376  0.00  0.00    +0.000 N 
ATOM     13  H   UNL     1       2.880   0.537   1.608  0.00  0.00    +0.000 HD
BRANCH  12  15
ATOM     14  C   UNL     1       0.840  -0.594   2.406  0.00  0.00    +0.000 C 
ATOM     15  C   UNL     1       2.141  -1.348   2.109  0.00  0.00    +0.000 C 
ATOM     16  C   UNL     1       1.817  -2.607   1.303  0.00  0.00    +0.000 C 
ENDBRANCH  12  15
ENDBRANCH   1  12
BRANCH   6  17
ATOM     17  O   UNL     1       4.803   1.657   1.204  0.00  0.00    +0.000 OA
BRANCH  17  18
ATOM     18  C   UNL     1       5.743   2.743   1.201  0.00  0.00    +0.000 C 
BRANCH  18  19
ATOM     19  C   UNL     1       4.990   4.068   1.129  0.00  0.00    +0.000 C 
BRANCH  19  20
ATOM     20  C   UNL     1       5.936   5.240   1.059  0.00  0.00    +0.000 A 
ATOM     21  C   UNL     1       6.360   5.739  -0.173  0.00  0.00    +0.000 A 
ATOM     22  C   UNL     1       7.227   6.832  -0.201  0.00  0.00    +0.000 A 
ATOM     23  C   UNL     1       7.649   7.392   0.996  0.00  0.00    +0.000 A 
ATOM     24 CL   UNL     1       8.697   8.753   1.003  0.00  0.00    +0.000 Cl
ATOM     25  C   UNL     1       7.202   6.830   2.178  0.00  0.00    +0.000 A 
ATOM     26  N   UNL     1       6.357   5.763   2.236  0.00  0.00    +0.000 NA
ENDBRANCH  19  20
ENDBRANCH  18  19
ENDBRANCH  17  18
ENDBRANCH   6  17
TORSDOF 7
