REMARK  Name = 
REMARK  4 active torsions:
REMARK  status: ('A' for Active; 'I' for Inactive)
REMARK    1  A    between atoms: C_2  and  C_4
REMARK    2  A    between atoms: N_8  and  C_9
REMARK    3  A    between atoms: C_9  and  C_10
REMARK    4  A    between atoms: C_14  and  C_15
REMARK                            x       y       z     vdW  Elec       q    Type
REMARK                         _______ _______ _______ _____ _____    ______ ____
ROOT
ATOM      1  C   UNL     1       5.112   5.704   1.876  0.00  0.00    +0.000 C 
ENDROOT
BRANCH   1   6
ATOM      2  C   UNL     1       6.289   2.630   5.857  0.00  0.00    +0.000 A 
ATOM      3  C   UNL     1       5.649   3.864   5.829  0.00  0.00    +0.000 A 
ATOM      4  C   UNL     1       5.434   4.489   4.601  0.00  0.00    +0.000 A 
ATOM      5  C   UNL     1       5.868   3.882   3.427  0.00  0.00    +0.000 A 
ATOM      6  N   UNL     1       5.674   4.411   2.183  0.00  0.00    +0.000 N 
ATOM      7  N   UNL     1       6.524   2.705   3.450  0.00  0.00    +0.000 NA
ATOM      8  C   UNL     1       6.726   2.106   4.653  0.00  0.00    +0.000 A 
ATOM      9  H   UNL     1       6.140   3.893   1.448  0.00  0.00    +0.000 HD
BRANCH   2  11
ATOM     10  N   UNL     1       5.663   2.117   8.144  0.00  0.00    +0.000 N 
ATOM     11  C   UNL     1       6.522   1.878   7.106  0.00  0.00    +0.000 C 
ATOM     12  O   UNL     1       7.415   1.048   7.200  0.00  0.00    +0.000 OA
ATOM     13  H   UNL     1       5.764   1.524   8.959  0.00  0.00    +0.000 HD
ATOM     14  H   UNL     1       4.779   2.591   8.025  0.00  0.00    +0.000 HD
ENDBRANCH   2  11
ENDBRANCH   1   6
BRANCH   1  15
ATOM     15  C   UNL     1       6.070   6.865   2.047  0.00  0.00    +0.000 A 
ATOM     16  C   UNL     1       5.590   8.164   1.827  0.00  0.00    +0.000 A 
ATOM     17  C   UNL     1       6.423   9.267   1.999  0.00  0.00    +0.000 A 
ATOM     18  C   UNL     1       7.747   9.088   2.404  0.00  0.00    +0.000 A 
ATOM     19  C   UNL     1       8.269   7.806   2.646  0.00  0.00    +0.000 A 
ATOM     20  C   UNL     1       7.413   6.709   2.436  0.00  0.00    +0.000 A 
BRANCH  19  21
ATOM     21  C   UNL     1       9.647   7.610   3.144  0.00  0.00    +0.000 A 
ATOM     22  C   UNL     1      10.227   8.483   4.074  0.00  0.00    +0.000 A 
ATOM     23  N   UNL     1      11.473   8.357   4.601  0.00  0.00    +0.000 NA
ATOM     24  C   UNL     1      12.189   7.288   4.190  0.00  0.00    +0.000 A 
ATOM     25  C   UNL     1      11.715   6.361   3.282  0.00  0.00    +0.000 A 
ATOM     26  F   UNL     1      12.470   5.317   2.918  0.00  0.00    +0.000 F 
ATOM     27  C   UNL     1      10.441   6.522   2.751  0.00  0.00    +0.000 A 
ENDBRANCH  19  21
ENDBRANCH   1  15
TORSDOF 4
