REMARK  Name = 
REMARK  7 active torsions:
REMARK  status: ('A' for Active; 'I' for Inactive)
REMARK    1  A    between atoms: C_1  and  C_2
REMARK    2  A    between atoms: C_2  and  C_3
REMARK    3  A    between atoms: C_2  and  C_4
REMARK    4  A    between atoms: C_2  and  C_5
REMARK    5  A    between atoms: C_9  and  C_10
REMARK    6  A    between atoms: N_16  and  C_17
REMARK    7  A    between atoms: C_17  and  C_18
REMARK                            x       y       z     vdW  Elec       q    Type
REMARK                         _______ _______ _______ _____ _____    ______ ____
ROOT
ATOM      1  C   UNL     1       3.007   1.004   0.948  0.00  0.00    +0.000 A 
ATOM      2  N   UNL     1       2.747   2.301   0.823  0.00  0.00    +0.000 NA
ATOM      3  C   UNL     1       3.221   2.912   1.944  0.00  0.00    +0.000 A 
ATOM      4  C   UNL     1       3.170   4.252   2.342  0.00  0.00    +0.000 A 
ATOM      5  C   UNL     1       3.724   4.568   3.587  0.00  0.00    +0.000 A 
ATOM      6  C   UNL     1       4.307   3.542   4.338  0.00  0.00    +0.000 A 
ATOM      7  N   UNL     1       4.388   2.228   3.981  0.00  0.00    +0.000 NA
ATOM      8  C   UNL     1       3.816   1.990   2.783  0.00  0.00    +0.000 A 
ATOM      9  N   UNL     1       3.656   0.772   2.156  0.00  0.00    +0.000 N 
ENDROOT
BRANCH   5  10
ATOM     10  C   UNL     1       3.710   5.931   4.165  0.00  0.00    +0.000 C 
ATOM     11  N   UNL     1       3.119   6.941   3.461  0.00  0.00    +0.000 N 
ATOM     12  O   UNL     1       4.209   6.159   5.262  0.00  0.00    +0.000 OA
ATOM     13  H   UNL     1       2.664   6.842   2.567  0.00  0.00    +0.000 HD
ATOM     14  H   UNL     1       3.108   7.856   3.893  0.00  0.00    +0.000 HD
ENDBRANCH   5  10
BRANCH   1  16
ATOM     15  C   UNL     1       1.845   0.738  -1.254  0.00  0.00    +0.000 C 
ATOM     16  C   UNL     1       2.615  -0.008  -0.131  0.00  0.00    +0.000 C 
ATOM     17  C   UNL     1       1.666  -1.096   0.387  0.00  0.00    +0.000 C 
ATOM     18  C   UNL     1       3.854  -0.644  -0.781  0.00  0.00    +0.000 C 
ENDBRANCH   1  16
BRANCH   9  19
ATOM     19  C   UNL     1       4.115  -0.472   2.759  0.00  0.00    +0.000 C 
BRANCH  19  20
ATOM     20  C   UNL     1       3.033  -1.225   3.502  0.00  0.00    +0.000 A 
ATOM     21  C   UNL     1       3.061  -2.630   3.513  0.00  0.00    +0.000 A 
ATOM     22  C   UNL     1       2.034  -3.358   4.116  0.00  0.00    +0.000 A 
ATOM     23  C   UNL     1       0.982  -2.693   4.742  0.00  0.00    +0.000 A 
ATOM     24  C   UNL     1       0.973  -1.303   4.794  0.00  0.00    +0.000 A 
ATOM     25  C   UNL     1       1.999  -0.574   4.193  0.00  0.00    +0.000 A 
ENDBRANCH  19  20
ENDBRANCH   9  19
TORSDOF 4
