REMARK  Name = 
REMARK  10 active torsions:
REMARK  status: ('A' for Active; 'I' for Inactive)
REMARK    1  A    between atoms: C_1  and  C_2
REMARK    2  A    between atoms: C_2  and  C_3
REMARK    3  A    between atoms: C_3  and  N_4
REMARK    4  A    between atoms: C_3  and  C_18
REMARK    5  A    between atoms: C_5  and  C_7
REMARK    6  A    between atoms: N_13  and  C_14
REMARK    7  A    between atoms: C_21  and  C_22
REMARK    8  A    between atoms: C_22  and  N_23
REMARK    9  A    between atoms: N_23  and  C_24
REMARK   10  A    between atoms: C_24  and  N_26
REMARK                            x       y       z     vdW  Elec       q    Type
REMARK                         _______ _______ _______ _____ _____    ______ ____
ROOT
ATOM      1  C   UNL     1       2.887  -0.600  -1.173  0.00  0.00    +0.000 C 
ENDROOT
BRANCH   1   2
ATOM      2  C   UNL     1       4.414  -0.640  -1.277  0.00  0.00    +0.000 A 
ATOM      3  C   UNL     1       5.106  -1.860  -1.276  0.00  0.00    +0.000 A 
ATOM      4  C   UNL     1       6.512  -1.893  -1.282  0.00  0.00    +0.000 A 
ATOM      5  C   UNL     1       7.262  -0.706  -1.291  0.00  0.00    +0.000 A 
ATOM      6  C   UNL     1       6.571   0.510  -1.301  0.00  0.00    +0.000 A 
ATOM      7  C   UNL     1       5.172   0.543  -1.300  0.00  0.00    +0.000 A 
BRANCH   5   8
ATOM      8  C   UNL     1       8.772  -0.709  -1.207  0.00  0.00    +0.000 C 
BRANCH   8   9
ATOM      9  N   UNL     1       9.456  -0.699  -2.499  0.00  0.00    +0.000 N 
ATOM     10  H   UNL     1       8.979  -1.200  -3.234  0.00  0.00    +0.000 HD
BRANCH   9  11
ATOM     11  C   UNL     1      10.839  -0.683  -2.631  0.00  0.00    +0.000 C 
ATOM     12  S   UNL     1      11.893  -0.607  -1.320  0.00  0.00    +0.000 S 
BRANCH  11  13
ATOM     13  N   UNL     1      11.285  -0.744  -3.947  0.00  0.00    +0.000 N 
ATOM     14  C   UNL     1      10.565  -0.265  -5.119  0.00  0.00    +0.000 C 
ATOM     15  C   UNL     1      11.234  -0.998  -6.269  0.00  0.00    +0.000 C 
ATOM     16  C   UNL     1      12.699  -1.051  -5.852  0.00  0.00    +0.000 C 
ATOM     17  C   UNL     1      12.668  -1.056  -4.326  0.00  0.00    +0.000 C 
ENDBRANCH  11  13
ENDBRANCH   9  11
ENDBRANCH   8   9
ENDBRANCH   5   8
ENDBRANCH   1   2
BRANCH   1  18
ATOM     18  N   UNL     1       2.322  -0.083  -2.415  0.00  0.00    +0.000 N 
ATOM     19  C   UNL     1       0.980  -0.013  -2.682  0.00  0.00    +0.000 C 
ATOM     20  O   UNL     1       0.123  -0.422  -1.902  0.00  0.00    +0.000 OA
ATOM     21  H   UNL     1       2.978   0.300  -3.088  0.00  0.00    +0.000 HD
BRANCH  19  22
ATOM     22  C   UNL     1       0.597   0.571  -3.980  0.00  0.00    +0.000 A 
ATOM     23  C   UNL     1      -0.602   0.206  -4.578  0.00  0.00    +0.000 A 
ATOM     24  S   UNL     1      -0.927   1.054  -6.024  0.00  0.00    +0.000 S 
ATOM     25  C   UNL     1       0.527   1.937  -5.891  0.00  0.00    +0.000 A 
ATOM     26  N   UNL     1       0.838   2.890  -6.802  0.00  0.00    +0.000 NA
ATOM     27  C   UNL     1       1.965   3.489  -6.578  0.00  0.00    +0.000 A 
ATOM     28  N   UNL     1       2.831   3.206  -5.547  0.00  0.00    +0.000 N 
ATOM     29  C   UNL     1       4.112   3.883  -5.456  0.00  0.00    +0.000 C 
ATOM     30  C   UNL     1       2.555   2.217  -4.619  0.00  0.00    +0.000 A 
ATOM     31  O   UNL     1       3.354   1.888  -3.743  0.00  0.00    +0.000 OA
ATOM     32  C   UNL     1       1.269   1.555  -4.794  0.00  0.00    +0.000 A 
ENDBRANCH  19  22
ENDBRANCH   1  18
BRANCH   1  34
ATOM     33  C   UNL     1       2.980  -0.320   1.379  0.00  0.00    +0.000 C 
ATOM     34  C   UNL     1       2.440   0.222   0.059  0.00  0.00    +0.000 C 
ENDBRANCH   1  34
TORSDOF 8
