REMARK  Name = 
REMARK  6 active torsions:
REMARK  status: ('A' for Active; 'I' for Inactive)
REMARK    1  A    between atoms: C_2  and  C_25
REMARK    2  A    between atoms: N_3  and  C_4
REMARK    3  A    between atoms: C_4  and  C_5
REMARK    4  A    between atoms: C_8  and  C_9
REMARK    5  A    between atoms: C_9  and  N_10
REMARK    6  A    between atoms: C_11  and  C_13
REMARK                            x       y       z     vdW  Elec       q    Type
REMARK                         _______ _______ _______ _____ _____    ______ ____
ROOT
ATOM      1  C   UNL     1       3.192  -3.059  -1.998  0.00  0.00    +0.000 A 
ATOM      2  C   UNL     1       3.002  -4.420  -1.894  0.00  0.00    +0.000 A 
ATOM      3  N   UNL     1       3.836  -5.337  -2.421  0.00  0.00    +0.000 NA
ATOM      4  C   UNL     1       4.919  -4.869  -3.077  0.00  0.00    +0.000 A 
ATOM      5  N   UNL     1       5.173  -3.558  -3.275  0.00  0.00    +0.000 NA
ATOM      6  C   UNL     1       4.306  -2.684  -2.724  0.00  0.00    +0.000 A 
ENDROOT
BRANCH   1   7
ATOM      7  C   UNL     1       2.244  -2.085  -1.391  0.00  0.00    +0.000 C 
BRANCH   7  10
ATOM      8  O   UNL     1       0.791  -0.300   0.066  0.00  0.00    +0.000 OA
ATOM      9  C   UNL     1       1.743  -0.833   0.634  0.00  0.00    +0.000 C 
ATOM     10  N   UNL     1       2.554  -1.739  -0.026  0.00  0.00    +0.000 N 
ATOM     11  H   UNL     1       3.195  -2.290   0.537  0.00  0.00    +0.000 HD
BRANCH   9  12
ATOM     12  C   UNL     1       2.083  -0.568   2.016  0.00  0.00    +0.000 A 
ATOM     13  C   UNL     1       1.433   0.218   2.952  0.00  0.00    +0.000 A 
ATOM     14  C   UNL     1       2.203   0.171   4.132  0.00  0.00    +0.000 A 
ATOM     15  C   UNL     1       3.280  -0.639   3.852  0.00  0.00    +0.000 A 
ATOM     16  O   UNL     1       3.211  -1.107   2.576  0.00  0.00    +0.000 OA
ENDBRANCH   9  12
ENDBRANCH   7  10
ENDBRANCH   1   7
BRANCH   4  17
ATOM     17  C   UNL     1       5.894  -5.894  -3.603  0.00  0.00    +0.000 C 
BRANCH  17  18
ATOM     18  N   UNL     1       5.602  -6.351  -4.945  0.00  0.00    +0.000 N 
ATOM     19  C   UNL     1       6.399  -7.318  -5.506  0.00  0.00    +0.000 C 
ATOM     20  O   UNL     1       7.430  -7.705  -4.963  0.00  0.00    +0.000 OA
ATOM     21  H   UNL     1       4.627  -6.301  -5.228  0.00  0.00    +0.000 HD
BRANCH  19  22
ATOM     22  C   UNL     1       6.006  -7.799  -6.831  0.00  0.00    +0.000 A 
ATOM     23  C   UNL     1       6.780  -8.729  -7.511  0.00  0.00    +0.000 A 
ATOM     24  S   UNL     1       6.423  -8.781  -9.183  0.00  0.00    +0.000 S 
ATOM     25  C   UNL     1       5.120  -7.703  -8.982  0.00  0.00    +0.000 A 
ATOM     26  N   UNL     1       4.419  -7.215 -10.039  0.00  0.00    +0.000 NA
ATOM     27  C   UNL     1       3.410  -6.470  -9.713  0.00  0.00    +0.000 A 
ATOM     28  N   UNL     1       2.995  -6.228  -8.433  0.00  0.00    +0.000 N 
ATOM     29  C   UNL     1       3.667  -6.712  -7.336  0.00  0.00    +0.000 A 
ATOM     30  O   UNL     1       3.241  -6.570  -6.201  0.00  0.00    +0.000 OA
ATOM     31  C   UNL     1       4.888  -7.422  -7.655  0.00  0.00    +0.000 A 
ATOM     32  H   UNL     1       2.147  -5.717  -8.250  0.00  0.00    +0.000 HD
ENDBRANCH  19  22
ENDBRANCH  17  18
ENDBRANCH   4  17
TORSDOF 6
