REMARK  Name = 
REMARK  7 active torsions:
REMARK  status: ('A' for Active; 'I' for Inactive)
REMARK    1  A    between atoms: C_2  and  C_3
REMARK    2  A    between atoms: C_3  and  C_4
REMARK    3  A    between atoms: N_11  and  C_12
REMARK    4  A    between atoms: C_12  and  C_13
REMARK    5  A    between atoms: C_16  and  C_17
REMARK    6  A    between atoms: C_17  and  N_18
REMARK    7  A    between atoms: C_19  and  C_21
REMARK                            x       y       z     vdW  Elec       q    Type
REMARK                         _______ _______ _______ _____ _____    ______ ____
ROOT
ATOM      1  C   UNL     1       5.635  -3.918  -1.663  0.00  0.00    +0.000 A 
ATOM      2  C   UNL     1       5.448  -5.185  -2.237  0.00  0.00    +0.000 A 
ATOM      3  C   UNL     1       5.337  -6.332  -1.434  0.00  0.00    +0.000 A 
ATOM      4  C   UNL     1       5.385  -6.238  -0.036  0.00  0.00    +0.000 A 
ATOM      5  C   UNL     1       5.573  -4.972   0.535  0.00  0.00    +0.000 A 
ATOM      6  C   UNL     1       5.685  -3.826  -0.266  0.00  0.00    +0.000 A 
ENDROOT
BRANCH   1   7
ATOM      7  C   UNL     1       5.839  -2.697  -2.530  0.00  0.00    +0.000 C 
BRANCH   7  15
ATOM      8  C   UNL     1       2.696  -0.248  -5.315  0.00  0.00    +0.000 A 
ATOM      9  C   UNL     1       1.455   0.323  -5.069  0.00  0.00    +0.000 A 
ATOM     10  C   UNL     1       1.306   0.425  -3.668  0.00  0.00    +0.000 A 
ATOM     11  C   UNL     1       2.434  -0.113  -3.096  0.00  0.00    +0.000 A 
ATOM     12  N   UNL     1       3.303  -0.540  -4.094  0.00  0.00    +0.000 N 
ATOM     13  C   UNL     1       4.581  -1.115  -3.898  0.00  0.00    +0.000 C 
ATOM     14  O   UNL     1       5.476  -0.881  -4.695  0.00  0.00    +0.000 OA
ATOM     15  N   UNL     1       4.624  -1.965  -2.811  0.00  0.00    +0.000 N 
ATOM     16  H   UNL     1       3.771  -2.243  -2.345  0.00  0.00    +0.000 HD
BRANCH   8  17
ATOM     17  C   UNL     1       3.307  -0.595  -6.644  0.00  0.00    +0.000 C 
BRANCH  17  19
ATOM     18  N   UNL     1       3.583  -3.204  -6.908  0.00  0.00    +0.000 NA
ATOM     19  C   UNL     1       3.462  -2.053  -6.800  0.00  0.00    +0.000 C 
ENDBRANCH  17  19
ENDBRANCH   8  17
ENDBRANCH   7  15
ENDBRANCH   1   7
BRANCH   4  20
ATOM     20  C   UNL     1       5.271  -7.467   0.839  0.00  0.00    +0.000 C 
BRANCH  20  21
ATOM     21  N   UNL     1       6.564  -8.024   1.154  0.00  0.00    +0.000 N 
ATOM     22  C   UNL     1       6.727  -9.064   2.034  0.00  0.00    +0.000 C 
ATOM     23  O   UNL     1       5.771  -9.572   2.613  0.00  0.00    +0.000 OA
ATOM     24  H   UNL     1       7.368  -7.581   0.721  0.00  0.00    +0.000 HD
BRANCH  22  25
ATOM     25  C   UNL     1       8.095  -9.584   2.216  0.00  0.00    +0.000 A 
ATOM     26  C   UNL     1       8.316 -10.694   3.022  0.00  0.00    +0.000 A 
ATOM     27  S   UNL     1       9.930 -11.250   3.001  0.00  0.00    +0.000 S 
ATOM     28  C   UNL     1      10.374 -10.065   1.866  0.00  0.00    +0.000 A 
ATOM     29  N   UNL     1      11.599 -10.077   1.275  0.00  0.00    +0.000 NA
ATOM     30  C   UNL     1      11.819  -9.081   0.484  0.00  0.00    +0.000 A 
ATOM     31  N   UNL     1      10.952  -8.041   0.282  0.00  0.00    +0.000 N 
ATOM     32  C   UNL     1       9.682  -8.023   0.800  0.00  0.00    +0.000 A 
ATOM     33  O   UNL     1       8.907  -7.111   0.533  0.00  0.00    +0.000 OA
ATOM     34  C   UNL     1       9.351  -9.160   1.637  0.00  0.00    +0.000 A 
ATOM     35  H   UNL     1      11.194  -7.268  -0.321  0.00  0.00    +0.000 HD
ENDBRANCH  22  25
ENDBRANCH  20  21
ENDBRANCH   4  20
TORSDOF 7
