REMARK  Name = 
REMARK  9 active torsions:
REMARK  status: ('A' for Active; 'I' for Inactive)
REMARK    1  A    between atoms: C_1  and  C_2
REMARK    2  A    between atoms: C_2  and  N_3
REMARK    3  A    between atoms: C_2  and  C_19
REMARK    4  A    between atoms: N_3  and  C_4
REMARK    5  A    between atoms: C_4  and  C_5
REMARK    6  A    between atoms: C_8  and  C_9
REMARK    7  A    between atoms: C_9  and  N_10
REMARK    8  A    between atoms: N_10  and  C_11
REMARK    9  A    between atoms: C_11  and  C_12
REMARK                            x       y       z     vdW  Elec       q    Type
REMARK                         _______ _______ _______ _____ _____    ______ ____
ROOT
ATOM      1  C   UNL     1       0.615   0.718   1.124  0.00  0.00    +0.000 C 
ENDROOT
BRANCH   1   2
ATOM      2  C   UNL     1      -0.890   0.754   1.089  0.00  0.00    +0.000 A 
ATOM      3  C   UNL     1      -1.628  -0.409   0.831  0.00  0.00    +0.000 A 
ATOM      4  C   UNL     1      -3.020  -0.389   0.889  0.00  0.00    +0.000 A 
ATOM      5  C   UNL     1      -3.711   0.788   1.220  0.00  0.00    +0.000 A 
ATOM      6  C   UNL     1      -2.971   1.948   1.466  0.00  0.00    +0.000 A 
ATOM      7  C   UNL     1      -1.578   1.931   1.400  0.00  0.00    +0.000 A 
BRANCH   5   8
ATOM      8  C   UNL     1      -5.222   0.832   1.274  0.00  0.00    +0.000 C 
BRANCH   8   9
ATOM      9  N   UNL     1      -5.779  -0.430   1.736  0.00  0.00    +0.000 NA
ATOM     10  H   UNL     1      -5.452  -0.598   2.696  0.00  0.00    +0.000 HD
BRANCH   9  11
ATOM     11  C   UNL     1      -7.238  -0.426   1.757  0.00  0.00    +0.000 C 
BRANCH  11  12
ATOM     12  C   UNL     1      -7.729  -1.814   2.197  0.00  0.00    +0.000 C 
ATOM     13  C   UNL     1      -9.236  -1.923   2.312  0.00  0.00    +0.000 C 
ATOM     14  C   UNL     1      -9.406  -3.190   3.134  0.00  0.00    +0.000 C 
ATOM     15  C   UNL     1      -8.151  -3.263   3.997  0.00  0.00    +0.000 C 
ATOM     16  N   UNL     1      -7.282  -2.172   3.558  0.00  0.00    +0.000 NA
ATOM     17  H   UNL     1      -6.310  -2.477   3.525  0.00  0.00    +0.000 HD
ENDBRANCH  11  12
ENDBRANCH   9  11
ENDBRANCH   8   9
ENDBRANCH   5   8
ENDBRANCH   1   2
BRANCH   1  18
ATOM     18  N   UNL     1       1.204   0.217  -0.120  0.00  0.00    +0.000 NA
ATOM     19  H   UNL     1       0.909   0.831  -0.878  0.00  0.00    +0.000 HD
BRANCH  18  21
ATOM     20  C   UNL     1       3.195  -0.748   1.029  0.00  0.00    +0.000 C 
ATOM     21  C   UNL     1       2.676   0.192  -0.067  0.00  0.00    +0.000 C 
BRANCH  21  22
ATOM     22  C   UNL     1       3.159  -0.235  -1.441  0.00  0.00    +0.000 A 
ATOM     23  C   UNL     1       2.857  -1.455  -2.033  0.00  0.00    +0.000 A 
ATOM     24  S   UNL     1       3.445  -1.597  -3.631  0.00  0.00    +0.000 S 
ATOM     25  C   UNL     1       4.106  -0.028  -3.587  0.00  0.00    +0.000 A 
ATOM     26  N   UNL     1       4.680   0.526  -4.693  0.00  0.00    +0.000 NA
ATOM     27  C   UNL     1       5.104   1.736  -4.513  0.00  0.00    +0.000 A 
ATOM     28  N   UNL     1       5.050   2.420  -3.323  0.00  0.00    +0.000 N 
ATOM     29  C   UNL     1       4.587   1.855  -2.157  0.00  0.00    +0.000 A 
ATOM     30  O   UNL     1       4.730   2.407  -1.073  0.00  0.00    +0.000 OA
ATOM     31  C   UNL     1       3.966   0.554  -2.342  0.00  0.00    +0.000 A 
ATOM     32  H   UNL     1       5.471   3.333  -3.238  0.00  0.00    +0.000 HD
ENDBRANCH  21  22
ENDBRANCH  18  21
ENDBRANCH   1  18
TORSDOF 8
