REMARK  Name = 
REMARK  7 active torsions:
REMARK  status: ('A' for Active; 'I' for Inactive)
REMARK    1  A    between atoms: C_1  and  C_2
REMARK    2  A    between atoms: C_2  and  C_3
REMARK    3  A    between atoms: C_2  and  C_15
REMARK    4  A    between atoms: C_3  and  N_4
REMARK    5  A    between atoms: N_4  and  C_5
REMARK    6  A    between atoms: C_8  and  C_9
REMARK    7  A    between atoms: C_19  and  C_20
REMARK                            x       y       z     vdW  Elec       q    Type
REMARK                         _______ _______ _______ _____ _____    ______ ____
ROOT
ATOM      1  N   UNL     1       2.878  -1.173   2.272  0.00  0.00    +0.000 N 
ATOM      2  H   UNL     1       1.885  -1.065   2.487  0.00  0.00    +0.000 HD
ENDROOT
BRANCH   1   3
ATOM      3  C   UNL     1       3.435  -2.179   3.091  0.00  0.00    +0.000 A 
ATOM      4  C   UNL     1       4.683  -2.744   2.797  0.00  0.00    +0.000 A 
ATOM      5  C   UNL     1       5.249  -3.734   3.605  0.00  0.00    +0.000 A 
ATOM      6  C   UNL     1       4.592  -4.164   4.760  0.00  0.00    +0.000 A 
ATOM      7  C   UNL     1       3.381  -3.556   5.117  0.00  0.00    +0.000 A 
ATOM      8  C   UNL     1       2.820  -2.569   4.299  0.00  0.00    +0.000 A 
ATOM      9 CL   UNL     1       1.313  -1.866   4.785  0.00  0.00    +0.000 Cl
BRANCH   6  10
ATOM     10  C   UNL     1       5.127  -5.246   5.632  0.00  0.00    +0.000 C 
ATOM     11  N   UNL     1       6.275  -5.886   5.254  0.00  0.00    +0.000 N 
ATOM     12  O   UNL     1       4.551  -5.577   6.661  0.00  0.00    +0.000 OA
ATOM     13  H   UNL     1       6.790  -5.718   4.405  0.00  0.00    +0.000 HD
ATOM     14  H   UNL     1       6.591  -6.640   5.851  0.00  0.00    +0.000 HD
ENDBRANCH   6  10
ENDBRANCH   1   3
BRANCH   1  15
ATOM     15  C   UNL     1       3.123  -1.292   0.837  0.00  0.00    +0.000 C 
BRANCH  15  17
ATOM     16  C   UNL     1       2.815   1.185   0.231  0.00  0.00    +0.000 C 
ATOM     17  C   UNL     1       2.334  -0.229   0.142  0.00  0.00    +0.000 C 
BRANCH  17  18
ATOM     18  C   UNL     1       0.968  -0.522  -0.312  0.00  0.00    +0.000 A 
ATOM     19  C   UNL     1      -0.085   0.322   0.059  0.00  0.00    +0.000 A 
ATOM     20  C   UNL     1      -1.398   0.024  -0.299  0.00  0.00    +0.000 A 
ATOM     21  C   UNL     1      -1.674  -1.116  -1.051  0.00  0.00    +0.000 A 
ATOM     22  C   UNL     1      -0.632  -1.955  -1.455  0.00  0.00    +0.000 A 
ATOM     23  C   UNL     1       0.687  -1.656  -1.084  0.00  0.00    +0.000 A 
BRANCH  22  24
ATOM     24  C   UNL     1      -0.911  -3.122  -2.240  0.00  0.00    +0.000 C 
ATOM     25  N   UNL     1      -1.134  -4.066  -2.874  0.00  0.00    +0.000 NA
ENDBRANCH  22  24
ENDBRANCH  17  18
ENDBRANCH  15  17
ENDBRANCH   1  15
TORSDOF 6
