REMARK  Name = 
REMARK  9 active torsions:
REMARK  status: ('A' for Active; 'I' for Inactive)
REMARK    1  A    between atoms: C_1  and  C_2
REMARK    2  A    between atoms: C_2  and  C_3
REMARK    3  A    between atoms: C_2  and  C_4
REMARK    4  A    between atoms: C_2  and  C_5
REMARK    5  A    between atoms: N_7  and  C_8
REMARK    6  A    between atoms: C_8  and  C_9
REMARK    7  A    between atoms: C_12  and  C_13
REMARK    8  A    between atoms: C_13  and  C_14
REMARK    9  A    between atoms: C_14  and  N_15
REMARK                            x       y       z     vdW  Elec       q    Type
REMARK                         _______ _______ _______ _____ _____    ______ ____
ROOT
ATOM      1  C   UNL     1       2.967   1.412   0.467  0.00  0.00    +0.000 A 
ATOM      2  C   UNL     1       2.442   2.613   0.017  0.00  0.00    +0.000 A 
ATOM      3  N   UNL     1       3.040   3.651   0.682  0.00  0.00    +0.000 N 
ATOM      4  C   UNL     1       4.008   3.166   1.533  0.00  0.00    +0.000 A 
ATOM      5  C   UNL     1       4.904   3.847   2.374  0.00  0.00    +0.000 A 
ATOM      6  C   UNL     1       5.785   3.086   3.138  0.00  0.00    +0.000 A 
ATOM      7  F   UNL     1       6.657   3.709   3.944  0.00  0.00    +0.000 F 
ATOM      8  C   UNL     1       5.780   1.701   3.086  0.00  0.00    +0.000 A 
ATOM      9  C   UNL     1       4.880   1.033   2.245  0.00  0.00    +0.000 A 
ATOM     10  C   UNL     1       3.978   1.767   1.436  0.00  0.00    +0.000 A 
ENDROOT
BRANCH   1  12
ATOM     11  C   UNL     1       1.459   0.101  -1.110  0.00  0.00    +0.000 C 
ATOM     12  C   UNL     1       2.521   0.017   0.015  0.00  0.00    +0.000 C 
ATOM     13  C   UNL     1       1.881  -0.748   1.191  0.00  0.00    +0.000 C 
ATOM     14  C   UNL     1       3.702  -0.801  -0.544  0.00  0.00    +0.000 C 
ENDBRANCH   1  12
BRANCH   3  15
ATOM     15  C   UNL     1       2.657   5.051   0.527  0.00  0.00    +0.000 C 
BRANCH  15  16
ATOM     16  C   UNL     1       3.492   5.715  -0.534  0.00  0.00    +0.000 A 
ATOM     17  C   UNL     1       3.081   5.706  -1.865  0.00  0.00    +0.000 A 
ATOM     18  C   UNL     1       3.938   6.208  -2.839  0.00  0.00    +0.000 A 
ATOM     19  C   UNL     1       5.189   6.704  -2.468  0.00  0.00    +0.000 A 
ATOM     20  C   UNL     1       5.499   6.714  -1.115  0.00  0.00    +0.000 A 
ATOM     21  N   UNL     1       4.679   6.247  -0.147  0.00  0.00    +0.000 NA
BRANCH  19  22
ATOM     22  C   UNL     1       6.196   7.135  -3.498  0.00  0.00    +0.000 C 
BRANCH  22  23
ATOM     23  C   UNL     1       7.082   5.958  -3.926  0.00  0.00    +0.000 C 
BRANCH  23  24
ATOM     24  N   UNL     1       8.041   6.365  -4.951  0.00  0.00    +0.000 NA
ATOM     25  H   UNL     1       7.544   6.639  -5.797  0.00  0.00    +0.000 HD
ATOM     26  H   UNL     1       8.614   5.561  -5.209  0.00  0.00    +0.000 HD
ENDBRANCH  23  24
ENDBRANCH  22  23
ENDBRANCH  19  22
ENDBRANCH  15  16
ENDBRANCH   3  15
TORSDOF 6
