REMARK  Name = 
REMARK  6 active torsions:
REMARK  status: ('A' for Active; 'I' for Inactive)
REMARK    1  A    between atoms: N_1  and  C_2
REMARK    2  A    between atoms: C_2  and  C_3
REMARK    3  A    between atoms: C_3  and  C_4
REMARK    4  A    between atoms: C_7  and  C_8
REMARK    5  A    between atoms: C_8  and  C_9
REMARK    6  A    between atoms: C_16  and  C_17
REMARK                            x       y       z     vdW  Elec       q    Type
REMARK                         _______ _______ _______ _____ _____    ______ ____
ROOT
ATOM      1  C   UNL     1       9.471  -0.038  -0.672  0.00  0.00    +0.000 A 
ATOM      2  N   UNL     1       9.787   0.171   0.617  0.00  0.00    +0.000 NA
ATOM      3  O   UNL     1       9.866   1.545   0.757  0.00  0.00    +0.000 OA
ATOM      4  C   UNL     1       9.677   2.131  -0.453  0.00  0.00    +0.000 A 
ATOM      5  C   UNL     1       9.529   3.490  -0.687  0.00  0.00    +0.000 A 
ATOM      6  C   UNL     1       9.351   3.865  -2.018  0.00  0.00    +0.000 A 
ATOM      7  F   UNL     1       9.131   5.166  -2.263  0.00  0.00    +0.000 F 
ATOM      8  C   UNL     1       9.383   2.935  -3.066  0.00  0.00    +0.000 A 
ATOM      9  C   UNL     1       9.496   1.558  -2.780  0.00  0.00    +0.000 A 
ATOM     10  C   UNL     1       9.594   1.158  -1.434  0.00  0.00    +0.000 A 
ENDROOT
BRANCH   8  11
ATOM     11  C   UNL     1       9.298   3.347  -4.492  0.00  0.00    +0.000 C 
ATOM     12  N   UNL     1       9.056   4.661  -4.774  0.00  0.00    +0.000 N 
ATOM     13  O   UNL     1       9.451   2.534  -5.398  0.00  0.00    +0.000 OA
ATOM     14  H   UNL     1       8.937   5.369  -4.058  0.00  0.00    +0.000 HD
ATOM     15  H   UNL     1       9.031   4.948  -5.743  0.00  0.00    +0.000 HD
ENDBRANCH   8  11
BRANCH   1  16
ATOM     16  C   UNL     1       8.841  -1.328  -1.079  0.00  0.00    +0.000 C 
BRANCH  16  20
ATOM     17  C   UNL     1       4.632  -0.233  -0.769  0.00  0.00    +0.000 A 
ATOM     18  C   UNL     1       5.271  -0.290  -2.014  0.00  0.00    +0.000 A 
ATOM     19  C   UNL     1       6.609  -0.693  -2.122  0.00  0.00    +0.000 A 
ATOM     20  C   UNL     1       7.349  -1.034  -0.983  0.00  0.00    +0.000 A 
ATOM     21  C   UNL     1       6.710  -0.979   0.265  0.00  0.00    +0.000 A 
ATOM     22  C   UNL     1       5.374  -0.576   0.370  0.00  0.00    +0.000 A 
BRANCH  17  23
ATOM     23  C   UNL     1       3.212   0.265  -0.591  0.00  0.00    +0.000 C 
BRANCH  23  24
ATOM     24  C   UNL     1       2.253  -0.023  -1.755  0.00  0.00    +0.000 C 
BRANCH  24  25
ATOM     25  N   UNL     1       0.897   0.450  -1.461  0.00  0.00    +0.000 NA
ATOM     26  H   UNL     1       0.289   0.258  -2.257  0.00  0.00    +0.000 HD
ATOM     27  H   UNL     1       0.905   1.464  -1.345  0.00  0.00    +0.000 HD
ENDBRANCH  24  25
ENDBRANCH  23  24
ENDBRANCH  17  23
ENDBRANCH  16  20
ENDBRANCH   1  16
TORSDOF 6
