REMARK  Name = 
REMARK  7 active torsions:
REMARK  status: ('A' for Active; 'I' for Inactive)
REMARK    1  A    between atoms: C_1  and  C_2
REMARK    2  A    between atoms: C_2  and  N_3
REMARK    3  A    between atoms: C_2  and  C_16
REMARK    4  A    between atoms: C_4  and  C_6
REMARK    5  A    between atoms: C_19  and  O_20
REMARK    6  A    between atoms: O_20  and  C_21
REMARK    7  A    between atoms: C_21  and  C_22
REMARK                            x       y       z     vdW  Elec       q    Type
REMARK                         _______ _______ _______ _____ _____    ______ ____
ROOT
ATOM      1  C   UNL     1       1.040  -0.465  -0.254  0.00  0.00    +0.000 C 
ATOM      2  C   UNL     1       2.494  -0.042  -0.018  0.00  0.00    +0.000 C 
ENDROOT
BRANCH   2   3
ATOM      3  C   UNL     1       3.083   0.404  -1.351  0.00  0.00    +0.000 A 
ATOM      4  C   UNL     1       3.010   1.751  -1.738  0.00  0.00    +0.000 A 
ATOM      5  C   UNL     1       3.517   2.167  -2.974  0.00  0.00    +0.000 A 
ATOM      6  C   UNL     1       4.117   1.249  -3.835  0.00  0.00    +0.000 A 
ATOM      7  C   UNL     1       4.140  -0.101  -3.485  0.00  0.00    +0.000 A 
ATOM      8  C   UNL     1       3.631  -0.519  -2.254  0.00  0.00    +0.000 A 
BRANCH   6   9
ATOM      9  O   UNL     1       4.647   1.765  -4.989  0.00  0.00    +0.000 OA
BRANCH   9  10
ATOM     10  C   UNL     1       5.671   0.963  -5.583  0.00  0.00    +0.000 C 
BRANCH  10  11
ATOM     11  C   UNL     1       6.506   1.798  -6.509  0.00  0.00    +0.000 A 
ATOM     12  C   UNL     1       5.979   2.372  -7.667  0.00  0.00    +0.000 A 
ATOM     13  C   UNL     1       6.808   3.111  -8.505  0.00  0.00    +0.000 A 
ATOM     14  C   UNL     1       8.141   3.251  -8.158  0.00  0.00    +0.000 A 
ATOM     15  N   UNL     1       8.689   2.708  -7.049  0.00  0.00    +0.000 NA
ATOM     16  C   UNL     1       7.859   2.000  -6.251  0.00  0.00    +0.000 A 
ENDBRANCH  10  11
ENDBRANCH   9  10
ENDBRANCH   6   9
ENDBRANCH   2   3
BRANCH   2  17
ATOM     17  N   UNL     1       3.295  -1.100   0.589  0.00  0.00    +0.000 N 
ATOM     18  C   UNL     1       2.998  -1.627   1.824  0.00  0.00    +0.000 C 
ATOM     19  O   UNL     1       2.027  -1.264   2.480  0.00  0.00    +0.000 OA
ATOM     20  H   UNL     1       4.256  -1.181   0.268  0.00  0.00    +0.000 HD
BRANCH  18  21
ATOM     21  C   UNL     1       3.869  -2.705   2.309  0.00  0.00    +0.000 A 
ATOM     22  C   UNL     1       3.357  -3.645   3.193  0.00  0.00    +0.000 A 
ATOM     23  S   UNL     1       4.490  -4.826   3.671  0.00  0.00    +0.000 S 
ATOM     24  C   UNL     1       5.716  -4.099   2.741  0.00  0.00    +0.000 A 
ATOM     25  N   UNL     1       6.980  -4.600   2.740  0.00  0.00    +0.000 NA
ATOM     26  C   UNL     1       7.818  -3.931   2.020  0.00  0.00    +0.000 A 
ATOM     27  N   UNL     1       7.500  -2.817   1.284  0.00  0.00    +0.000 N 
ATOM     28  C   UNL     1       6.225  -2.307   1.215  0.00  0.00    +0.000 A 
ATOM     29  O   UNL     1       5.951  -1.363   0.484  0.00  0.00    +0.000 OA
ATOM     30  C   UNL     1       5.255  -2.996   2.046  0.00  0.00    +0.000 A 
ATOM     31  H   UNL     1       8.199  -2.355   0.723  0.00  0.00    +0.000 HD
ENDBRANCH  18  21
ENDBRANCH   2  17
TORSDOF 6
