REMARK  Name = 
REMARK  7 active torsions:
REMARK  status: ('A' for Active; 'I' for Inactive)
REMARK    1  A    between atoms: C_1  and  C_2
REMARK    2  A    between atoms: C_2  and  N_3
REMARK    3  A    between atoms: C_2  and  C_16
REMARK    4  A    between atoms: C_4  and  C_6
REMARK    5  A    between atoms: C_19  and  O_20
REMARK    6  A    between atoms: O_20  and  C_21
REMARK    7  A    between atoms: C_25  and  C_26
REMARK                            x       y       z     vdW  Elec       q    Type
REMARK                         _______ _______ _______ _____ _____    ______ ____
ROOT
ATOM      1  C   UNL     1       3.032   0.548   1.506  0.00  0.00    +0.000 C 
ATOM      2  C   UNL     1       2.524  -0.143   0.241  0.00  0.00    +0.000 C 
ENDROOT
BRANCH   2   3
ATOM      3  C   UNL     1       3.122  -1.521   0.019  0.00  0.00    +0.000 A 
ATOM      4  C   UNL     1       3.343  -1.983  -1.289  0.00  0.00    +0.000 A 
ATOM      5  C   UNL     1       3.737  -3.304  -1.522  0.00  0.00    +0.000 A 
ATOM      6  C   UNL     1       3.955  -4.167  -0.446  0.00  0.00    +0.000 A 
ATOM      7  C   UNL     1       3.770  -3.708   0.854  0.00  0.00    +0.000 A 
ATOM      8  C   UNL     1       3.358  -2.399   1.087  0.00  0.00    +0.000 A 
BRANCH   6   9
ATOM      9  O   UNL     1       4.258  -5.503  -0.540  0.00  0.00    +0.000 OA
BRANCH   9  10
ATOM     10  C   UNL     1       4.988  -5.982  -1.596  0.00  0.00    +0.000 A 
ATOM     11  C   UNL     1       6.004  -5.275  -2.238  0.00  0.00    +0.000 A 
ATOM     12  C   UNL     1       6.684  -5.845  -3.313  0.00  0.00    +0.000 A 
ATOM     13  C   UNL     1       6.396  -7.151  -3.701  0.00  0.00    +0.000 A 
ATOM     14  C   UNL     1       5.425  -7.887  -3.013  0.00  0.00    +0.000 A 
ATOM     15  C   UNL     1       4.715  -7.301  -1.964  0.00  0.00    +0.000 A 
BRANCH  14  16
ATOM     16  C   UNL     1       5.169  -9.244  -3.374  0.00  0.00    +0.000 C 
ATOM     17  N   UNL     1       4.964 -10.346  -3.670  0.00  0.00    +0.000 NA
ENDBRANCH  14  16
ENDBRANCH   9  10
ENDBRANCH   6   9
ENDBRANCH   2   3
BRANCH   2  18
ATOM     18  N   UNL     1       1.074  -0.273   0.295  0.00  0.00    +0.000 N 
ATOM     19  C   UNL     1       0.244   0.699  -0.205  0.00  0.00    +0.000 C 
ATOM     20  O   UNL     1       0.667   1.714  -0.749  0.00  0.00    +0.000 OA
ATOM     21  H   UNL     1       0.690  -1.011   0.866  0.00  0.00    +0.000 HD
BRANCH  19  22
ATOM     22  C   UNL     1      -1.188   0.414  -0.104  0.00  0.00    +0.000 A 
ATOM     23  C   UNL     1      -1.739  -0.858  -0.161  0.00  0.00    +0.000 A 
ATOM     24  S   UNL     1      -3.450  -0.843  -0.236  0.00  0.00    +0.000 S 
ATOM     25  C   UNL     1      -3.495   0.859  -0.195  0.00  0.00    +0.000 A 
ATOM     26  N   UNL     1      -4.665   1.545  -0.311  0.00  0.00    +0.000 NA
ATOM     27  C   UNL     1      -4.526   2.827  -0.293  0.00  0.00    +0.000 A 
ATOM     28  N   UNL     1      -3.334   3.491  -0.128  0.00  0.00    +0.000 N 
ATOM     29  C   UNL     1      -2.149   2.837   0.125  0.00  0.00    +0.000 A 
ATOM     30  O   UNL     1      -1.167   3.445   0.534  0.00  0.00    +0.000 OA
ATOM     31  C   UNL     1      -2.233   1.398  -0.036  0.00  0.00    +0.000 A 
ATOM     32  H   UNL     1      -3.309   4.493  -0.027  0.00  0.00    +0.000 HD
ENDBRANCH  19  22
ENDBRANCH   2  18
TORSDOF 6
