REMARK  Name = 
REMARK  9 active torsions:
REMARK  status: ('A' for Active; 'I' for Inactive)
REMARK    1  A    between atoms: C_2  and  C_3
REMARK    2  A    between atoms: C_3  and  N_4
REMARK    3  A    between atoms: C_3  and  C_20
REMARK    4  A    between atoms: N_4  and  C_5
REMARK    5  A    between atoms: C_5  and  C_6
REMARK    6  A    between atoms: C_9  and  C_10
REMARK    7  A    between atoms: C_10  and  N_11
REMARK    8  A    between atoms: N_11  and  C_12
REMARK    9  A    between atoms: C_12  and  C_13
REMARK                            x       y       z     vdW  Elec       q    Type
REMARK                         _______ _______ _______ _____ _____    ______ ____
ROOT
ATOM      1  C   UNL     1       3.757  -0.037   2.359  0.00  0.00    +0.000 C 
ENDROOT
BRANCH   1   2
ATOM      2  C   UNL     1       4.147  -0.735   3.635  0.00  0.00    +0.000 A 
ATOM      3  C   UNL     1       4.506  -0.005   4.774  0.00  0.00    +0.000 A 
ATOM      4  C   UNL     1       4.805  -0.663   5.967  0.00  0.00    +0.000 A 
ATOM      5  C   UNL     1       4.729  -2.058   6.051  0.00  0.00    +0.000 A 
ATOM      6  C   UNL     1       4.377  -2.791   4.912  0.00  0.00    +0.000 A 
ATOM      7  C   UNL     1       4.093  -2.135   3.715  0.00  0.00    +0.000 A 
BRANCH   5   8
ATOM      8  C   UNL     1       5.013  -2.755   7.358  0.00  0.00    +0.000 C 
BRANCH   8   9
ATOM      9  N   UNL     1       4.068  -2.308   8.384  0.00  0.00    +0.000 NA
ATOM     10  H   UNL     1       3.130  -2.570   8.076  0.00  0.00    +0.000 HD
BRANCH   9  11
ATOM     11  C   UNL     1       4.337  -2.989   9.655  0.00  0.00    +0.000 C 
BRANCH  11  12
ATOM     12  C   UNL     1       3.386  -2.529  10.711  0.00  0.00    +0.000 A 
ATOM     13  N   UNL     1       2.925  -3.227  11.730  0.00  0.00    +0.000 NA
ATOM     14  C   UNL     1       2.071  -2.387  12.397  0.00  0.00    +0.000 A 
ATOM     15  C   UNL     1       2.008  -1.161  11.778  0.00  0.00    +0.000 A 
ATOM     16  N   UNL     1       2.864  -1.257  10.719  0.00  0.00    +0.000 N 
ATOM     17  H   UNL     1       3.067  -0.556  10.019  0.00  0.00    +0.000 HD
ENDBRANCH  11  12
ENDBRANCH   9  11
ENDBRANCH   8   9
ENDBRANCH   5   8
ENDBRANCH   1   2
BRANCH   1  18
ATOM     18  N   UNL     1       4.832   0.817   1.842  0.00  0.00    +0.000 NA
ATOM     19  H   UNL     1       5.051   1.531   2.531  0.00  0.00    +0.000 HD
BRANCH  18  20
ATOM     20  C   UNL     1       4.402   1.489   0.600  0.00  0.00    +0.000 C 
BRANCH  20  21
ATOM     21  C   UNL     1       5.524   2.373   0.094  0.00  0.00    +0.000 A 
ATOM     22  C   UNL     1       6.883   2.127   0.235  0.00  0.00    +0.000 A 
ATOM     23  S   UNL     1       7.866   3.317  -0.501  0.00  0.00    +0.000 S 
ATOM     24  C   UNL     1       6.510   4.183  -1.057  0.00  0.00    +0.000 A 
ATOM     25  N   UNL     1       6.643   5.317  -1.796  0.00  0.00    +0.000 NA
ATOM     26  C   UNL     1       5.522   5.843  -2.168  0.00  0.00    +0.000 A 
ATOM     27  N   UNL     1       4.279   5.347  -1.859  0.00  0.00    +0.000 N 
ATOM     28  C   UNL     1       4.095   4.216  -1.098  0.00  0.00    +0.000 A 
ATOM     29  O   UNL     1       2.982   3.795  -0.807  0.00  0.00    +0.000 OA
ATOM     30  C   UNL     1       5.329   3.582  -0.672  0.00  0.00    +0.000 A 
ATOM     31  H   UNL     1       3.443   5.811  -2.181  0.00  0.00    +0.000 HD
ENDBRANCH  20  21
BRANCH  20  33
ATOM     32  N   UNL     1       3.767  -0.345  -1.393  0.00  0.00    +0.000 NA
ATOM     33  C   UNL     1       4.055   0.487  -0.489  0.00  0.00    +0.000 C 
ENDBRANCH  20  33
ENDBRANCH  18  20
ENDBRANCH   1  18
TORSDOF 9
