REMARK  Name = 
REMARK  5 active torsions:
REMARK  status: ('A' for Active; 'I' for Inactive)
REMARK    1  A    between atoms: C_2  and  C_4
REMARK    2  A    between atoms: C_7  and  N_8
REMARK    3  A    between atoms: N_8  and  C_9
REMARK    4  A    between atoms: C_9  and  C_10
REMARK    5  A    between atoms: C_14  and  C_15
REMARK                            x       y       z     vdW  Elec       q    Type
REMARK                         _______ _______ _______ _____ _____    ______ ____
ROOT
ATOM      1  C   UNL     1       4.950  -0.059  -6.165  0.00  0.00    +0.000 C 
ENDROOT
BRANCH   1   2
ATOM      2  C   UNL     1       5.852  -0.486  -7.287  0.00  0.00    +0.000 A 
ATOM      3  C   UNL     1       5.387  -1.325  -8.290  0.00  0.00    +0.000 A 
ATOM      4  N   UNL     1       6.128  -1.718  -9.344  0.00  0.00    +0.000 NA
ATOM      5  C   UNL     1       7.402  -1.251  -9.402  0.00  0.00    +0.000 A 
ATOM      6  C   UNL     1       7.995  -0.398  -8.468  0.00  0.00    +0.000 A 
ATOM      7  C   UNL     1       7.170  -0.014  -7.397  0.00  0.00    +0.000 A 
BRANCH   6   8
ATOM      8  C   UNL     1       9.398   0.060  -8.589  0.00  0.00    +0.000 A 
ATOM      9  C   UNL     1      10.187   0.316  -7.448  0.00  0.00    +0.000 A 
ATOM     10  C   UNL     1      11.519   0.736  -7.551  0.00  0.00    +0.000 A 
ATOM     11  C   UNL     1      12.099   0.901  -8.802  0.00  0.00    +0.000 A 
ATOM     12  C   UNL     1      11.340   0.653  -9.937  0.00  0.00    +0.000 A 
ATOM     13  F   UNL     1      11.895   0.806 -11.146  0.00  0.00    +0.000 F 
ATOM     14  C   UNL     1      10.010   0.246  -9.842  0.00  0.00    +0.000 A 
ENDBRANCH   6   8
ENDBRANCH   1   2
BRANCH   1  15
ATOM     15  N   UNL     1       5.525  -0.407  -4.872  0.00  0.00    +0.000 N 
ATOM     16  H   UNL     1       5.971  -1.323  -4.845  0.00  0.00    +0.000 HD
BRANCH  15  20
ATOM     17  C   UNL     1       3.597   0.597  -1.249  0.00  0.00    +0.000 A 
ATOM     18  C   UNL     1       3.006   0.949  -2.462  0.00  0.00    +0.000 A 
ATOM     19  C   UNL     1       3.626   0.605  -3.669  0.00  0.00    +0.000 A 
ATOM     20  C   UNL     1       4.825  -0.119  -3.697  0.00  0.00    +0.000 A 
ATOM     21  C   UNL     1       5.414  -0.449  -2.468  0.00  0.00    +0.000 A 
ATOM     22  C   UNL     1       4.812  -0.093  -1.253  0.00  0.00    +0.000 A 
BRANCH  17  24
ATOM     23  N   UNL     1       1.633   1.134   0.087  0.00  0.00    +0.000 N 
ATOM     24  C   UNL     1       2.992   0.983   0.051  0.00  0.00    +0.000 C 
ATOM     25  O   UNL     1       3.671   1.132   1.059  0.00  0.00    +0.000 OA
ATOM     26  H   UNL     1       1.225   1.302   0.997  0.00  0.00    +0.000 HD
ATOM     27  H   UNL     1       1.030   0.779  -0.642  0.00  0.00    +0.000 HD
ENDBRANCH  17  24
ENDBRANCH  15  20
ENDBRANCH   1  15
TORSDOF 5
