REMARK  Name = 
REMARK  6 active torsions:
REMARK  status: ('A' for Active; 'I' for Inactive)
REMARK    1  A    between atoms: C_1  and  C_2
REMARK    2  A    between atoms: C_2  and  C_3
REMARK    3  A    between atoms: C_2  and  C_14
REMARK    4  A    between atoms: C_3  and  N_4
REMARK    5  A    between atoms: C_8  and  C_9
REMARK    6  A    between atoms: C_18  and  C_19
REMARK                            x       y       z     vdW  Elec       q    Type
REMARK                         _______ _______ _______ _____ _____    ______ ____
ROOT
ATOM      1  C   UNL     1       2.925  -1.314   0.776  0.00  0.00    +0.000 C 
ENDROOT
BRANCH   1   2
ATOM      2  N   UNL     1       2.430  -2.670   0.554  0.00  0.00    +0.000 N 
ATOM      3  C   UNL     1       3.021  -3.619   1.405  0.00  0.00    +0.000 A 
ATOM      4  C   UNL     1       2.657  -4.971   1.318  0.00  0.00    +0.000 A 
ATOM      5  N   UNL     1       3.161  -5.953   2.116  0.00  0.00    +0.000 NA
ATOM      6  C   UNL     1       4.067  -5.515   3.034  0.00  0.00    +0.000 A 
ATOM      7  C   UNL     1       4.434  -4.185   3.140  0.00  0.00    +0.000 A 
ATOM      8  N   UNL     1       3.916  -3.223   2.336  0.00  0.00    +0.000 NA
ATOM      9  H   UNL     1       2.563  -2.955  -0.413  0.00  0.00    +0.000 HD
BRANCH   6  10
ATOM     10  C   UNL     1       4.669  -6.508   3.962  0.00  0.00    +0.000 C 
ATOM     11  N   UNL     1       4.234  -7.797   3.827  0.00  0.00    +0.000 N 
ATOM     12  O   UNL     1       5.502  -6.194   4.802  0.00  0.00    +0.000 OA
ATOM     13  H   UNL     1       3.531  -8.030   3.135  0.00  0.00    +0.000 HD
ATOM     14  H   UNL     1       4.598  -8.506   4.447  0.00  0.00    +0.000 HD
ENDBRANCH   6  10
ENDBRANCH   1   2
BRANCH   1  16
ATOM     15  C   UNL     1       0.816  -0.070  -0.019  0.00  0.00    +0.000 C 
ATOM     16  C   UNL     1       2.254  -0.424  -0.225  0.00  0.00    +0.000 C 
BRANCH  16  17
ATOM     17  C   UNL     1       2.904  -0.154  -1.515  0.00  0.00    +0.000 A 
ATOM     18  C   UNL     1       2.208  -0.374  -2.708  0.00  0.00    +0.000 A 
ATOM     19  C   UNL     1       2.822  -0.158  -3.941  0.00  0.00    +0.000 A 
ATOM     20  C   UNL     1       4.134   0.307  -3.995  0.00  0.00    +0.000 A 
ATOM     21  C   UNL     1       4.845   0.564  -2.815  0.00  0.00    +0.000 A 
ATOM     22  C   UNL     1       4.223   0.316  -1.579  0.00  0.00    +0.000 A 
BRANCH  21  23
ATOM     23  C   UNL     1       6.249   1.116  -2.857  0.00  0.00    +0.000 C 
ATOM     24  F   UNL     1       6.714   1.325  -4.120  0.00  0.00    +0.000 F 
ATOM     25  F   UNL     1       6.356   2.315  -2.219  0.00  0.00    +0.000 F 
ATOM     26  F   UNL     1       7.154   0.292  -2.259  0.00  0.00    +0.000 F 
ENDBRANCH  21  23
ENDBRANCH  16  17
ENDBRANCH   1  16
TORSDOF 5
