REMARK  Name = 
REMARK  6 active torsions:
REMARK  status: ('A' for Active; 'I' for Inactive)
REMARK    1  A    between atoms: C_2  and  C_4
REMARK    2  A    between atoms: N_8  and  C_9
REMARK    3  A    between atoms: C_9  and  C_10
REMARK    4  A    between atoms: C_10  and  C_13
REMARK    5  A    between atoms: C_17  and  O_18
REMARK    6  A    between atoms: O_18  and  C_19
REMARK                            x       y       z     vdW  Elec       q    Type
REMARK                         _______ _______ _______ _____ _____    ______ ____
ROOT
ATOM      1  C   UNL     1       5.478  -5.067   2.760  0.00  0.00    +0.000 C 
ENDROOT
BRANCH   1   6
ATOM      2  C   UNL     1       2.992  -0.905   1.015  0.00  0.00    +0.000 A 
ATOM      3  C   UNL     1       2.721  -2.260   0.862  0.00  0.00    +0.000 A 
ATOM      4  C   UNL     1       3.588  -3.195   1.432  0.00  0.00    +0.000 A 
ATOM      5  C   UNL     1       4.707  -2.764   2.140  0.00  0.00    +0.000 A 
ATOM      6  N   UNL     1       5.606  -3.615   2.718  0.00  0.00    +0.000 N 
ATOM      7  N   UNL     1       4.980  -1.453   2.284  0.00  0.00    +0.000 NA
ATOM      8  C   UNL     1       4.132  -0.554   1.717  0.00  0.00    +0.000 A 
ATOM      9  H   UNL     1       6.366  -3.158   3.212  0.00  0.00    +0.000 HD
BRANCH   2  11
ATOM     10  N   UNL     1       0.821  -0.147   0.227  0.00  0.00    +0.000 N 
ATOM     11  C   UNL     1       2.136   0.156   0.445  0.00  0.00    +0.000 C 
ATOM     12  O   UNL     1       2.579   1.270   0.199  0.00  0.00    +0.000 OA
ATOM     13  H   UNL     1       0.230   0.619  -0.072  0.00  0.00    +0.000 HD
ATOM     14  H   UNL     1       0.370  -0.951   0.639  0.00  0.00    +0.000 HD
ENDBRANCH   2  11
ENDBRANCH   1   6
BRANCH   1  15
ATOM     15  C   UNL     1       6.603  -5.771   3.561  0.00  0.00    +0.000 C 
ATOM     16  F   UNL     1       7.809  -5.434   3.013  0.00  0.00    +0.000 F 
ATOM     17  F   UNL     1       6.626  -5.256   4.826  0.00  0.00    +0.000 F 
BRANCH  15  18
ATOM     18  C   UNL     1       6.374  -7.271   3.560  0.00  0.00    +0.000 A 
ATOM     19  C   UNL     1       5.618  -7.884   4.568  0.00  0.00    +0.000 A 
ATOM     20  C   UNL     1       5.365  -9.258   4.522  0.00  0.00    +0.000 A 
ATOM     21  C   UNL     1       5.869 -10.035   3.476  0.00  0.00    +0.000 A 
ATOM     22  C   UNL     1       6.635  -9.437   2.479  0.00  0.00    +0.000 A 
ATOM     23  C   UNL     1       6.880  -8.062   2.518  0.00  0.00    +0.000 A 
BRANCH  22  24
ATOM     24  O   UNL     1       7.161 -10.088   1.392  0.00  0.00    +0.000 OA
BRANCH  24  25
ATOM     25  C   UNL     1       7.407 -11.509   1.479  0.00  0.00    +0.000 C 
ATOM     26  C   UNL     1       8.523 -12.000   2.413  0.00  0.00    +0.000 C 
ATOM     27  O   UNL     1       9.192 -12.693   1.333  0.00  0.00    +0.000 OA
ATOM     28  C   UNL     1       8.305 -12.078   0.371  0.00  0.00    +0.000 C 
ENDBRANCH  24  25
ENDBRANCH  22  24
ENDBRANCH  15  18
ENDBRANCH   1  15
TORSDOF 6
