REMARK  Name = 
REMARK  3 active torsions:
REMARK  status: ('A' for Active; 'I' for Inactive)
REMARK    1  A    between atoms: C_2  and  C_3
REMARK    2  A    between atoms: C_7  and  C_8
REMARK    3  A    between atoms: C_8  and  N_9
REMARK                            x       y       z     vdW  Elec       q    Type
REMARK                         _______ _______ _______ _____ _____    ______ ____
ROOT
ATOM      1  N   UNL     1       3.879   2.278   0.016  0.00  0.00    +0.000 N 
ATOM      2  C   UNL     1       4.655   2.138  -1.110  0.00  0.00    +0.000 A 
ATOM      3  C   UNL     1       5.974   2.146  -0.721  0.00  0.00    +0.000 A 
ATOM      4  C   UNL     1       6.008   2.308   0.690  0.00  0.00    +0.000 A 
ATOM      5  C   UNL     1       7.052   2.426   1.627  0.00  0.00    +0.000 A 
ATOM      6  C   UNL     1       6.731   2.605   2.971  0.00  0.00    +0.000 A 
ATOM      7  F   UNL     1       7.720   2.757   3.863  0.00  0.00    +0.000 F 
ATOM      8  C   UNL     1       5.414   2.639   3.407  0.00  0.00    +0.000 A 
ATOM      9  C   UNL     1       4.362   2.507   2.498  0.00  0.00    +0.000 A 
ATOM     10  C   UNL     1       4.683   2.366   1.138  0.00  0.00    +0.000 A 
ENDROOT
BRANCH   1  11
ATOM     11  C   UNL     1       2.425   2.421  -0.003  0.00  0.00    +0.000 C 
BRANCH  11  16
ATOM     12  C   UNL     1      -0.523   0.006   0.003  0.00  0.00    +0.000 A 
ATOM     13  C   UNL     1       0.108  -1.239   0.037  0.00  0.00    +0.000 A 
ATOM     14  C   UNL     1       1.496  -1.310   0.117  0.00  0.00    +0.000 A 
ATOM     15  C   UNL     1       2.261  -0.142   0.141  0.00  0.00    +0.000 A 
ATOM     16  C   UNL     1       1.654   1.120   0.058  0.00  0.00    +0.000 A 
ATOM     17  C   UNL     1       0.248   1.178   0.007  0.00  0.00    +0.000 A 
BRANCH  12  19
ATOM     18  N   UNL     1      -3.112   0.147  -0.048  0.00  0.00    +0.000 NA
ATOM     19  C   UNL     1      -1.952   0.082  -0.032  0.00  0.00    +0.000 C 
ENDBRANCH  12  19
ENDBRANCH  11  16
ENDBRANCH   1  11
TORSDOF 3
