REMARK  Name = 
REMARK  7 active torsions:
REMARK  status: ('A' for Active; 'I' for Inactive)
REMARK    1  A    between atoms: N_1  and  C_2
REMARK    2  A    between atoms: C_2  and  C_3
REMARK    3  A    between atoms: C_3  and  N_4
REMARK    4  A    between atoms: C_3  and  C_17
REMARK    5  A    between atoms: C_5  and  C_7
REMARK    6  A    between atoms: C_20  and  C_21
REMARK    7  A    between atoms: C_21  and  C_22
REMARK                            x       y       z     vdW  Elec       q    Type
REMARK                         _______ _______ _______ _____ _____    ______ ____
ROOT
ATOM      1  C   UNL     1       2.908  -0.185  -1.240  0.00  0.00    +0.000 C 
ENDROOT
BRANCH   1   2
ATOM      2  C   UNL     1       4.436  -0.195  -1.317  0.00  0.00    +0.000 A 
ATOM      3  C   UNL     1       5.115  -1.347  -1.740  0.00  0.00    +0.000 A 
ATOM      4  C   UNL     1       6.512  -1.362  -1.831  0.00  0.00    +0.000 A 
ATOM      5  C   UNL     1       7.264  -0.221  -1.522  0.00  0.00    +0.000 A 
ATOM      6  C   UNL     1       6.590   0.933  -1.105  0.00  0.00    +0.000 A 
ATOM      7  C   UNL     1       5.194   0.944  -0.998  0.00  0.00    +0.000 A 
BRANCH   5   8
ATOM      8  C   UNL     1       8.774  -0.229  -1.628  0.00  0.00    +0.000 C 
BRANCH   8   9
ATOM      9  C   UNL     1       9.353   0.178  -2.967  0.00  0.00    +0.000 A 
ATOM     10  C   UNL     1       9.070  -0.549  -4.123  0.00  0.00    +0.000 A 
ATOM     11  C   UNL     1       9.738  -0.236  -5.305  0.00  0.00    +0.000 A 
ATOM     12  C   UNL     1      10.666   0.796  -5.310  0.00  0.00    +0.000 A 
ATOM     13  C   UNL     1      10.875   1.487  -4.130  0.00  0.00    +0.000 A 
ATOM     14  N   UNL     1      10.246   1.202  -2.967  0.00  0.00    +0.000 NA
ENDBRANCH   8   9
ENDBRANCH   5   8
ENDBRANCH   1   2
BRANCH   1  15
ATOM     15  N   UNL     1       2.405   0.796  -2.196  0.00  0.00    +0.000 N 
ATOM     16  C   UNL     1       1.076   0.929  -2.505  0.00  0.00    +0.000 C 
ATOM     17  O   UNL     1       0.185   0.329  -1.916  0.00  0.00    +0.000 OA
ATOM     18  H   UNL     1       3.086   1.130  -2.868  0.00  0.00    +0.000 HD
BRANCH  16  19
ATOM     19  C   UNL     1       0.770   1.899  -3.560  0.00  0.00    +0.000 A 
ATOM     20  C   UNL     1      -0.428   2.600  -3.545  0.00  0.00    +0.000 A 
ATOM     21  S   UNL     1      -0.588   3.691  -4.847  0.00  0.00    +0.000 S 
ATOM     22  C   UNL     1       0.912   3.221  -5.503  0.00  0.00    +0.000 A 
ATOM     23  N   UNL     1       1.371   3.750  -6.667  0.00  0.00    +0.000 NA
ATOM     24  C   UNL     1       2.505   3.269  -7.061  0.00  0.00    +0.000 A 
ATOM     25  N   UNL     1       3.227   2.317  -6.391  0.00  0.00    +0.000 N 
ATOM     26  C   UNL     1       2.827   1.794  -5.190  0.00  0.00    +0.000 A 
ATOM     27  O   UNL     1       3.536   1.011  -4.572  0.00  0.00    +0.000 OA
ATOM     28  C   UNL     1       1.539   2.270  -4.718  0.00  0.00    +0.000 A 
ATOM     29  H   UNL     1       4.120   2.002  -6.737  0.00  0.00    +0.000 HD
ENDBRANCH  16  19
ENDBRANCH   1  15
BRANCH   1  30
ATOM     30  C   UNL     1       2.392   0.100   0.203  0.00  0.00    +0.000 C 
BRANCH  30  31
ATOM     31  N   UNL     1       2.877  -0.832   1.228  0.00  0.00    +0.000 NA
ATOM     32  H   UNL     1       2.673  -0.438   2.145  0.00  0.00    +0.000 HD
ATOM     33  H   UNL     1       3.894  -0.904   1.166  0.00  0.00    +0.000 HD
ENDBRANCH  30  31
ENDBRANCH   1  30
TORSDOF 7
