REMARK  Name = 
REMARK  4 active torsions:
REMARK  status: ('A' for Active; 'I' for Inactive)
REMARK    1  A    between atoms: C_1  and  C_2
REMARK    2  A    between atoms: C_2  and  N_3
REMARK    3  A    between atoms: C_2  and  C_13
REMARK    4  A    between atoms: C_7  and  C_8
REMARK                            x       y       z     vdW  Elec       q    Type
REMARK                         _______ _______ _______ _____ _____    ______ ____
ROOT
ATOM      1  N   UNL     1       2.713   1.587   0.156  0.00  0.00    +0.000 N 
ATOM      2  C   UNL     1       2.374   2.446  -0.901  0.00  0.00    +0.000 A 
ATOM      3  C   UNL     1       2.196   3.813  -0.632  0.00  0.00    +0.000 A 
ATOM      4  N   UNL     1       1.903   4.752  -1.570  0.00  0.00    +0.000 NA
ATOM      5  C   UNL     1       1.820   4.264  -2.836  0.00  0.00    +0.000 A 
ATOM      6  C   UNL     1       2.017   2.922  -3.127  0.00  0.00    +0.000 A 
ATOM      7  N   UNL     1       2.290   1.991  -2.168  0.00  0.00    +0.000 NA
ATOM      8  H   UNL     1       3.704   1.729   0.348  0.00  0.00    +0.000 HD
ENDROOT
BRANCH   5   9
ATOM      9  C   UNL     1       1.503   5.224  -3.930  0.00  0.00    +0.000 C 
ATOM     10  N   UNL     1       1.254   6.513  -3.540  0.00  0.00    +0.000 N 
ATOM     11  O   UNL     1       1.458   4.885  -5.107  0.00  0.00    +0.000 OA
ATOM     12  H   UNL     1       1.281   6.767  -2.559  0.00  0.00    +0.000 HD
ATOM     13  H   UNL     1       1.026   7.201  -4.242  0.00  0.00    +0.000 HD
ENDBRANCH   5   9
BRANCH   1  15
ATOM     14  C   UNL     1       0.904  -0.074  -0.078  0.00  0.00    +0.000 C 
ATOM     15  C   UNL     1       2.421   0.158  -0.025  0.00  0.00    +0.000 C 
BRANCH  15  16
ATOM     16  C   UNL     1       2.969  -0.641   1.151  0.00  0.00    +0.000 A 
ATOM     17  C   UNL     1       3.070  -0.131   2.452  0.00  0.00    +0.000 A 
ATOM     18  C   UNL     1       3.471  -0.960   3.497  0.00  0.00    +0.000 A 
ATOM     19  C   UNL     1       3.756  -2.284   3.214  0.00  0.00    +0.000 A 
ATOM     20  N   UNL     1       3.683  -2.816   1.977  0.00  0.00    +0.000 NA
ATOM     21  C   UNL     1       3.292  -1.987   0.980  0.00  0.00    +0.000 A 
ENDBRANCH  15  16
ENDBRANCH   1  15
TORSDOF 3
