REMARK  Name = 
REMARK  4 active torsions:
REMARK  status: ('A' for Active; 'I' for Inactive)
REMARK    1  A    between atoms: C_2  and  C_3
REMARK    2  A    between atoms: N_7  and  C_8
REMARK    3  A    between atoms: C_8  and  C_9
REMARK    4  A    between atoms: C_13  and  C_14
REMARK                            x       y       z     vdW  Elec       q    Type
REMARK                         _______ _______ _______ _____ _____    ______ ____
ROOT
ATOM      1  C   UNL     1       5.798   1.006  -0.040  0.00  0.00    +0.000 A 
ATOM      2  C   UNL     1       6.339  -0.273  -0.042  0.00  0.00    +0.000 A 
ATOM      3  N   UNL     1       7.664  -0.534  -0.024  0.00  0.00    +0.000 NA
ATOM      4  C   UNL     1       8.492   0.539  -0.023  0.00  0.00    +0.000 A 
ATOM      5  C   UNL     1       8.083   1.874  -0.052  0.00  0.00    +0.000 A 
ATOM      6  C   UNL     1       6.695   2.081  -0.060  0.00  0.00    +0.000 A 
ENDROOT
BRANCH   5   7
ATOM      7  C   UNL     1       9.044   2.995  -0.077  0.00  0.00    +0.000 A 
ATOM      8  C   UNL     1      10.304   2.866  -0.698  0.00  0.00    +0.000 A 
ATOM      9  C   UNL     1      11.214   3.927  -0.740  0.00  0.00    +0.000 A 
ATOM     10  C   UNL     1      10.879   5.148  -0.167  0.00  0.00    +0.000 A 
ATOM     11  C   UNL     1       9.645   5.293   0.447  0.00  0.00    +0.000 A 
ATOM     12  F   UNL     1       9.314   6.470   0.996  0.00  0.00    +0.000 F 
ATOM     13  C   UNL     1       8.739   4.238   0.503  0.00  0.00    +0.000 A 
ENDBRANCH   5   7
BRANCH   1  14
ATOM     14  C   UNL     1       4.312   1.229  -0.015  0.00  0.00    +0.000 C 
BRANCH  14  19
ATOM     15  C   UNL     1       2.208  -1.760  -3.466  0.00  0.00    +0.000 A 
ATOM     16  C   UNL     1       2.749  -1.939  -2.218  0.00  0.00    +0.000 A 
ATOM     17  N   UNL     1       3.271  -0.935  -1.482  0.00  0.00    +0.000 NA
ATOM     18  C   UNL     1       3.258   0.292  -2.023  0.00  0.00    +0.000 A 
ATOM     19  N   UNL     1       3.769   1.352  -1.337  0.00  0.00    +0.000 N 
ATOM     20  N   UNL     1       2.749   0.566  -3.233  0.00  0.00    +0.000 NA
ATOM     21  C   UNL     1       2.232  -0.468  -3.932  0.00  0.00    +0.000 A 
ATOM     22  H   UNL     1       3.742   2.234  -1.823  0.00  0.00    +0.000 HD
BRANCH  15  24
ATOM     23  N   UNL     1       1.214  -3.709  -4.831  0.00  0.00    +0.000 NA
ATOM     24  C   UNL     1       1.661  -2.830  -4.219  0.00  0.00    +0.000 C 
ENDBRANCH  15  24
ENDBRANCH  14  19
ENDBRANCH   1  14
TORSDOF 4
