REMARK  Name = 
REMARK  6 active torsions:
REMARK  status: ('A' for Active; 'I' for Inactive)
REMARK    1  A    between atoms: N_1  and  C_2
REMARK    2  A    between atoms: C_2  and  C_3
REMARK    3  A    between atoms: C_3  and  N_4
REMARK    4  A    between atoms: C_3  and  C_5
REMARK    5  A    between atoms: C_8  and  C_9
REMARK    6  A    between atoms: C_9  and  N_10
REMARK                            x       y       z     vdW  Elec       q    Type
REMARK                         _______ _______ _______ _____ _____    ______ ____
ROOT
ATOM      1  C   UNL     1       4.617   1.492  -0.084  0.00  0.00    +0.000 A 
ATOM      2  C   UNL     1       5.412   1.431   1.060  0.00  0.00    +0.000 A 
ATOM      3  C   UNL     1       6.803   1.379   0.923  0.00  0.00    +0.000 A 
ATOM      4  C   UNL     1       7.384   1.385  -0.349  0.00  0.00    +0.000 A 
ATOM      5  C   UNL     1       6.511   1.384  -1.430  0.00  0.00    +0.000 A 
ATOM      6  N   UNL     1       5.159   1.440  -1.328  0.00  0.00    +0.000 NA
ENDROOT
BRANCH   1   7
ATOM      7  C   UNL     1       3.099   1.592   0.047  0.00  0.00    +0.000 C 
BRANCH   7   8
ATOM      8  N   UNL     1       2.468   0.263   0.220  0.00  0.00    +0.000 NA
ATOM      9  H   UNL     1       2.727  -0.292  -0.604  0.00  0.00    +0.000 HD
ATOM     10  H   UNL     1       1.460   0.419   0.096  0.00  0.00    +0.000 HD
ENDBRANCH   7   8
BRANCH   7  11
ATOM     11  C   UNL     1       2.447   2.329  -1.163  0.00  0.00    +0.000 C 
BRANCH  11  12
ATOM     12  N   UNL     1       0.980   2.437  -1.029  0.00  0.00    +0.000 NA
ATOM     13  H   UNL     1       0.617   2.920  -1.855  0.00  0.00    +0.000 HD
ATOM     14  H   UNL     1       0.757   3.031  -0.231  0.00  0.00    +0.000 HD
ENDBRANCH  11  12
ENDBRANCH   7  11
ENDBRANCH   1   7
BRANCH   4  15
ATOM     15  C   UNL     1       8.880   1.412  -0.552  0.00  0.00    +0.000 C 
BRANCH  15  16
ATOM     16  N   UNL     1       9.466   0.078  -0.670  0.00  0.00    +0.000 N 
ATOM     17  C   UNL     1       9.521  -0.820   0.368  0.00  0.00    +0.000 A 
ATOM     18  C   UNL     1       9.964  -2.015  -0.149  0.00  0.00    +0.000 A 
ATOM     19  C   UNL     1      10.659  -1.662  -1.339  0.00  0.00    +0.000 A 
ATOM     20  C   UNL     1      11.633  -2.327  -2.096  0.00  0.00    +0.000 A 
ATOM     21  C   UNL     1      12.129  -1.631  -3.180  0.00  0.00    +0.000 A 
ATOM     22  F   UNL     1      13.185  -2.144  -3.831  0.00  0.00    +0.000 F 
ATOM     23  N   UNL     1      11.652  -0.445  -3.616  0.00  0.00    +0.000 NA
ATOM     24  C   UNL     1      10.687   0.175  -2.902  0.00  0.00    +0.000 A 
ATOM     25  C   UNL     1      10.250  -0.386  -1.709  0.00  0.00    +0.000 A 
ENDBRANCH  15  16
ENDBRANCH   4  15
TORSDOF 6
