REMARK  Name = 
REMARK  3 active torsions:
REMARK  status: ('A' for Active; 'I' for Inactive)
REMARK    1  A    between atoms: C_2  and  C_4
REMARK    2  A    between atoms: N_8  and  C_9
REMARK    3  A    between atoms: C_9  and  C_10
REMARK                            x       y       z     vdW  Elec       q    Type
REMARK                         _______ _______ _______ _____ _____    ______ ____
ROOT
ATOM      1  C   UNL     1       3.466   3.126  -2.504  0.00  0.00    +0.000 A 
ATOM      2  C   UNL     1       2.720   3.858  -1.584  0.00  0.00    +0.000 A 
ATOM      3  C   UNL     1       3.346   4.363  -0.443  0.00  0.00    +0.000 A 
ATOM      4  C   UNL     1       4.700   4.128  -0.234  0.00  0.00    +0.000 A 
ATOM      5  N   UNL     1       5.378   4.517   0.922  0.00  0.00    +0.000 N 
ATOM      6  N   UNL     1       5.430   3.410  -1.118  0.00  0.00    +0.000 NA
ATOM      7  C   UNL     1       4.807   2.921  -2.218  0.00  0.00    +0.000 A 
ATOM      8  H   UNL     1       6.361   4.281   0.785  0.00  0.00    +0.000 HD
ENDROOT
BRANCH   1  10
ATOM      9  N   UNL     1       1.780   3.148  -4.252  0.00  0.00    +0.000 N 
ATOM     10  C   UNL     1       2.891   2.542  -3.732  0.00  0.00    +0.000 C 
ATOM     11  O   UNL     1       3.405   1.579  -4.284  0.00  0.00    +0.000 OA
ATOM     12  H   UNL     1       1.457   2.798  -5.145  0.00  0.00    +0.000 HD
ATOM     13  H   UNL     1       1.476   4.069  -3.975  0.00  0.00    +0.000 HD
ENDBRANCH   1  10
BRANCH   5  14
ATOM     14  C   UNL     1       5.122   5.758   1.678  0.00  0.00    +0.000 C 
ATOM     15  C   UNL     1       5.123   5.579   3.196  0.00  0.00    +0.000 C 
ATOM     16  C   UNL     1       3.865   5.978   2.502  0.00  0.00    +0.000 C 
BRANCH  14  17
ATOM     17  C   UNL     1       5.842   7.007   1.139  0.00  0.00    +0.000 A 
ATOM     18  C   UNL     1       5.216   7.848   0.211  0.00  0.00    +0.000 A 
ATOM     19  C   UNL     1       5.845   9.025  -0.201  0.00  0.00    +0.000 A 
ATOM     20  C   UNL     1       7.092   9.329   0.312  0.00  0.00    +0.000 A 
ATOM     21  F   UNL     1       7.714  10.458  -0.044  0.00  0.00    +0.000 F 
ATOM     22  C   UNL     1       7.675   8.449   1.203  0.00  0.00    +0.000 A 
ATOM     23  N   UNL     1       7.084   7.301   1.621  0.00  0.00    +0.000 NA
ENDBRANCH  14  17
ENDBRANCH   5  14
TORSDOF 3
