REMARK  Name = 
REMARK  8 active torsions:
REMARK  status: ('A' for Active; 'I' for Inactive)
REMARK    1  A    between atoms: C_1  and  C_2
REMARK    2  A    between atoms: C_2  and  N_3
REMARK    3  A    between atoms: C_2  and  C_18
REMARK    4  A    between atoms: N_3  and  C_4
REMARK    5  A    between atoms: C_7  and  C_8
REMARK    6  A    between atoms: C_8  and  N_9
REMARK    7  A    between atoms: N_9  and  C_10
REMARK    8  A    between atoms: C_13  and  N_14
REMARK                            x       y       z     vdW  Elec       q    Type
REMARK                         _______ _______ _______ _____ _____    ______ ____
ROOT
ATOM      1  C   UNL     1      -6.280  -5.200   3.623  0.00  0.00    +0.000 A 
ATOM      2  C   UNL     1      -5.725  -6.480   3.661  0.00  0.00    +0.000 A 
ATOM      3  C   UNL     1      -4.374  -6.680   3.374  0.00  0.00    +0.000 A 
ATOM      4  C   UNL     1      -3.602  -5.593   2.978  0.00  0.00    +0.000 A 
ATOM      5  N   UNL     1      -4.121  -4.345   2.864  0.00  0.00    +0.000 NA
ATOM      6  C   UNL     1      -5.428  -4.182   3.194  0.00  0.00    +0.000 A 
ENDROOT
BRANCH   1   7
ATOM      7  N   UNL     1      -7.657  -5.065   3.870  0.00  0.00    +0.000 N 
ATOM      8  H   UNL     1      -8.148  -5.288   3.003  0.00  0.00    +0.000 HD
BRANCH   7  10
ATOM      9  C   UNL     1      -7.579  -3.524   5.802  0.00  0.00    +0.000 C 
ATOM     10  C   UNL     1      -8.177  -3.787   4.405  0.00  0.00    +0.000 C 
BRANCH  10  11
ATOM     11  C   UNL     1      -9.695  -3.730   4.524  0.00  0.00    +0.000 A 
ATOM     12  C   UNL     1     -10.516  -4.809   4.795  0.00  0.00    +0.000 A 
ATOM     13  S   UNL     1     -12.150  -4.371   5.041  0.00  0.00    +0.000 S 
ATOM     14  C   UNL     1     -11.804  -2.719   4.819  0.00  0.00    +0.000 A 
ATOM     15  N   UNL     1     -12.748  -1.761   4.993  0.00  0.00    +0.000 NA
ATOM     16  C   UNL     1     -12.322  -0.551   4.832  0.00  0.00    +0.000 A 
ATOM     17  N   UNL     1     -11.043  -0.217   4.467  0.00  0.00    +0.000 N 
ATOM     18  C   UNL     1     -10.062  -1.153   4.219  0.00  0.00    +0.000 A 
ATOM     19  O   UNL     1      -8.952  -0.835   3.816  0.00  0.00    +0.000 OA
ATOM     20  C   UNL     1     -10.479  -2.517   4.478  0.00  0.00    +0.000 A 
ATOM     21  H   UNL     1     -10.780   0.748   4.320  0.00  0.00    +0.000 HD
ENDBRANCH  10  11
ENDBRANCH   7  10
ENDBRANCH   1   7
BRANCH   4  22
ATOM     22  C   UNL     1      -2.154  -5.808   2.580  0.00  0.00    +0.000 C 
BRANCH  22  23
ATOM     23  N   UNL     1      -1.246  -4.678   2.840  0.00  0.00    +0.000 NA
ATOM     24  H   UNL     1      -1.651  -3.874   2.349  0.00  0.00    +0.000 HD
BRANCH  23  25
ATOM     25  C   UNL     1      -1.149  -4.309   4.262  0.00  0.00    +0.000 C 
ATOM     26  C   UNL     1      -0.583  -5.430   5.144  0.00  0.00    +0.000 C 
ATOM     27  C   UNL     1       0.912  -5.157   5.320  0.00  0.00    +0.000 C 
ATOM     28  C   UNL     1       1.231  -3.880   4.538  0.00  0.00    +0.000 C 
ATOM     29  C   UNL     1      -0.125  -3.178   4.452  0.00  0.00    +0.000 C 
BRANCH  28  30
ATOM     30  N   UNL     1       1.763  -4.180   3.210  0.00  0.00    +0.000 NA
ATOM     31  H   UNL     1       1.078  -4.764   2.716  0.00  0.00    +0.000 HD
ATOM     32  H   UNL     1       2.615  -4.730   3.289  0.00  0.00    +0.000 HD
ENDBRANCH  28  30
ENDBRANCH  23  25
ENDBRANCH  22  23
ENDBRANCH   4  22
TORSDOF 7
