REMARK  Name = 
REMARK  7 active torsions:
REMARK  status: ('A' for Active; 'I' for Inactive)
REMARK    1  A    between atoms: N_1  and  C_2
REMARK    2  A    between atoms: C_2  and  C_3
REMARK    3  A    between atoms: C_3  and  N_4
REMARK    4  A    between atoms: C_3  and  C_17
REMARK    5  A    between atoms: C_5  and  C_7
REMARK    6  A    between atoms: C_20  and  O_21
REMARK    7  A    between atoms: O_21  and  C_22
REMARK                            x       y       z     vdW  Elec       q    Type
REMARK                         _______ _______ _______ _____ _____    ______ ____
ROOT
ATOM      1  C   UNL     1       2.930  -0.708  -1.107  0.00  0.00    +0.000 C 
ENDROOT
BRANCH   1   2
ATOM      2  C   UNL     1       4.457  -0.730  -1.202  0.00  0.00    +0.000 A 
ATOM      3  C   UNL     1       5.146  -1.949  -1.137  0.00  0.00    +0.000 A 
ATOM      4  C   UNL     1       6.537  -1.985  -1.240  0.00  0.00    +0.000 A 
ATOM      5  C   UNL     1       7.265  -0.815  -1.462  0.00  0.00    +0.000 A 
ATOM      6  C   UNL     1       6.598   0.411  -1.491  0.00  0.00    +0.000 A 
ATOM      7  C   UNL     1       5.204   0.452  -1.366  0.00  0.00    +0.000 A 
BRANCH   5   8
ATOM      8  O   UNL     1       8.638  -0.787  -1.595  0.00  0.00    +0.000 OA
BRANCH   8   9
ATOM      9  C   UNL     1       9.244  -1.824  -2.300  0.00  0.00    +0.000 A 
ATOM     10  C   UNL     1      10.576  -2.086  -2.013  0.00  0.00    +0.000 A 
ATOM     11  C   UNL     1      11.201  -3.133  -2.689  0.00  0.00    +0.000 A 
ATOM     12  C   UNL     1      10.477  -3.877  -3.616  0.00  0.00    +0.000 A 
ATOM     13  C   UNL     1       9.158  -3.531  -3.846  0.00  0.00    +0.000 A 
ATOM     14  N   UNL     1       8.536  -2.508  -3.229  0.00  0.00    +0.000 NA
ENDBRANCH   8   9
ENDBRANCH   5   8
ENDBRANCH   1   2
BRANCH   1  15
ATOM     15  N   UNL     1       2.397  -0.158  -2.343  0.00  0.00    +0.000 N 
ATOM     16  C   UNL     1       1.058  -0.116  -2.639  0.00  0.00    +0.000 C 
ATOM     17  O   UNL     1       0.179  -0.427  -1.842  0.00  0.00    +0.000 OA
ATOM     18  H   UNL     1       3.050  -0.156  -3.119  0.00  0.00    +0.000 HD
BRANCH  16  19
ATOM     19  C   UNL     1       0.732   0.393  -3.972  0.00  0.00    +0.000 A 
ATOM     20  C   UNL     1      -0.440   1.101  -4.198  0.00  0.00    +0.000 A 
ATOM     21  S   UNL     1      -0.620   1.602  -5.822  0.00  0.00    +0.000 S 
ATOM     22  C   UNL     1       0.835   0.847  -6.277  0.00  0.00    +0.000 A 
ATOM     23  N   UNL     1       1.266   0.852  -7.568  0.00  0.00    +0.000 NA
ATOM     24  C   UNL     1       2.363   0.200  -7.767  0.00  0.00    +0.000 A 
ATOM     25  N   UNL     1       3.082  -0.442  -6.792  0.00  0.00    +0.000 N 
ATOM     26  C   UNL     1       2.719  -0.429  -5.471  0.00  0.00    +0.000 A 
ATOM     27  O   UNL     1       3.428  -0.927  -4.613  0.00  0.00    +0.000 OA
ATOM     28  C   UNL     1       1.466   0.255  -5.201  0.00  0.00    +0.000 A 
ATOM     29  H   UNL     1       3.954  -0.905  -7.000  0.00  0.00    +0.000 HD
ENDBRANCH  16  19
ENDBRANCH   1  15
BRANCH   1  30
ATOM     30  C   UNL     1       2.450   0.097   0.132  0.00  0.00    +0.000 C 
BRANCH  30  31
ATOM     31  N   UNL     1       2.963  -0.390   1.419  0.00  0.00    +0.000 NA
ATOM     32  H   UNL     1       2.850   0.351   2.109  0.00  0.00    +0.000 HD
ATOM     33  H   UNL     1       3.966  -0.559   1.343  0.00  0.00    +0.000 HD
ENDBRANCH  30  31
ENDBRANCH   1  30
TORSDOF 7
