REMARK  Name = 
REMARK  8 active torsions:
REMARK  status: ('A' for Active; 'I' for Inactive)
REMARK    1  A    between atoms: C_1  and  O_2
REMARK    2  A    between atoms: O_2  and  C_3
REMARK    3  A    between atoms: C_3  and  C_5
REMARK    4  A    between atoms: C_8  and  O_9
REMARK    5  A    between atoms: O_9  and  C_10
REMARK    6  A    between atoms: C_10  and  C_11
REMARK    7  A    between atoms: C_14  and  C_15
REMARK    8  A    between atoms: C_15  and  N_16
REMARK                            x       y       z     vdW  Elec       q    Type
REMARK                         _______ _______ _______ _____ _____    ______ ____
ROOT
ATOM      1  O   UNL     1       8.658   1.271   0.375  0.00  0.00    +0.000 OA
ENDROOT
BRANCH   1   5
ATOM      2  C   UNL     1       4.831  -0.305   0.848  0.00  0.00    +0.000 A 
ATOM      3  C   UNL     1       5.538   0.228   1.932  0.00  0.00    +0.000 A 
ATOM      4  C   UNL     1       6.808   0.778   1.730  0.00  0.00    +0.000 A 
ATOM      5  C   UNL     1       7.380   0.783   0.455  0.00  0.00    +0.000 A 
ATOM      6  C   UNL     1       6.648   0.304  -0.633  0.00  0.00    +0.000 A 
ATOM      7  C   UNL     1       5.382  -0.246  -0.437  0.00  0.00    +0.000 A 
BRANCH   2   8
ATOM      8  C   UNL     1       3.500  -0.942   0.994  0.00  0.00    +0.000 C 
ATOM      9  O   UNL     1       2.717  -1.078   0.068  0.00  0.00    +0.000 OA
BRANCH   8  11
ATOM     10  C   UNL     1       2.113  -2.124   2.435  0.00  0.00    +0.000 C 
ATOM     11  O   UNL     1       3.336  -1.411   2.254  0.00  0.00    +0.000 OA
ENDBRANCH   8  11
ENDBRANCH   2   8
ENDBRANCH   1   5
BRANCH   1  12
ATOM     12  C   UNL     1       9.407   0.803  -0.750  0.00  0.00    +0.000 C 
BRANCH  12  13
ATOM     13  C   UNL     1      10.880   0.941  -0.471  0.00  0.00    +0.000 A 
ATOM     14  C   UNL     1      11.690  -0.199  -0.374  0.00  0.00    +0.000 A 
ATOM     15  C   UNL     1      13.058  -0.077  -0.124  0.00  0.00    +0.000 A 
ATOM     16  C   UNL     1      13.641   1.186   0.036  0.00  0.00    +0.000 A 
ATOM     17  C   UNL     1      12.827   2.323  -0.063  0.00  0.00    +0.000 A 
ATOM     18  C   UNL     1      11.461   2.204  -0.317  0.00  0.00    +0.000 A 
BRANCH  16  19
ATOM     19  C   UNL     1      15.109   1.318   0.346  0.00  0.00    +0.000 C 
BRANCH  19  20
ATOM     20  N   UNL     1      15.808   2.104  -0.663  0.00  0.00    +0.000 NA
ATOM     21  H   UNL     1      15.701   1.644  -1.566  0.00  0.00    +0.000 HD
ATOM     22  H   UNL     1      16.803   2.105  -0.453  0.00  0.00    +0.000 HD
ENDBRANCH  19  20
ENDBRANCH  16  19
ENDBRANCH  12  13
ENDBRANCH   1  12
TORSDOF 7
