REMARK  Name = 
REMARK  5 active torsions:
REMARK  status: ('A' for Active; 'I' for Inactive)
REMARK    1  A    between atoms: C_2  and  C_4
REMARK    2  A    between atoms: C_7  and  N_8
REMARK    3  A    between atoms: N_8  and  C_9
REMARK    4  A    between atoms: C_9  and  C_10
REMARK    5  A    between atoms: C_14  and  C_15
REMARK                            x       y       z     vdW  Elec       q    Type
REMARK                         _______ _______ _______ _____ _____    ______ ____
ROOT
ATOM      1  C   UNL     1       4.809   4.327   4.168  0.00  0.00    +0.000 C 
ENDROOT
BRANCH   1   2
ATOM      2  C   UNL     1       5.572   5.527   4.689  0.00  0.00    +0.000 A 
ATOM      3  C   UNL     1       5.224   6.824   4.297  0.00  0.00    +0.000 A 
ATOM      4  C   UNL     1       5.906   7.920   4.822  0.00  0.00    +0.000 A 
ATOM      5  C   UNL     1       6.934   7.730   5.750  0.00  0.00    +0.000 A 
ATOM      6  C   UNL     1       7.304   6.445   6.185  0.00  0.00    +0.000 A 
ATOM      7  C   UNL     1       6.611   5.355   5.624  0.00  0.00    +0.000 A 
BRANCH   6   8
ATOM      8  C   UNL     1       8.351   6.251   7.218  0.00  0.00    +0.000 A 
ATOM      9  C   UNL     1       9.211   5.135   7.202  0.00  0.00    +0.000 A 
ATOM     10  C   UNL     1      10.186   4.944   8.190  0.00  0.00    +0.000 A 
ATOM     11  C   UNL     1      10.330   5.874   9.213  0.00  0.00    +0.000 A 
ATOM     12  C   UNL     1       9.493   6.979   9.244  0.00  0.00    +0.000 A 
ATOM     13  F   UNL     1       9.623   7.878  10.228  0.00  0.00    +0.000 F 
ATOM     14  C   UNL     1       8.514   7.169   8.271  0.00  0.00    +0.000 A 
ENDBRANCH   6   8
ENDBRANCH   1   2
BRANCH   1  15
ATOM     15  N   UNL     1       5.714   3.454   3.429  0.00  0.00    +0.000 N 
ATOM     16  H   UNL     1       6.194   3.954   2.686  0.00  0.00    +0.000 HD
BRANCH  15  20
ATOM     17  C   UNL     1       4.145  -0.095   2.060  0.00  0.00    +0.000 A 
ATOM     18  C   UNL     1       3.343   0.824   2.720  0.00  0.00    +0.000 A 
ATOM     19  N   UNL     1       3.817   2.018   3.171  0.00  0.00    +0.000 NA
ATOM     20  C   UNL     1       5.121   2.283   2.935  0.00  0.00    +0.000 A 
ATOM     21  C   UNL     1       5.909   1.344   2.253  0.00  0.00    +0.000 A 
ATOM     22  N   UNL     1       5.458   0.144   1.798  0.00  0.00    +0.000 NA
BRANCH  17  24
ATOM     23  N   UNL     1       4.470  -2.286   1.087  0.00  0.00    +0.000 N 
ATOM     24  C   UNL     1       3.581  -1.407   1.642  0.00  0.00    +0.000 C 
ATOM     25  O   UNL     1       2.400  -1.694   1.799  0.00  0.00    +0.000 OA
ATOM     26  H   UNL     1       4.157  -3.210   0.817  0.00  0.00    +0.000 HD
ATOM     27  H   UNL     1       5.449  -2.035   1.005  0.00  0.00    +0.000 HD
ENDBRANCH  17  24
ENDBRANCH  15  20
ENDBRANCH   1  15
TORSDOF 5
