REMARK  Name = 
REMARK  8 active torsions:
REMARK  status: ('A' for Active; 'I' for Inactive)
REMARK    1  A    between atoms: C_1  and  N_2
REMARK    2  A    between atoms: C_8  and  C_9
REMARK    3  A    between atoms: C_9  and  C_10
REMARK    4  A    between atoms: C_9  and  C_11
REMARK    5  A    between atoms: C_9  and  C_12
REMARK    6  A    between atoms: C_12  and  N_13
REMARK    7  A    between atoms: N_13  and  C_14
REMARK    8  A    between atoms: C_17  and  C_18
REMARK                            x       y       z     vdW  Elec       q    Type
REMARK                         _______ _______ _______ _____ _____    ______ ____
ROOT
ATOM      1  C   UNL     1      -4.778  -1.382   3.961  0.00  0.00    +0.000 C 
ATOM      2  C   UNL     1      -4.388  -2.877   3.857  0.00  0.00    +0.000 C 
ATOM      3  C   UNL     1      -3.850  -0.721   5.015  0.00  0.00    +0.000 C 
ENDROOT
BRANCH   1  11
ATOM      4  C   UNL     1       2.152  -1.013  -0.931  0.00  0.00    +0.000 C 
ATOM      5  N   UNL     1       0.977  -0.195  -0.645  0.00  0.00    +0.000 NA
ATOM      6  C   UNL     1      -0.189  -0.661  -1.445  0.00  0.00    +0.000 C 
ATOM      7  C   UNL     1      -1.509   0.075  -1.092  0.00  0.00    +0.000 C 
ATOM      8  N   UNL     1      -1.727  -0.105   0.342  0.00  0.00    +0.000 N 
ATOM      9  C   UNL     1      -3.014  -0.017   0.838  0.00  0.00    +0.000 A 
ATOM     10  C   UNL     1      -3.282  -0.660   2.049  0.00  0.00    +0.000 A 
ATOM     11  C   UNL     1      -4.560  -0.669   2.618  0.00  0.00    +0.000 A 
ATOM     12  C   UNL     1      -5.550   0.003   1.903  0.00  0.00    +0.000 A 
ATOM     13  C   UNL     1      -5.224   0.602   0.693  0.00  0.00    +0.000 A 
ATOM     14  N   UNL     1      -3.989   0.596   0.146  0.00  0.00    +0.000 NA
ATOM     15  C   UNL     1      -0.653   0.480   1.154  0.00  0.00    +0.000 C 
ATOM     16  C   UNL     1       0.658  -0.253   0.802  0.00  0.00    +0.000 C 
ENDBRANCH   1  11
BRANCH   1  17
ATOM     17  C   UNL     1      -6.225  -1.264   4.526  0.00  0.00    +0.000 C 
BRANCH  17  18
ATOM     18  N   UNL     1      -7.235  -1.908   3.675  0.00  0.00    +0.000 N 
ATOM     19  H   UNL     1      -6.979  -2.850   3.384  0.00  0.00    +0.000 HD
BRANCH  18  20
ATOM     20  C   UNL     1      -8.573  -1.815   4.060  0.00  0.00    +0.000 A 
ATOM     21  C   UNL     1      -9.125  -0.756   4.764  0.00  0.00    +0.000 A 
ATOM     22  N   UNL     1     -10.428  -0.636   5.094  0.00  0.00    +0.000 NA
ATOM     23  C   UNL     1     -11.227  -1.635   4.654  0.00  0.00    +0.000 A 
ATOM     24  N   UNL     1     -10.836  -2.690   3.918  0.00  0.00    +0.000 NA
ATOM     25  C   UNL     1      -9.518  -2.735   3.627  0.00  0.00    +0.000 A 
BRANCH  23  26
ATOM     26  C   UNL     1     -12.682  -1.526   5.037  0.00  0.00    +0.000 C 
ATOM     27  N   UNL     1     -13.012  -0.413   5.775  0.00  0.00    +0.000 N 
ATOM     28  O   UNL     1     -13.538  -2.356   4.743  0.00  0.00    +0.000 OA
ATOM     29  H   UNL     1     -12.298   0.268   6.009  0.00  0.00    +0.000 HD
ATOM     30  H   UNL     1     -13.970  -0.277   6.061  0.00  0.00    +0.000 HD
ENDBRANCH  23  26
ENDBRANCH  18  20
ENDBRANCH  17  18
ENDBRANCH   1  17
TORSDOF 5
