REMARK  Name = 
REMARK  13 active torsions:
REMARK  status: ('A' for Active; 'I' for Inactive)
REMARK    1  A    between atoms: C_1  and  O_2
REMARK    2  A    between atoms: O_2  and  C_3
REMARK    3  A    between atoms: C_5  and  C_6
REMARK    4  A    between atoms: C_10  and  C_11
REMARK    5  A    between atoms: N_13  and  C_14
REMARK    6  A    between atoms: C_14  and  C_15
REMARK    7  A    between atoms: C_18  and  C_19
REMARK    8  A    between atoms: C_19  and  N_20
REMARK    9  A    between atoms: N_20  and  C_21
REMARK   10  A    between atoms: C_21  and  C_22
REMARK   11  A    between atoms: C_24  and  C_25
REMARK   12  A    between atoms: C_27  and  C_28
REMARK   13  A    between atoms: N_34  and  C_35
REMARK                            x       y       z     vdW  Elec       q    Type
REMARK                         _______ _______ _______ _____ _____    ______ ____
ROOT
ATOM      1  C   UNL     1       6.128  -2.623   4.791  0.00  0.00    +0.000 A 
ATOM      2  C   UNL     1       6.070  -4.011   4.969  0.00  0.00    +0.000 A 
ATOM      3  C   UNL     1       6.964  -4.655   5.830  0.00  0.00    +0.000 A 
ATOM      4  C   UNL     1       7.933  -3.927   6.536  0.00  0.00    +0.000 A 
ATOM      5  C   UNL     1       7.976  -2.536   6.371  0.00  0.00    +0.000 A 
ATOM      6  C   UNL     1       7.081  -1.891   5.511  0.00  0.00    +0.000 A 
ENDROOT
BRANCH   1   7
ATOM      7  C   UNL     1       5.168  -1.932   3.857  0.00  0.00    +0.000 C 
BRANCH   7  10
ATOM      8  C   UNL     1       2.949  -0.898   3.848  0.00  0.00    +0.000 C 
ATOM      9  O   UNL     1       2.996  -0.682   2.641  0.00  0.00    +0.000 OA
ATOM     10  N   UNL     1       3.945  -1.565   4.520  0.00  0.00    +0.000 N 
ATOM     11  H   UNL     1       3.896  -1.661   5.527  0.00  0.00    +0.000 HD
BRANCH   8  19
ATOM     12  C   UNL     1       2.646   0.034   7.095  0.00  0.00    +0.000 A 
ATOM     13  N   UNL     1       2.203   0.378   8.319  0.00  0.00    +0.000 NA
ATOM     14  C   UNL     1       0.883   0.578   8.493  0.00  0.00    +0.000 A 
ATOM     15  C   UNL     1       0.455   0.989   9.868  0.00  0.00    +0.000 C 
ATOM     16  N   UNL     1      -0.074   0.482   7.551  0.00  0.00    +0.000 NA
ATOM     17  C   UNL     1       0.416   0.128   6.351  0.00  0.00    +0.000 A 
ATOM     18  C   UNL     1       1.744  -0.137   6.045  0.00  0.00    +0.000 A 
ATOM     19  C   UNL     1       1.804  -0.501   4.661  0.00  0.00    +0.000 A 
ATOM     20  C   UNL     1       0.510  -0.375   4.169  0.00  0.00    +0.000 A 
ATOM     21  N   UNL     1      -0.315  -0.012   5.200  0.00  0.00    +0.000 N 
ATOM     22  C   UNL     1      -1.738   0.221   5.101  0.00  0.00    +0.000 C 
BRANCH  12  24
ATOM     23  C   UNL     1       4.787   0.248   8.006  0.00  0.00    +0.000 C 
ATOM     24  O   UNL     1       3.999  -0.146   6.888  0.00  0.00    +0.000 OA
ENDBRANCH  12  24
ENDBRANCH   8  19
ENDBRANCH   7  10
ENDBRANCH   1   7
BRANCH   4  25
ATOM     25  C   UNL     1       8.895  -4.623   7.473  0.00  0.00    +0.000 C 
BRANCH  25  26
ATOM     26  N   UNL     1       9.698  -5.618   6.768  0.00  0.00    +0.000 NA
ATOM     27  H   UNL     1      10.228  -5.160   6.025  0.00  0.00    +0.000 HD
BRANCH  26  28
ATOM     28  C   UNL     1      10.658  -6.278   7.671  0.00  0.00    +0.000 C 
BRANCH  28  29
ATOM     29  C   UNL     1      11.524  -7.305   6.952  0.00  0.00    +0.000 A 
ATOM     30  N   UNL     1      11.460  -8.591   7.356  0.00  0.00    +0.000 NA
ATOM     31  C   UNL     1      12.193  -9.498   6.679  0.00  0.00    +0.000 A 
ATOM     32  C   UNL     1      12.105 -10.929   7.118  0.00  0.00    +0.000 C 
ATOM     33  C   UNL     1      12.999  -9.145   5.620  0.00  0.00    +0.000 A 
ATOM     34  C   UNL     1      13.014  -7.807   5.291  0.00  0.00    +0.000 A 
ATOM     35  N   UNL     1      12.296  -6.865   5.940  0.00  0.00    +0.000 NA
BRANCH  34  36
ATOM     36  C   UNL     1      13.824  -7.334   4.204  0.00  0.00    +0.000 C 
ATOM     37  N   UNL     1      14.498  -6.993   3.317  0.00  0.00    +0.000 NA
ENDBRANCH  34  36
ENDBRANCH  28  29
ENDBRANCH  26  28
ENDBRANCH  25  26
ENDBRANCH   4  25
TORSDOF 9
