REMARK  Name = 
REMARK  5 active torsions:
REMARK  status: ('A' for Active; 'I' for Inactive)
REMARK    1  A    between atoms: C_2  and  C_3
REMARK    2  A    between atoms: C_6  and  C_7
REMARK    3  A    between atoms: C_11  and  C_12
REMARK    4  A    between atoms: C_12  and  N_13
REMARK    5  A    between atoms: C_17  and  C_18
REMARK                            x       y       z     vdW  Elec       q    Type
REMARK                         _______ _______ _______ _____ _____    ______ ____
ROOT
ATOM      1  C   UNL     1       6.928  -1.156  -1.566  0.00  0.00    +0.000 C 
ATOM      2  C   UNL     1       7.044  -0.803  -3.040  0.00  0.00    +0.000 C 
ATOM      3  C   UNL     1       6.425  -2.099  -2.662  0.00  0.00    +0.000 C 
ATOM      4  F   UNL     1       7.162  -3.249  -2.892  0.00  0.00    +0.000 F 
ENDROOT
BRANCH   1   5
ATOM      5  N   UNL     1       8.085  -1.629  -0.797  0.00  0.00    +0.000 N 
ATOM      6  C   UNL     1       9.248  -0.931  -0.493  0.00  0.00    +0.000 A 
ATOM      7  C   UNL     1       9.362   0.451  -0.455  0.00  0.00    +0.000 A 
ATOM      8  C   UNL     1      10.583   1.037  -0.103  0.00  0.00    +0.000 A 
ATOM      9  C   UNL     1      11.674   0.230   0.211  0.00  0.00    +0.000 A 
ATOM     10  C   UNL     1      11.468  -1.137   0.169  0.00  0.00    +0.000 A 
ATOM     11  N   UNL     1      10.293  -1.722  -0.176  0.00  0.00    +0.000 NA
ATOM     12  H   UNL     1       8.333  -2.614  -0.874  0.00  0.00    +0.000 HD
BRANCH   9  13
ATOM     13  C   UNL     1      12.974   0.853   0.556  0.00  0.00    +0.000 C 
ATOM     14  N   UNL     1      14.044   0.048   0.831  0.00  0.00    +0.000 N 
ATOM     15  O   UNL     1      13.102   2.072   0.584  0.00  0.00    +0.000 OA
ATOM     16  H   UNL     1      14.053  -0.960   0.810  0.00  0.00    +0.000 HD
ATOM     17  H   UNL     1      14.919   0.513   1.039  0.00  0.00    +0.000 HD
ENDBRANCH   9  13
ENDBRANCH   1   5
BRANCH   1  22
ATOM     18  C   UNL     1       4.747   1.537   0.146  0.00  0.00    +0.000 A 
ATOM     19  C   UNL     1       3.806   0.675   0.708  0.00  0.00    +0.000 A 
ATOM     20  N   UNL     1       3.844  -0.676   0.633  0.00  0.00    +0.000 NA
ATOM     21  C   UNL     1       4.872  -1.213  -0.059  0.00  0.00    +0.000 A 
ATOM     22  C   UNL     1       5.849  -0.484  -0.732  0.00  0.00    +0.000 A 
ATOM     23  C   UNL     1       5.758   0.911  -0.600  0.00  0.00    +0.000 A 
BRANCH  18  27
ATOM     24  C   UNL     1       4.670   5.814   0.716  0.00  0.00    +0.000 A 
ATOM     25  C   UNL     1       4.134   4.966   1.683  0.00  0.00    +0.000 A 
ATOM     26  C   UNL     1       4.159   3.579   1.494  0.00  0.00    +0.000 A 
ATOM     27  C   UNL     1       4.703   3.004   0.330  0.00  0.00    +0.000 A 
ATOM     28  C   UNL     1       5.231   3.886  -0.634  0.00  0.00    +0.000 A 
ATOM     29  C   UNL     1       5.223   5.272  -0.442  0.00  0.00    +0.000 A 
BRANCH  24  31
ATOM     30  N   UNL     1       4.636   8.381   1.070  0.00  0.00    +0.000 NA
ATOM     31  C   UNL     1       4.653   7.234   0.913  0.00  0.00    +0.000 C 
ENDBRANCH  24  31
ENDBRANCH  18  27
ENDBRANCH   1  22
TORSDOF 5
