REMARK  Name = 
REMARK  5 active torsions:
REMARK  status: ('A' for Active; 'I' for Inactive)
REMARK    1  A    between atoms: C_2  and  C_4
REMARK    2  A    between atoms: C_7  and  N_8
REMARK    3  A    between atoms: N_8  and  C_9
REMARK    4  A    between atoms: C_9  and  C_10
REMARK    5  A    between atoms: C_13  and  C_14
REMARK                            x       y       z     vdW  Elec       q    Type
REMARK                         _______ _______ _______ _____ _____    ______ ____
ROOT
ATOM      1  N   UNL     1       5.237  -2.329  -4.060  0.00  0.00    +0.000 N 
ATOM      2  H   UNL     1       6.237  -2.381  -3.877  0.00  0.00    +0.000 HD
ENDROOT
BRANCH   1   6
ATOM      3  C   UNL     1       3.121  -3.251  -0.585  0.00  0.00    +0.000 A 
ATOM      4  C   UNL     1       2.531  -3.572  -1.799  0.00  0.00    +0.000 A 
ATOM      5  C   UNL     1       3.213  -3.263  -2.979  0.00  0.00    +0.000 A 
ATOM      6  C   UNL     1       4.486  -2.703  -2.930  0.00  0.00    +0.000 A 
ATOM      7  C   UNL     1       4.967  -2.386  -1.649  0.00  0.00    +0.000 A 
ATOM      8  N   UNL     1       4.333  -2.642  -0.476  0.00  0.00    +0.000 NA
BRANCH   3  10
ATOM      9  N   UNL     1       2.997  -3.113   1.838  0.00  0.00    +0.000 N 
ATOM     10  C   UNL     1       2.405  -3.565   0.691  0.00  0.00    +0.000 C 
ATOM     11  O   UNL     1       1.344  -4.184   0.716  0.00  0.00    +0.000 OA
ATOM     12  H   UNL     1       2.541  -3.269   2.725  0.00  0.00    +0.000 HD
ATOM     13  H   UNL     1       3.853  -2.574   1.783  0.00  0.00    +0.000 HD
ENDBRANCH   3  10
ENDBRANCH   1   6
BRANCH   1  14
ATOM     14  C   UNL     1       4.868  -2.579  -5.466  0.00  0.00    +0.000 C 
ATOM     15  C   UNL     1       4.998  -1.347  -6.360  0.00  0.00    +0.000 C 
ATOM     16  C   UNL     1       3.653  -1.957  -6.134  0.00  0.00    +0.000 C 
BRANCH  14  17
ATOM     17  C   UNL     1       5.325  -3.926  -6.018  0.00  0.00    +0.000 A 
ATOM     18  C   UNL     1       4.509  -5.067  -5.912  0.00  0.00    +0.000 A 
ATOM     19  C   UNL     1       4.865  -6.285  -6.494  0.00  0.00    +0.000 A 
ATOM     20  C   UNL     1       6.061  -6.402  -7.210  0.00  0.00    +0.000 A 
ATOM     21  C   UNL     1       6.907  -5.289  -7.293  0.00  0.00    +0.000 A 
ATOM     22  C   UNL     1       6.546  -4.076  -6.698  0.00  0.00    +0.000 A 
BRANCH  20  23
ATOM     23  C   UNL     1       6.428  -7.689  -7.904  0.00  0.00    +0.000 C 
ATOM     24  F   UNL     1       5.510  -8.682  -7.734  0.00  0.00    +0.000 F 
ATOM     25  F   UNL     1       6.559  -7.531  -9.250  0.00  0.00    +0.000 F 
ATOM     26  F   UNL     1       7.614  -8.197  -7.469  0.00  0.00    +0.000 F 
ENDBRANCH  20  23
ENDBRANCH  14  17
ENDBRANCH   1  14
TORSDOF 5
