REMARK  Name = 
REMARK  9 active torsions:
REMARK  status: ('A' for Active; 'I' for Inactive)
REMARK    1  A    between atoms: N_1  and  C_2
REMARK    2  A    between atoms: C_2  and  C_3
REMARK    3  A    between atoms: C_3  and  N_4
REMARK    4  A    between atoms: C_7  and  C_8
REMARK    5  A    between atoms: N_10  and  C_11
REMARK    6  A    between atoms: C_11  and  C_12
REMARK    7  A    between atoms: C_15  and  C_16
REMARK    8  A    between atoms: C_16  and  N_17
REMARK    9  A    between atoms: C_18  and  C_20
REMARK                            x       y       z     vdW  Elec       q    Type
REMARK                         _______ _______ _______ _____ _____    ______ ____
ROOT
ATOM      1  C   UNL     1       9.377  -1.479   3.145  0.00  0.00    +0.000 A 
ATOM      2  C   UNL     1       9.663  -0.995   4.428  0.00  0.00    +0.000 A 
ATOM      3  C   UNL     1       9.899  -1.879   5.486  0.00  0.00    +0.000 A 
ATOM      4  C   UNL     1       9.872  -3.265   5.274  0.00  0.00    +0.000 A 
ATOM      5  C   UNL     1       9.601  -3.745   3.985  0.00  0.00    +0.000 A 
ATOM      6  C   UNL     1       9.368  -2.863   2.929  0.00  0.00    +0.000 A 
ENDROOT
BRANCH   1   7
ATOM      7  C   UNL     1       9.098  -0.526   2.015  0.00  0.00    +0.000 C 
BRANCH   7  10
ATOM      8  C   UNL     1      10.267   0.752   0.293  0.00  0.00    +0.000 C 
ATOM      9  O   UNL     1       9.210   1.201  -0.140  0.00  0.00    +0.000 OA
ATOM     10  N   UNL     1      10.317  -0.100   1.371  0.00  0.00    +0.000 N 
ATOM     11  H   UNL     1      11.200  -0.418   1.747  0.00  0.00    +0.000 HD
BRANCH   8  15
ATOM     12  N   UNL     1      12.512   0.050  -2.285  0.00  0.00    +0.000 NA
ATOM     13  C   UNL     1      11.585   1.131  -2.666  0.00  0.00    +0.000 C 
ATOM     14  C   UNL     1      11.540   2.061  -1.468  0.00  0.00    +0.000 C 
ATOM     15  C   UNL     1      11.630   1.112  -0.282  0.00  0.00    +0.000 C 
ATOM     16  C   UNL     1      12.342  -0.125  -0.833  0.00  0.00    +0.000 C 
BRANCH  12  17
ATOM     17  C   UNL     1      13.895   0.340  -2.704  0.00  0.00    +0.000 C 
BRANCH  17  18
ATOM     18  C   UNL     1      14.892  -0.799  -2.387  0.00  0.00    +0.000 C 
BRANCH  18  19
ATOM     19  N   UNL     1      16.245  -0.502  -2.864  0.00  0.00    +0.000 NA
ATOM     20  H   UNL     1      16.859  -1.279  -2.617  0.00  0.00    +0.000 HD
ATOM     21  H   UNL     1      16.609   0.312  -2.371  0.00  0.00    +0.000 HD
ENDBRANCH  18  19
ENDBRANCH  17  18
ENDBRANCH  12  17
ENDBRANCH   8  15
ENDBRANCH   7  10
ENDBRANCH   1   7
BRANCH   4  22
ATOM     22  C   UNL     1      10.080  -4.233   6.409  0.00  0.00    +0.000 C 
BRANCH  22  23
ATOM     23  N   UNL     1       8.829  -4.581   7.037  0.00  0.00    +0.000 N 
ATOM     24  C   UNL     1       8.792  -5.416   8.127  0.00  0.00    +0.000 C 
ATOM     25  O   UNL     1       9.815  -5.858   8.642  0.00  0.00    +0.000 OA
ATOM     26  H   UNL     1       7.985  -4.445   6.490  0.00  0.00    +0.000 HD
BRANCH  24  27
ATOM     27  C   UNL     1       7.465  -5.706   8.684  0.00  0.00    +0.000 A 
ATOM     28  C   UNL     1       7.342  -6.064  10.021  0.00  0.00    +0.000 A 
ATOM     29  S   UNL     1       5.733  -6.347  10.509  0.00  0.00    +0.000 S 
ATOM     30  C   UNL     1       5.147  -6.049   8.939  0.00  0.00    +0.000 A 
ATOM     31  N   UNL     1       3.821  -6.164   8.653  0.00  0.00    +0.000 NA
ATOM     32  C   UNL     1       3.521  -5.935   7.418  0.00  0.00    +0.000 A 
ATOM     33  N   UNL     1       4.425  -5.593   6.445  0.00  0.00    +0.000 N 
ATOM     34  C   UNL     1       5.768  -5.438   6.695  0.00  0.00    +0.000 A 
ATOM     35  O   UNL     1       6.543  -5.084   5.810  0.00  0.00    +0.000 OA
ATOM     36  C   UNL     1       6.162  -5.706   8.063  0.00  0.00    +0.000 A 
ATOM     37  H   UNL     1       4.122  -5.412   5.499  0.00  0.00    +0.000 HD
ENDBRANCH  24  27
ENDBRANCH  22  23
ENDBRANCH   4  22
TORSDOF 9
