REMARK  Name = 
REMARK  8 active torsions:
REMARK  status: ('A' for Active; 'I' for Inactive)
REMARK    1  A    between atoms: C_1  and  C_2
REMARK    2  A    between atoms: C_2  and  N_3
REMARK    3  A    between atoms: C_2  and  C_17
REMARK    4  A    between atoms: C_4  and  C_6
REMARK    5  A    between atoms: N_12  and  C_13
REMARK    6  A    between atoms: C_20  and  O_21
REMARK    7  A    between atoms: O_21  and  C_22
REMARK    8  A    between atoms: C_22  and  C_23
REMARK                            x       y       z     vdW  Elec       q    Type
REMARK                         _______ _______ _______ _____ _____    ______ ____
ROOT
ATOM      1  C   UNL     1       3.001  -1.022   1.045  0.00  0.00    +0.000 C 
ATOM      2  C   UNL     1       2.459   0.003   0.042  0.00  0.00    +0.000 C 
ENDROOT
BRANCH   2   3
ATOM      3  C   UNL     1       2.913  -0.262  -1.386  0.00  0.00    +0.000 A 
ATOM      4  C   UNL     1       3.123   0.812  -2.267  0.00  0.00    +0.000 A 
ATOM      5  C   UNL     1       3.533   0.585  -3.585  0.00  0.00    +0.000 A 
ATOM      6  C   UNL     1       3.742  -0.716  -4.042  0.00  0.00    +0.000 A 
ATOM      7  C   UNL     1       3.456  -1.788  -3.200  0.00  0.00    +0.000 A 
ATOM      8  C   UNL     1       3.047  -1.563  -1.887  0.00  0.00    +0.000 A 
BRANCH   6   9
ATOM      9  O   UNL     1       4.222  -0.838  -5.318  0.00  0.00    +0.000 OA
BRANCH   9  10
ATOM     10  C   UNL     1       4.887  -2.080  -5.582  0.00  0.00    +0.000 C 
BRANCH  10  11
ATOM     11  C   UNL     1       5.806  -1.949  -6.770  0.00  0.00    +0.000 A 
ATOM     12  C   UNL     1       6.786  -0.958  -6.788  0.00  0.00    +0.000 A 
ATOM     13  C   UNL     1       7.667  -0.903  -7.861  0.00  0.00    +0.000 A 
ATOM     14  C   UNL     1       7.551  -1.836  -8.885  0.00  0.00    +0.000 A 
ATOM     15  C   UNL     1       6.552  -2.791  -8.790  0.00  0.00    +0.000 A 
ATOM     16  N   UNL     1       5.687  -2.874  -7.758  0.00  0.00    +0.000 NA
ENDBRANCH  10  11
ENDBRANCH   9  10
ENDBRANCH   6   9
ENDBRANCH   2   3
BRANCH   2  17
ATOM     17  N   UNL     1       1.012   0.024   0.067  0.00  0.00    +0.000 N 
ATOM     18  C   UNL     1       0.280   0.664   1.029  0.00  0.00    +0.000 C 
ATOM     19  O   UNL     1       0.800   1.229   1.987  0.00  0.00    +0.000 OA
ATOM     20  H   UNL     1       0.548  -0.295  -0.777  0.00  0.00    +0.000 HD
BRANCH  18  21
ATOM     21  C   UNL     1      -1.180   0.583   0.880  0.00  0.00    +0.000 A 
ATOM     22  C   UNL     1      -1.997   0.730   1.992  0.00  0.00    +0.000 A 
ATOM     23  S   UNL     1      -3.657   0.549   1.646  0.00  0.00    +0.000 S 
ATOM     24  C   UNL     1      -3.345   0.317  -0.011  0.00  0.00    +0.000 A 
ATOM     25  N   UNL     1      -4.357   0.116  -0.893  0.00  0.00    +0.000 NA
ATOM     26  C   UNL     1      -3.981  -0.017  -2.123  0.00  0.00    +0.000 A 
ATOM     27  N   UNL     1      -2.676   0.027  -2.569  0.00  0.00    +0.000 N 
ATOM     28  C   UNL     1      -2.361  -0.128  -3.974  0.00  0.00    +0.000 C 
ATOM     29  C   UNL     1      -1.616   0.206  -1.689  0.00  0.00    +0.000 A 
ATOM     30  O   UNL     1      -0.445   0.205  -2.058  0.00  0.00    +0.000 OA
ATOM     31  C   UNL     1      -1.994   0.366  -0.296  0.00  0.00    +0.000 A 
ENDBRANCH  18  21
ENDBRANCH   2  17
TORSDOF 6
