REMARK  Name = 
REMARK  5 active torsions:
REMARK  status: ('A' for Active; 'I' for Inactive)
REMARK    1  A    between atoms: N_1  and  C_2
REMARK    2  A    between atoms: C_2  and  C_3
REMARK    3  A    between atoms: C_2  and  C_16
REMARK    4  A    between atoms: C_6  and  C_7
REMARK    5  A    between atoms: C_7  and  C_8
REMARK                            x       y       z     vdW  Elec       q    Type
REMARK                         _______ _______ _______ _____ _____    ______ ____
ROOT
ATOM      1  C   UNL     1       2.475   0.072  -0.224  0.00  0.00    +0.000 C 
ENDROOT
BRANCH   1   2
ATOM      2  C   UNL     1       3.462   1.216  -0.339  0.00  0.00    +0.000 A 
ATOM      3  C   UNL     1       3.436   2.226  -1.293  0.00  0.00    +0.000 A 
ATOM      4  S   UNL     1       4.596   3.451  -1.029  0.00  0.00    +0.000 S 
ATOM      5  C   UNL     1       5.178   2.681   0.371  0.00  0.00    +0.000 A 
ATOM      6  N   UNL     1       6.164   3.237   1.125  0.00  0.00    +0.000 NA
ATOM      7  C   UNL     1       6.500   2.538   2.157  0.00  0.00    +0.000 A 
ATOM      8  N   UNL     1       5.950   1.325   2.496  0.00  0.00    +0.000 N 
ATOM      9  C   UNL     1       4.952   0.722   1.764  0.00  0.00    +0.000 A 
ATOM     10  O   UNL     1       4.482  -0.366   2.085  0.00  0.00    +0.000 OA
ATOM     11  C   UNL     1       4.524   1.486   0.608  0.00  0.00    +0.000 A 
ATOM     12  H   UNL     1       6.275   0.821   3.307  0.00  0.00    +0.000 HD
ENDBRANCH   1   2
BRANCH   1  13
ATOM     13  C   UNL     1       2.999  -1.178  -0.894  0.00  0.00    +0.000 A 
ATOM     14  C   UNL     1       3.784  -1.216  -2.051  0.00  0.00    +0.000 A 
ATOM     15  C   UNL     1       4.100  -2.440  -2.647  0.00  0.00    +0.000 A 
ATOM     16  C   UNL     1       3.601  -3.615  -2.096  0.00  0.00    +0.000 A 
ATOM     17  N   UNL     1       2.837  -3.614  -0.978  0.00  0.00    +0.000 NA
ATOM     18  C   UNL     1       2.569  -2.416  -0.409  0.00  0.00    +0.000 A 
BRANCH  16  19
ATOM     19  C   UNL     1       3.947  -4.960  -2.700  0.00  0.00    +0.000 C 
BRANCH  19  20
ATOM     20  C   UNL     1       5.259  -5.505  -2.191  0.00  0.00    +0.000 A 
ATOM     21  C   UNL     1       5.393  -5.878  -0.849  0.00  0.00    +0.000 A 
ATOM     22  C   UNL     1       6.629  -6.307  -0.396  0.00  0.00    +0.000 A 
ATOM     23  N   UNL     1       7.723  -6.404  -1.181  0.00  0.00    +0.000 NA
ATOM     24  C   UNL     1       7.570  -6.056  -2.476  0.00  0.00    +0.000 A 
ATOM     25  C   UNL     1       6.376  -5.610  -3.023  0.00  0.00    +0.000 A 
ENDBRANCH  19  20
ENDBRANCH  16  19
ENDBRANCH   1  13
BRANCH   1  26
ATOM     26  N   UNL     1       1.193   0.471  -0.812  0.00  0.00    +0.000 NA
ATOM     27  H   UNL     1       0.508  -0.255  -0.615  0.00  0.00    +0.000 HD
ATOM     28  H   UNL     1       1.291   0.478  -1.826  0.00  0.00    +0.000 HD
ENDBRANCH   1  26
TORSDOF 5
