REMARK  Name = 
REMARK  10 active torsions:
REMARK  status: ('A' for Active; 'I' for Inactive)
REMARK    1  A    between atoms: N_1  and  C_2
REMARK    2  A    between atoms: C_2  and  C_3
REMARK    3  A    between atoms: C_3  and  N_4
REMARK    4  A    between atoms: C_3  and  C_21
REMARK    5  A    between atoms: N_4  and  C_5
REMARK    6  A    between atoms: C_5  and  C_6
REMARK    7  A    between atoms: C_9  and  C_10
REMARK    8  A    between atoms: C_10  and  N_11
REMARK    9  A    between atoms: N_11  and  C_12
REMARK   10  A    between atoms: C_12  and  C_13
REMARK                            x       y       z     vdW  Elec       q    Type
REMARK                         _______ _______ _______ _____ _____    ______ ____
ROOT
ATOM      1  N   UNL     1       3.111  -0.266   0.659  0.00  0.00    +0.000 NA
ATOM      2  H   UNL     1       2.108  -0.435   0.739  0.00  0.00    +0.000 HD
ENDROOT
BRANCH   1   3
ATOM      3  C   UNL     1       3.675  -1.283  -0.261  0.00  0.00    +0.000 C 
BRANCH   3   4
ATOM      4  C   UNL     1       3.344  -2.645   0.345  0.00  0.00    +0.000 A 
ATOM      5  C   UNL     1       3.688  -3.026   1.635  0.00  0.00    +0.000 A 
ATOM      6  S   UNL     1       3.164  -4.598   2.045  0.00  0.00    +0.000 S 
ATOM      7  C   UNL     1       2.449  -4.823   0.517  0.00  0.00    +0.000 A 
ATOM      8  N   UNL     1       1.769  -5.967   0.220  0.00  0.00    +0.000 NA
ATOM      9  C   UNL     1       1.274  -5.991  -0.975  0.00  0.00    +0.000 A 
ATOM     10  N   UNL     1       1.410  -4.984  -1.900  0.00  0.00    +0.000 N 
ATOM     11  C   UNL     1       2.132  -3.833  -1.662  0.00  0.00    +0.000 A 
ATOM     12  O   UNL     1       2.298  -2.996  -2.544  0.00  0.00    +0.000 OA
ATOM     13  C   UNL     1       2.649  -3.732  -0.310  0.00  0.00    +0.000 A 
ATOM     14  H   UNL     1       1.016  -5.080  -2.824  0.00  0.00    +0.000 HD
ENDBRANCH   3   4
BRANCH   3  15
ATOM     15  C   UNL     1       5.214  -1.124  -0.491  0.00  0.00    +0.000 C 
BRANCH  15  16
ATOM     16  N   UNL     1       5.790  -2.056  -1.469  0.00  0.00    +0.000 NA
ATOM     17  H   UNL     1       6.795  -1.898  -1.522  0.00  0.00    +0.000 HD
ATOM     18  H   UNL     1       5.416  -1.847  -2.395  0.00  0.00    +0.000 HD
ENDBRANCH  15  16
ENDBRANCH   3  15
ENDBRANCH   1   3
BRANCH   1  19
ATOM     19  C   UNL     1       3.304   1.108   0.191  0.00  0.00    +0.000 C 
BRANCH  19  20
ATOM     20  C   UNL     1       2.643   2.128   1.094  0.00  0.00    +0.000 A 
ATOM     21  C   UNL     1       2.987   2.216   2.451  0.00  0.00    +0.000 A 
ATOM     22  C   UNL     1       2.427   3.202   3.270  0.00  0.00    +0.000 A 
ATOM     23  C   UNL     1       1.513   4.131   2.752  0.00  0.00    +0.000 A 
ATOM     24  C   UNL     1       1.173   4.047   1.395  0.00  0.00    +0.000 A 
ATOM     25  C   UNL     1       1.732   3.059   0.576  0.00  0.00    +0.000 A 
BRANCH  23  26
ATOM     26  C   UNL     1       0.884   5.178   3.645  0.00  0.00    +0.000 C 
BRANCH  26  27
ATOM     27  N   UNL     1       1.892   6.044   4.257  0.00  0.00    +0.000 NA
ATOM     28  H   UNL     1       2.434   6.493   3.519  0.00  0.00    +0.000 HD
BRANCH  27  29
ATOM     29  C   UNL     1       1.274   7.071   5.093  0.00  0.00    +0.000 C 
BRANCH  29  30
ATOM     30  C   UNL     1       2.319   7.972   5.705  0.00  0.00    +0.000 A 
ATOM     31  C   UNL     1       2.336   9.345   5.444  0.00  0.00    +0.000 A 
ATOM     32  C   UNL     1       3.321  10.123   6.035  0.00  0.00    +0.000 A 
ATOM     33  N   UNL     1       4.274   9.637   6.857  0.00  0.00    +0.000 NA
ATOM     34  C   UNL     1       4.241   8.309   7.099  0.00  0.00    +0.000 A 
ATOM     35  C   UNL     1       3.298   7.450   6.559  0.00  0.00    +0.000 A 
ENDBRANCH  29  30
ENDBRANCH  27  29
ENDBRANCH  26  27
ENDBRANCH  23  26
ENDBRANCH  19  20
ENDBRANCH   1  19
TORSDOF 10
