REMARK  Name = 
REMARK  11 active torsions:
REMARK  status: ('A' for Active; 'I' for Inactive)
REMARK    1  A    between atoms: C_1  and  C_2
REMARK    2  A    between atoms: C_2  and  C_3
REMARK    3  A    between atoms: C_3  and  N_4
REMARK    4  A    between atoms: N_4  and  C_5
REMARK    5  A    between atoms: N_4  and  C_27
REMARK    6  A    between atoms: C_5  and  C_6
REMARK    7  A    between atoms: C_9  and  C_10
REMARK    8  A    between atoms: C_10  and  N_11
REMARK    9  A    between atoms: C_12  and  C_14
REMARK   10  A    between atoms: N_20  and  C_21
REMARK   11  A    between atoms: C_27  and  C_28
REMARK                            x       y       z     vdW  Elec       q    Type
REMARK                         _______ _______ _______ _____ _____    ______ ____
ROOT
ATOM      1  C   UNL     1       4.783   0.364   1.525  0.00  0.00    +0.000 A 
ATOM      2  C   UNL     1       3.610   0.519   2.274  0.00  0.00    +0.000 A 
ATOM      3  C   UNL     1       3.250   1.776   2.775  0.00  0.00    +0.000 A 
ATOM      4  C   UNL     1       4.037   2.906   2.510  0.00  0.00    +0.000 A 
ATOM      5  C   UNL     1       5.233   2.743   1.801  0.00  0.00    +0.000 A 
ATOM      6  C   UNL     1       5.603   1.486   1.322  0.00  0.00    +0.000 A 
ENDROOT
BRANCH   1   7
ATOM      7  C   UNL     1       5.163  -0.973   0.912  0.00  0.00    +0.000 C 
BRANCH   7   8
ATOM      8  N   UNL     1       4.597  -1.252  -0.434  0.00  0.00    +0.000 NA
BRANCH   8   9
ATOM      9  C   UNL     1       4.964  -2.613  -0.877  0.00  0.00    +0.000 C 
BRANCH   9  11
ATOM     10  C   UNL     1       6.757  -4.266  -1.603  0.00  0.00    +0.000 C 
ATOM     11  C   UNL     1       6.465  -2.858  -1.111  0.00  0.00    +0.000 C 
ENDBRANCH   9  11
ENDBRANCH   8   9
BRANCH   8  12
ATOM     12  C   UNL     1       4.964  -0.198  -1.403  0.00  0.00    +0.000 C 
BRANCH  12  13
ATOM     13  C   UNL     1       4.417  -0.301  -2.851  0.00  0.00    +0.000 C 
ATOM     14  C   UNL     1       4.996   0.843  -3.711  0.00  0.00    +0.000 C 
ATOM     15  C   UNL     1       4.390   2.200  -3.346  0.00  0.00    +0.000 C 
ATOM     16  C   UNL     1       2.862   2.151  -3.331  0.00  0.00    +0.000 C 
ATOM     17  N   UNL     1       2.353   1.059  -2.505  0.00  0.00    +0.000 NA
ATOM     18  C   UNL     1       2.882  -0.241  -2.926  0.00  0.00    +0.000 C 
ATOM     19  H   UNL     1       1.335   1.042  -2.541  0.00  0.00    +0.000 HD
ENDBRANCH  12  13
ENDBRANCH   8  12
ENDBRANCH   7   8
ENDBRANCH   1   7
BRANCH   4  20
ATOM     20  C   UNL     1       3.608   4.276   2.962  0.00  0.00    +0.000 C 
BRANCH  20  21
ATOM     21  N   UNL     1       4.149   4.604   4.256  0.00  0.00    +0.000 N 
ATOM     22  C   UNL     1       4.012   5.876   4.766  0.00  0.00    +0.000 C 
ATOM     23  O   UNL     1       3.475   6.786   4.147  0.00  0.00    +0.000 OA
ATOM     24  H   UNL     1       4.447   3.849   4.857  0.00  0.00    +0.000 HD
BRANCH  22  25
ATOM     25  C   UNL     1       4.611   6.068   6.086  0.00  0.00    +0.000 A 
ATOM     26  C   UNL     1       5.802   5.468   6.463  0.00  0.00    +0.000 A 
ATOM     27  S   UNL     1       6.338   5.953   8.008  0.00  0.00    +0.000 S 
ATOM     28  C   UNL     1       4.996   6.985   8.213  0.00  0.00    +0.000 A 
ATOM     29  N   UNL     1       4.862   7.737   9.332  0.00  0.00    +0.000 NA
ATOM     30  C   UNL     1       3.807   8.484   9.347  0.00  0.00    +0.000 A 
ATOM     31  N   UNL     1       2.849   8.539   8.357  0.00  0.00    +0.000 N 
ATOM     32  C   UNL     1       1.688   9.389   8.517  0.00  0.00    +0.000 C 
ATOM     33  C   UNL     1       2.911   7.716   7.228  0.00  0.00    +0.000 A 
ATOM     34  O   UNL     1       1.987   7.621   6.425  0.00  0.00    +0.000 OA
ATOM     35  C   UNL     1       4.133   6.930   7.138  0.00  0.00    +0.000 A 
ENDBRANCH  22  25
ENDBRANCH  20  21
ENDBRANCH   4  20
TORSDOF 9
