REMARK  Name = 
REMARK  9 active torsions:
REMARK  status: ('A' for Active; 'I' for Inactive)
REMARK    1  A    between atoms: C_1  and  N_2
REMARK    2  A    between atoms: N_2  and  C_3
REMARK    3  A    between atoms: N_2  and  C_4
REMARK    4  A    between atoms: C_4  and  C_5
REMARK    5  A    between atoms: C_5  and  O_6
REMARK    6  A    between atoms: O_6  and  C_7
REMARK    7  A    between atoms: C_9  and  C_10
REMARK    8  A    between atoms: C_10  and  N_11
REMARK    9  A    between atoms: C_15  and  C_16
REMARK                            x       y       z     vdW  Elec       q    Type
REMARK                         _______ _______ _______ _____ _____    ______ ____
ROOT
ATOM      1  C   UNL     1       9.344   1.758   1.461  0.00  0.00    +0.000 C 
ENDROOT
BRANCH   1   2
ATOM      2  N   UNL     1       9.821   1.023   0.293  0.00  0.00    +0.000 N 
ATOM      3  C   UNL     1      11.070   0.394   0.419  0.00  0.00    +0.000 A 
ATOM      4  C   UNL     1      11.599  -0.324  -0.666  0.00  0.00    +0.000 A 
ATOM      5  N   UNL     1      12.807  -0.951  -0.661  0.00  0.00    +0.000 NA
ATOM      6  C   UNL     1      13.478  -0.853   0.517  0.00  0.00    +0.000 A 
ATOM      7  C   UNL     1      12.966  -0.174   1.607  0.00  0.00    +0.000 A 
ATOM      8  N   UNL     1      11.763   0.457   1.575  0.00  0.00    +0.000 NA
ATOM      9  H   UNL     1       9.841   1.622  -0.528  0.00  0.00    +0.000 HD
BRANCH   6  10
ATOM     10  C   UNL     1      14.825  -1.480   0.614  0.00  0.00    +0.000 C 
ATOM     11  N   UNL     1      15.283  -2.104  -0.513  0.00  0.00    +0.000 N 
ATOM     12  O   UNL     1      15.494  -1.428   1.637  0.00  0.00    +0.000 OA
ATOM     13  H   UNL     1      14.716  -2.128  -1.353  0.00  0.00    +0.000 HD
ATOM     14  H   UNL     1      16.200  -2.527  -0.505  0.00  0.00    +0.000 HD
ENDBRANCH   6  10
ENDBRANCH   1   2
BRANCH   1  17
ATOM     15  C   UNL     1       6.294   0.100   2.996  0.00  0.00    +0.000 A 
ATOM     16  C   UNL     1       7.063   0.867   2.134  0.00  0.00    +0.000 A 
ATOM     17  C   UNL     1       8.453   0.897   2.322  0.00  0.00    +0.000 A 
ATOM     18  C   UNL     1       8.998   0.113   3.339  0.00  0.00    +0.000 A 
ATOM     19  C   UNL     1       8.152  -0.651   4.123  0.00  0.00    +0.000 A 
ATOM     20  N   UNL     1       6.813  -0.665   3.980  0.00  0.00    +0.000 NA
BRANCH  15  21
ATOM     21  O   UNL     1       4.920   0.127   2.818  0.00  0.00    +0.000 OA
BRANCH  21  22
ATOM     22  C   UNL     1       4.235  -0.324   3.998  0.00  0.00    +0.000 C 
BRANCH  22  23
ATOM     23  C   UNL     1       2.718  -0.370   3.749  0.00  0.00    +0.000 C 
BRANCH  23  25
ATOM     24  C   UNL     1       0.490  -0.670   4.629  0.00  0.00    +0.000 C 
ATOM     25  N   UNL     1       1.917  -0.677   4.955  0.00  0.00    +0.000 NA
ATOM     26  C   UNL     1       2.280  -1.964   5.554  0.00  0.00    +0.000 C 
ENDBRANCH  23  25
ENDBRANCH  22  23
ENDBRANCH  21  22
ENDBRANCH  15  21
ENDBRANCH   1  17
TORSDOF 7
