REMARK  Name = 
REMARK  5 active torsions:
REMARK  status: ('A' for Active; 'I' for Inactive)
REMARK    1  A    between atoms: C_1  and  C_2
REMARK    2  A    between atoms: C_4  and  C_5
REMARK    3  A    between atoms: N_10  and  C_11
REMARK    4  A    between atoms: C_11  and  C_12
REMARK    5  A    between atoms: C_16  and  C_17
REMARK                            x       y       z     vdW  Elec       q    Type
REMARK                         _______ _______ _______ _____ _____    ______ ____
ROOT
ATOM      1  C   UNL     1      -2.844   3.065  -1.282  0.00  0.00    +0.000 C 
ATOM      2  C   UNL     1      -1.456   2.629  -1.637  0.00  0.00    +0.000 A 
ATOM      3  C   UNL     1      -1.158   2.149  -2.887  0.00  0.00    +0.000 A 
ATOM      4  C   UNL     1       0.154   1.775  -3.071  0.00  0.00    +0.000 A 
ATOM      5  N   UNL     1       1.118   1.853  -2.121  0.00  0.00    +0.000 NA
ATOM      6  C   UNL     1       0.726   2.321  -0.935  0.00  0.00    +0.000 A 
ATOM      7  N   UNL     1       1.598   2.381   0.130  0.00  0.00    +0.000 N 
ATOM      8  N   UNL     1      -0.523   2.721  -0.665  0.00  0.00    +0.000 NA
ATOM      9  H   UNL     1       1.184   2.983   0.833  0.00  0.00    +0.000 HD
ENDROOT
BRANCH   4  10
ATOM     10  C   UNL     1       0.575   1.240  -4.402  0.00  0.00    +0.000 C 
ATOM     11  N   UNL     1       1.890   0.880  -4.509  0.00  0.00    +0.000 N 
ATOM     12  O   UNL     1      -0.203   1.127  -5.342  0.00  0.00    +0.000 OA
ATOM     13  H   UNL     1       2.493   0.925  -3.695  0.00  0.00    +0.000 HD
ATOM     14  H   UNL     1       2.221   0.466  -5.368  0.00  0.00    +0.000 HD
ENDBRANCH   4  10
BRANCH   7  15
ATOM     15  C   UNL     1       3.010   2.550  -0.120  0.00  0.00    +0.000 C 
BRANCH  15  16
ATOM     16  C   UNL     1       3.401   4.001  -0.122  0.00  0.00    +0.000 A 
ATOM     17  C   UNL     1       3.764   4.644   1.054  0.00  0.00    +0.000 A 
ATOM     18  N   UNL     1       4.128   5.941   1.123  0.00  0.00    +0.000 NA
ATOM     19  C   UNL     1       4.122   6.636  -0.042  0.00  0.00    +0.000 A 
ATOM     20  C   UNL     1       3.780   6.115  -1.293  0.00  0.00    +0.000 A 
ATOM     21  C   UNL     1       3.409   4.760  -1.301  0.00  0.00    +0.000 A 
BRANCH  20  22
ATOM     22  C   UNL     1       3.806   6.936  -2.525  0.00  0.00    +0.000 A 
ATOM     23  C   UNL     1       4.747   7.973  -2.700  0.00  0.00    +0.000 A 
ATOM     24  C   UNL     1       4.763   8.755  -3.860  0.00  0.00    +0.000 A 
ATOM     25  C   UNL     1       3.846   8.503  -4.868  0.00  0.00    +0.000 A 
ATOM     26  F   UNL     1       3.863   9.248  -5.980  0.00  0.00    +0.000 F 
ATOM     27  C   UNL     1       2.911   7.487  -4.738  0.00  0.00    +0.000 A 
ATOM     28  C   UNL     1       2.889   6.714  -3.572  0.00  0.00    +0.000 A 
ENDBRANCH  20  22
ENDBRANCH  15  16
ENDBRANCH   7  15
TORSDOF 4
