REMARK  Name = 
REMARK  11 active torsions:
REMARK  status: ('A' for Active; 'I' for Inactive)
REMARK    1  A    between atoms: C_1  and  N_2
REMARK    2  A    between atoms: N_2  and  C_3
REMARK    3  A    between atoms: N_2  and  C_4
REMARK    4  A    between atoms: C_4  and  C_5
REMARK    5  A    between atoms: C_5  and  C_6
REMARK    6  A    between atoms: C_6  and  C_7
REMARK    7  A    between atoms: C_6  and  C_18
REMARK    8  A    between atoms: C_7  and  N_8
REMARK    9  A    between atoms: N_8  and  C_9
REMARK   10  A    between atoms: C_12  and  C_13
REMARK   11  A    between atoms: C_22  and  C_23
REMARK                            x       y       z     vdW  Elec       q    Type
REMARK                         _______ _______ _______ _____ _____    ______ ____
ROOT
ATOM      1  C   UNL     1       4.930   1.889   2.016  0.00  0.00    +0.000 C 
ENDROOT
BRANCH   1   2
ATOM      2  C   UNL     1       6.458   1.938   1.933  0.00  0.00    +0.000 A 
ATOM      3  C   UNL     1       7.248   0.808   2.193  0.00  0.00    +0.000 A 
ATOM      4  C   UNL     1       8.636   0.856   2.076  0.00  0.00    +0.000 A 
ATOM      5  C   UNL     1       9.263   2.035   1.683  0.00  0.00    +0.000 A 
ATOM      6  C   UNL     1       8.504   3.181   1.409  0.00  0.00    +0.000 A 
ATOM      7  C   UNL     1       7.105   3.125   1.549  0.00  0.00    +0.000 A 
BRANCH   6   8
ATOM      8  C   UNL     1       9.171   4.456   0.955  0.00  0.00    +0.000 C 
ATOM      9  F   UNL     1      10.522   4.344   0.809  0.00  0.00    +0.000 F 
ATOM     10  F   UNL     1       8.704   4.883  -0.253  0.00  0.00    +0.000 F 
ATOM     11  F   UNL     1       8.974   5.490   1.818  0.00  0.00    +0.000 F 
ENDBRANCH   6   8
ENDBRANCH   1   2
BRANCH   1  12
ATOM     12  C   UNL     1       4.372   0.876   0.985  0.00  0.00    +0.000 C 
BRANCH  12  13
ATOM     13  C   UNL     1       2.844   0.887   0.819  0.00  0.00    +0.000 C 
BRANCH  13  15
ATOM     14  C   UNL     1       2.764   2.581  -0.927  0.00  0.00    +0.000 C 
ATOM     15  N   UNL     1       2.282   2.182   0.399  0.00  0.00    +0.000 NA
ATOM     16  C   UNL     1       0.816   2.103   0.373  0.00  0.00    +0.000 C 
ENDBRANCH  13  15
ENDBRANCH  12  13
ENDBRANCH   1  12
BRANCH   1  17
ATOM     17  C   UNL     1       4.406   1.671   3.461  0.00  0.00    +0.000 C 
BRANCH  17  18
ATOM     18  N   UNL     1       4.717   0.335   3.974  0.00  0.00    +0.000 N 
ATOM     19  H   UNL     1       4.631  -0.405   3.286  0.00  0.00    +0.000 HD
BRANCH  18  20
ATOM     20  C   UNL     1       4.271  -0.096   5.220  0.00  0.00    +0.000 A 
ATOM     21  C   UNL     1       3.673   0.733   6.171  0.00  0.00    +0.000 A 
ATOM     22  C   UNL     1       3.266   0.227   7.410  0.00  0.00    +0.000 A 
ATOM     23  C   UNL     1       3.479  -1.115   7.732  0.00  0.00    +0.000 A 
ATOM     24  C   UNL     1       4.151  -1.938   6.824  0.00  0.00    +0.000 A 
ATOM     25  C   UNL     1       4.548  -1.422   5.587  0.00  0.00    +0.000 A 
BRANCH  23  26
ATOM     26  C   UNL     1       3.000  -1.618   9.046  0.00  0.00    +0.000 C 
ATOM     27  N   UNL     1       2.759  -2.960   9.157  0.00  0.00    +0.000 N 
ATOM     28  O   UNL     1       2.778  -0.864   9.984  0.00  0.00    +0.000 OA
ATOM     29  H   UNL     1       2.684  -3.566   8.354  0.00  0.00    +0.000 HD
ATOM     30  H   UNL     1       2.315  -3.260  10.015  0.00  0.00    +0.000 HD
ENDBRANCH  23  26
ENDBRANCH  18  20
ENDBRANCH  17  18
ENDBRANCH   1  17
TORSDOF 9
