REMARK  Name = 
REMARK  8 active torsions:
REMARK  status: ('A' for Active; 'I' for Inactive)
REMARK    1  A    between atoms: C_1  and  O_2
REMARK    2  A    between atoms: O_2  and  C_3
REMARK    3  A    between atoms: C_6  and  N_7
REMARK    4  A    between atoms: N_7  and  C_8
REMARK    5  A    between atoms: C_8  and  C_9
REMARK    6  A    between atoms: C_9  and  C_12
REMARK    7  A    between atoms: C_16  and  N_17
REMARK    8  A    between atoms: N_17  and  C_18
REMARK                            x       y       z     vdW  Elec       q    Type
REMARK                         _______ _______ _______ _____ _____    ______ ____
ROOT
ATOM      1  C   UNL     1       5.426   4.149  -6.205  0.00  0.00    +0.000 C 
ATOM      2  F   UNL     1       6.754   4.258  -5.911  0.00  0.00    +0.000 F 
ATOM      3  F   UNL     1       5.335   3.132  -7.114  0.00  0.00    +0.000 F 
ENDROOT
BRANCH   1   4
ATOM      4  C   UNL     1       4.845   5.450  -6.724  0.00  0.00    +0.000 A 
ATOM      5  C   UNL     1       3.812   5.446  -7.668  0.00  0.00    +0.000 A 
ATOM      6  C   UNL     1       3.201   6.642  -8.035  0.00  0.00    +0.000 A 
ATOM      7  C   UNL     1       3.622   7.851  -7.472  0.00  0.00    +0.000 A 
ATOM      8  C   UNL     1       4.673   7.888  -6.552  0.00  0.00    +0.000 A 
ATOM      9  C   UNL     1       5.266   6.675  -6.177  0.00  0.00    +0.000 A 
BRANCH   8  10
ATOM     10  N   UNL     1       5.066   9.071  -5.891  0.00  0.00    +0.000 N 
ATOM     11  H   UNL     1       5.961   8.954  -5.418  0.00  0.00    +0.000 HD
BRANCH  10  12
ATOM     12  C   UNL     1       4.897  10.413  -6.385  0.00  0.00    +0.000 C 
ATOM     13  C   UNL     1       6.119  10.931  -7.171  0.00  0.00    +0.000 C 
ATOM     14  N   UNL     1       6.155  12.135  -6.319  0.00  0.00    +0.000 NA
ATOM     15  C   UNL     1       5.271  11.481  -5.336  0.00  0.00    +0.000 C 
ATOM     16  H   UNL     1       5.736  12.955  -6.758  0.00  0.00    +0.000 HD
ENDBRANCH  10  12
ENDBRANCH   8  10
ENDBRANCH   1   4
BRANCH   1  17
ATOM     17  C   UNL     1       4.646   3.739  -4.931  0.00  0.00    +0.000 C 
BRANCH  17  18
ATOM     18  N   UNL     1       5.112   2.491  -4.305  0.00  0.00    +0.000 N 
ATOM     19  H   UNL     1       5.360   1.756  -4.963  0.00  0.00    +0.000 HD
BRANCH  18  23
ATOM     20  C   UNL     1       3.344   1.076  -0.733  0.00  0.00    +0.000 A 
ATOM     21  C   UNL     1       2.877   2.250  -1.314  0.00  0.00    +0.000 A 
ATOM     22  C   UNL     1       3.442   2.720  -2.505  0.00  0.00    +0.000 A 
ATOM     23  C   UNL     1       4.458   2.016  -3.164  0.00  0.00    +0.000 A 
ATOM     24  C   UNL     1       4.922   0.841  -2.565  0.00  0.00    +0.000 A 
ATOM     25  C   UNL     1       4.371   0.374  -1.365  0.00  0.00    +0.000 A 
BRANCH  20  27
ATOM     26  C   UNL     1       1.877   1.251   1.123  0.00  0.00    +0.000 C 
ATOM     27  O   UNL     1       2.895   0.531   0.437  0.00  0.00    +0.000 OA
ENDBRANCH  20  27
ENDBRANCH  18  23
ENDBRANCH  17  18
ENDBRANCH   1  17
TORSDOF 7
