REMARK  Name = 
REMARK  5 active torsions:
REMARK  status: ('A' for Active; 'I' for Inactive)
REMARK    1  A    between atoms: N_1  and  C_2
REMARK    2  A    between atoms: C_2  and  C_3
REMARK    3  A    between atoms: C_3  and  C_4
REMARK    4  A    between atoms: C_7  and  C_8
REMARK    5  A    between atoms: C_8  and  N_9
REMARK                            x       y       z     vdW  Elec       q    Type
REMARK                         _______ _______ _______ _____ _____    ______ ____
ROOT
ATOM      1  C   UNL     1       4.619  -1.093   1.002  0.00  0.00    +0.000 A 
ATOM      2  C   UNL     1       5.374  -2.259   0.831  0.00  0.00    +0.000 A 
ATOM      3  C   UNL     1       6.772  -2.201   0.812  0.00  0.00    +0.000 A 
ATOM      4  C   UNL     1       7.438  -0.975   0.957  0.00  0.00    +0.000 A 
ATOM      5  C   UNL     1       6.684   0.187   1.134  0.00  0.00    +0.000 A 
ATOM      6  C   UNL     1       5.284   0.128   1.167  0.00  0.00    +0.000 A 
ENDROOT
BRANCH   1   7
ATOM      7  C   UNL     1       3.109  -1.144   0.997  0.00  0.00    +0.000 C 
BRANCH   7   8
ATOM      8  C   UNL     1       2.512  -1.319   2.398  0.00  0.00    +0.000 C 
BRANCH   8   9
ATOM      9  N   UNL     1       1.049  -1.310   2.345  0.00  0.00    +0.000 NA
ATOM     10  H   UNL     1       0.674  -1.455   3.281  0.00  0.00    +0.000 HD
ATOM     11  H   UNL     1       0.719  -2.092   1.780  0.00  0.00    +0.000 HD
ENDBRANCH   8   9
ENDBRANCH   7   8
ENDBRANCH   1   7
BRANCH   4  12
ATOM     12  C   UNL     1       8.946  -0.921   0.980  0.00  0.00    +0.000 C 
BRANCH  12  13
ATOM     13  N   UNL     1       9.583  -0.708  -0.315  0.00  0.00    +0.000 N 
ATOM     14  C   UNL     1       9.317  -1.408  -1.462  0.00  0.00    +0.000 A 
ATOM     15  N   UNL     1      10.326  -1.370  -2.303  0.00  0.00    +0.000 NA
ATOM     16  C   UNL     1      11.271  -0.583  -1.696  0.00  0.00    +0.000 A 
ATOM     17  C   UNL     1      12.579  -0.280  -2.105  0.00  0.00    +0.000 A 
ATOM     18  C   UNL     1      13.362   0.558  -1.302  0.00  0.00    +0.000 A 
ATOM     19  C   UNL     1      12.839   1.117  -0.135  0.00  0.00    +0.000 A 
ATOM     20  C   UNL     1      11.542   0.816   0.297  0.00  0.00    +0.000 A 
ATOM     21  C   UNL     1      10.796  -0.071  -0.490  0.00  0.00    +0.000 A 
ENDBRANCH  12  13
ENDBRANCH   4  12
TORSDOF 5
