REMARK  Name = 
REMARK  5 active torsions:
REMARK  status: ('A' for Active; 'I' for Inactive)
REMARK    1  A    between atoms: C_2  and  C_3
REMARK    2  A    between atoms: C_8  and  O_9
REMARK    3  A    between atoms: O_9  and  C_10
REMARK    4  A    between atoms: C_10  and  C_11
REMARK    5  A    between atoms: C_16  and  C_17
REMARK                            x       y       z     vdW  Elec       q    Type
REMARK                         _______ _______ _______ _____ _____    ______ ____
ROOT
ATOM      1  C   UNL     1       0.464   5.539   0.819  0.00  0.00    +0.000 A 
ATOM      2  C   UNL     1      -0.224   6.677   0.395  0.00  0.00    +0.000 A 
ATOM      3  C   UNL     1       0.228   7.936   0.758  0.00  0.00    +0.000 A 
ATOM      4  F   UNL     1      -0.451   9.021   0.365  0.00  0.00    +0.000 F 
ATOM      5  C   UNL     1       1.371   8.093   1.532  0.00  0.00    +0.000 A 
ATOM      6  C   UNL     1       2.096   6.977   1.977  0.00  0.00    +0.000 A 
ATOM      7  C   UNL     1       1.619   5.702   1.605  0.00  0.00    +0.000 A 
ENDROOT
BRANCH   6   8
ATOM      8  C   UNL     1       3.311   7.134   2.805  0.00  0.00    +0.000 A 
ATOM      9  C   UNL     1       3.461   8.222   3.688  0.00  0.00    +0.000 A 
ATOM     10  C   UNL     1       4.613   8.380   4.466  0.00  0.00    +0.000 A 
ATOM     11  C   UNL     1       5.636   7.445   4.382  0.00  0.00    +0.000 A 
ATOM     12  C   UNL     1       5.501   6.364   3.521  0.00  0.00    +0.000 A 
ATOM     13  F   UNL     1       6.485   5.458   3.438  0.00  0.00    +0.000 F 
ATOM     14  C   UNL     1       4.363   6.206   2.739  0.00  0.00    +0.000 A 
ENDBRANCH   6   8
BRANCH   1  15
ATOM     15  C   UNL     1      -0.049   4.165   0.473  0.00  0.00    +0.000 C 
BRANCH  15  16
ATOM     16  O   UNL     1       0.459   3.734  -0.791  0.00  0.00    +0.000 OA
BRANCH  16  22
ATOM     17  C   UNL     1      -1.037   0.329  -0.958  0.00  0.00    +0.000 A 
ATOM     18  C   UNL     1      -0.519  -0.088  -2.182  0.00  0.00    +0.000 A 
ATOM     19  C   UNL     1       0.273   0.790  -2.911  0.00  0.00    +0.000 A 
ATOM     20  F   UNL     1       0.773   0.392  -4.089  0.00  0.00    +0.000 F 
ATOM     21  C   UNL     1       0.575   2.063  -2.431  0.00  0.00    +0.000 A 
ATOM     22  C   UNL     1       0.064   2.485  -1.202  0.00  0.00    +0.000 A 
ATOM     23  C   UNL     1      -0.770   1.621  -0.483  0.00  0.00    +0.000 A 
BRANCH  17  25
ATOM     24  N   UNL     1      -2.394  -1.302   0.529  0.00  0.00    +0.000 NA
ATOM     25  C   UNL     1      -1.802  -0.578  -0.151  0.00  0.00    +0.000 C 
ENDBRANCH  17  25
ENDBRANCH  16  22
ENDBRANCH  15  16
ENDBRANCH   1  15
TORSDOF 5
