REMARK  Name = 
REMARK  5 active torsions:
REMARK  status: ('A' for Active; 'I' for Inactive)
REMARK    1  A    between atoms: N_1  and  C_2
REMARK    2  A    between atoms: C_2  and  C_3
REMARK    3  A    between atoms: C_7  and  S_8
REMARK    4  A    between atoms: S_8  and  C_9
REMARK    5  A    between atoms: C_9  and  C_10
REMARK                            x       y       z     vdW  Elec       q    Type
REMARK                         _______ _______ _______ _____ _____    ______ ____
ROOT
ATOM      1  C   UNL     1       2.796  -1.189   0.979  0.00  0.00    +0.000 A 
ATOM      2  C   UNL     1       2.464  -2.498   0.623  0.00  0.00    +0.000 A 
ATOM      3  C   UNL     1       2.841  -3.530   1.463  0.00  0.00    +0.000 A 
ATOM      4  N   UNL     1       3.521  -3.353   2.615  0.00  0.00    +0.000 NA
ATOM      5  C   UNL     1       3.835  -2.086   2.961  0.00  0.00    +0.000 A 
ATOM      6  C   UNL     1       3.503  -0.986   2.171  0.00  0.00    +0.000 A 
ENDROOT
BRANCH   1   7
ATOM      7  C   UNL     1       2.383  -0.041   0.095  0.00  0.00    +0.000 C 
BRANCH   7   8
ATOM      8  N   UNL     1       0.932   0.020  -0.035  0.00  0.00    +0.000 NA
ATOM      9  H   UNL     1       0.675   0.848  -0.569  0.00  0.00    +0.000 HD
ATOM     10  H   UNL     1       0.520   0.136   0.890  0.00  0.00    +0.000 HD
ENDBRANCH   7   8
ENDBRANCH   1   7
BRANCH   5  11
ATOM     11  S   UNL     1       4.699  -1.833   4.504  0.00  0.00    +0.000 S 
BRANCH  11  12
ATOM     12  C   UNL     1       4.810  -3.562   5.100  0.00  0.00    +0.000 C 
BRANCH  12  13
ATOM     13  C   UNL     1       5.509  -3.681   6.441  0.00  0.00    +0.000 A 
ATOM     14  C   UNL     1       6.843  -3.290   6.589  0.00  0.00    +0.000 A 
ATOM     15  C   UNL     1       7.463  -3.434   7.831  0.00  0.00    +0.000 A 
ATOM     16  C   UNL     1       6.744  -3.980   8.881  0.00  0.00    +0.000 A 
ATOM     17  F   UNL     1       7.311  -4.135  10.082  0.00  0.00    +0.000 F 
ATOM     18  C   UNL     1       5.434  -4.365   8.660  0.00  0.00    +0.000 A 
ATOM     19  N   UNL     1       4.803  -4.229   7.467  0.00  0.00    +0.000 NA
ENDBRANCH  12  13
ENDBRANCH  11  12
ENDBRANCH   5  11
TORSDOF 5
