REMARK  Name = 
REMARK  5 active torsions:
REMARK  status: ('A' for Active; 'I' for Inactive)
REMARK    1  A    between atoms: C_2  and  C_4
REMARK    2  A    between atoms: C_7  and  N_8
REMARK    3  A    between atoms: N_8  and  C_9
REMARK    4  A    between atoms: C_9  and  C_10
REMARK    5  A    between atoms: C_14  and  C_15
REMARK                            x       y       z     vdW  Elec       q    Type
REMARK                         _______ _______ _______ _____ _____    ______ ____
ROOT
ATOM      1  C   UNL     1       5.134   3.304   4.975  0.00  0.00    +0.000 C 
ATOM      2  C   UNL     1       4.879   2.375   6.158  0.00  0.00    +0.000 C 
ATOM      3  C   UNL     1       3.762   3.198   5.607  0.00  0.00    +0.000 C 
ENDROOT
BRANCH   1   4
ATOM      4  C   UNL     1       5.962   4.568   5.197  0.00  0.00    +0.000 A 
ATOM      5  C   UNL     1       7.171   4.541   5.908  0.00  0.00    +0.000 A 
ATOM      6  C   UNL     1       7.988   5.667   5.992  0.00  0.00    +0.000 A 
ATOM      7  C   UNL     1       7.630   6.841   5.329  0.00  0.00    +0.000 A 
ATOM      8  C   UNL     1       6.439   6.924   4.593  0.00  0.00    +0.000 A 
ATOM      9  C   UNL     1       5.603   5.791   4.592  0.00  0.00    +0.000 A 
BRANCH   8  10
ATOM     10  C   UNL     1       6.099   8.110   3.781  0.00  0.00    +0.000 A 
ATOM     11  C   UNL     1       7.075   8.831   3.086  0.00  0.00    +0.000 A 
ATOM     12  C   UNL     1       6.695   9.909   2.291  0.00  0.00    +0.000 A 
ATOM     13  C   UNL     1       5.354  10.246   2.201  0.00  0.00    +0.000 A 
ATOM     14  C   UNL     1       4.443   9.482   2.909  0.00  0.00    +0.000 A 
ATOM     15  N   UNL     1       4.782   8.427   3.686  0.00  0.00    +0.000 NA
ENDBRANCH   8  10
ENDBRANCH   1   4
BRANCH   1  16
ATOM     16  N   UNL     1       5.471   2.604   3.715  0.00  0.00    +0.000 N 
ATOM     17  H   UNL     1       6.455   2.358   3.633  0.00  0.00    +0.000 HD
BRANCH  16  21
ATOM     18  C   UNL     1       3.811   3.341  -0.109  0.00  0.00    +0.000 A 
ATOM     19  C   UNL     1       3.295   4.011   1.002  0.00  0.00    +0.000 A 
ATOM     20  C   UNL     1       3.837   3.780   2.272  0.00  0.00    +0.000 A 
ATOM     21  C   UNL     1       4.928   2.925   2.452  0.00  0.00    +0.000 A 
ATOM     22  C   UNL     1       5.419   2.241   1.330  0.00  0.00    +0.000 A 
ATOM     23  C   UNL     1       4.864   2.440   0.060  0.00  0.00    +0.000 A 
BRANCH  18  25
ATOM     24  N   UNL     1       2.596   4.692  -1.737  0.00  0.00    +0.000 N 
ATOM     25  C   UNL     1       3.225   3.508  -1.463  0.00  0.00    +0.000 C 
ATOM     26  O   UNL     1       3.319   2.637  -2.320  0.00  0.00    +0.000 OA
ATOM     27  H   UNL     1       2.271   4.821  -2.684  0.00  0.00    +0.000 HD
ATOM     28  H   UNL     1       2.717   5.513  -1.158  0.00  0.00    +0.000 HD
ENDBRANCH  18  25
ENDBRANCH  16  21
ENDBRANCH   1  16
TORSDOF 5
