REMARK  Name = 
REMARK  3 active torsions:
REMARK  status: ('A' for Active; 'I' for Inactive)
REMARK    1  A    between atoms: C_2  and  C_4
REMARK    2  A    between atoms: N_8  and  C_9
REMARK    3  A    between atoms: C_9  and  C_10
REMARK                            x       y       z     vdW  Elec       q    Type
REMARK                         _______ _______ _______ _____ _____    ______ ____
ROOT
ATOM      1  C   UNL     1       1.752   1.400  -5.548  0.00  0.00    +0.000 A 
ATOM      2  C   UNL     1       1.888   1.587  -4.194  0.00  0.00    +0.000 A 
ATOM      3  N   UNL     1       3.042   1.970  -3.601  0.00  0.00    +0.000 NA
ATOM      4  C   UNL     1       4.110   2.159  -4.398  0.00  0.00    +0.000 A 
ATOM      5  N   UNL     1       5.292   2.514  -3.754  0.00  0.00    +0.000 N 
ATOM      6  N   UNL     1       4.071   1.990  -5.730  0.00  0.00    +0.000 NA
ATOM      7  C   UNL     1       2.898   1.599  -6.277  0.00  0.00    +0.000 A 
ATOM      8  H   UNL     1       5.162   2.452  -2.755  0.00  0.00    +0.000 HD
ENDROOT
BRANCH   1  10
ATOM      9  N   UNL     1      -0.676   1.317  -5.605  0.00  0.00    +0.000 N 
ATOM     10  C   UNL     1       0.505   0.989  -6.211  0.00  0.00    +0.000 C 
ATOM     11  O   UNL     1       0.525   0.408  -7.288  0.00  0.00    +0.000 OA
ATOM     12  H   UNL     1      -1.517   1.121  -6.135  0.00  0.00    +0.000 HD
ATOM     13  H   UNL     1      -0.753   1.999  -4.863  0.00  0.00    +0.000 HD
ENDBRANCH   1  10
BRANCH   5  14
ATOM     14  C   UNL     1       6.618   2.299  -4.345  0.00  0.00    +0.000 C 
ATOM     15  C   UNL     1       6.919   1.068  -5.188  0.00  0.00    +0.000 C 
ATOM     16  C   UNL     1       7.456   1.143  -3.797  0.00  0.00    +0.000 C 
BRANCH  14  17
ATOM     17  C   UNL     1       7.397   3.586  -4.616  0.00  0.00    +0.000 A 
ATOM     18  C   UNL     1       8.055   4.271  -3.576  0.00  0.00    +0.000 A 
ATOM     19  C   UNL     1       8.880   5.370  -3.833  0.00  0.00    +0.000 A 
ATOM     20  C   UNL     1       9.054   5.818  -5.137  0.00  0.00    +0.000 A 
ATOM     21  C   UNL     1       8.375   5.191  -6.179  0.00  0.00    +0.000 A 
ATOM     22  C   UNL     1       7.546   4.098  -5.916  0.00  0.00    +0.000 A 
ENDBRANCH  14  17
ENDBRANCH   5  14
TORSDOF 3
