REMARK  Name = 
REMARK  8 active torsions:
REMARK  status: ('A' for Active; 'I' for Inactive)
REMARK    1  A    between atoms: C_1  and  C_2
REMARK    2  A    between atoms: C_2  and  N_3
REMARK    3  A    between atoms: C_2  and  C_16
REMARK    4  A    between atoms: C_4  and  C_6
REMARK    5  A    between atoms: C_19  and  O_20
REMARK    6  A    between atoms: O_20  and  C_21
REMARK    7  A    between atoms: C_21  and  C_22
REMARK    8  A    between atoms: C_26  and  C_27
REMARK                            x       y       z     vdW  Elec       q    Type
REMARK                         _______ _______ _______ _____ _____    ______ ____
ROOT
ATOM      1  C   UNL     1       2.800  -0.986   1.105  0.00  0.00    +0.000 A 
ATOM      2  C   UNL     1       3.181  -0.560   2.389  0.00  0.00    +0.000 A 
ATOM      3  C   UNL     1       3.443  -1.491   3.398  0.00  0.00    +0.000 A 
ATOM      4  C   UNL     1       3.328  -2.855   3.137  0.00  0.00    +0.000 A 
ATOM      5  C   UNL     1       3.055  -3.286   1.840  0.00  0.00    +0.000 A 
ATOM      6  C   UNL     1       2.791  -2.360   0.836  0.00  0.00    +0.000 A 
ENDROOT
BRANCH   1   8
ATOM      7  C   UNL     1       1.400  -0.448  -0.959  0.00  0.00    +0.000 C 
ATOM      8  C   UNL     1       2.466   0.035   0.034  0.00  0.00    +0.000 C 
BRANCH   8   9
ATOM      9  N   UNL     1       3.682   0.392  -0.663  0.00  0.00    +0.000 N 
ATOM     10  C   UNL     1       3.837   1.597  -1.293  0.00  0.00    +0.000 C 
ATOM     11  O   UNL     1       3.006   2.497  -1.209  0.00  0.00    +0.000 OA
ATOM     12  H   UNL     1       4.313  -0.370  -0.884  0.00  0.00    +0.000 HD
BRANCH  10  13
ATOM     13  C   UNL     1       5.086   1.775  -2.035  0.00  0.00    +0.000 A 
ATOM     14  C   UNL     1       5.614   3.047  -2.201  0.00  0.00    +0.000 A 
ATOM     15  S   UNL     1       7.070   3.069  -3.087  0.00  0.00    +0.000 S 
ATOM     16  C   UNL     1       7.018   1.384  -3.320  0.00  0.00    +0.000 A 
ATOM     17  N   UNL     1       7.972   0.750  -4.054  0.00  0.00    +0.000 NA
ATOM     18  C   UNL     1       7.788  -0.522  -4.182  0.00  0.00    +0.000 A 
ATOM     19  N   UNL     1       6.744  -1.220  -3.633  0.00  0.00    +0.000 N 
ATOM     20  C   UNL     1       5.787  -0.631  -2.840  0.00  0.00    +0.000 A 
ATOM     21  O   UNL     1       4.918  -1.299  -2.286  0.00  0.00    +0.000 OA
ATOM     22  C   UNL     1       5.925   0.806  -2.699  0.00  0.00    +0.000 A 
ATOM     23  H   UNL     1       6.673  -2.220  -3.752  0.00  0.00    +0.000 HD
ENDBRANCH  10  13
ENDBRANCH   8   9
ENDBRANCH   1   8
BRANCH   4  24
ATOM     24  O   UNL     1       3.484  -3.694   4.208  0.00  0.00    +0.000 OA
BRANCH  24  25
ATOM     25  C   UNL     1       2.828  -4.958   4.050  0.00  0.00    +0.000 C 
BRANCH  25  26
ATOM     26  C   UNL     1       2.561  -5.589   5.393  0.00  0.00    +0.000 A 
ATOM     27  C   UNL     1       1.825  -4.904   6.354  0.00  0.00    +0.000 A 
ATOM     28  C   UNL     1       1.535  -5.540   7.554  0.00  0.00    +0.000 A 
ATOM     29  C   UNL     1       1.982  -6.841   7.760  0.00  0.00    +0.000 A 
ATOM     30  C   UNL     1       2.712  -7.480   6.757  0.00  0.00    +0.000 A 
ATOM     31  N   UNL     1       2.994  -6.861   5.575  0.00  0.00    +0.000 NA
BRANCH  30  32
ATOM     32  C   UNL     1       3.204  -8.906   6.963  0.00  0.00    +0.000 C 
ATOM     33  F   UNL     1       2.867  -9.423   8.183  0.00  0.00    +0.000 F 
ATOM     34  F   UNL     1       2.699  -9.783   6.048  0.00  0.00    +0.000 F 
ATOM     35  F   UNL     1       4.561  -9.021   6.885  0.00  0.00    +0.000 F 
ENDBRANCH  30  32
ENDBRANCH  25  26
ENDBRANCH  24  25
ENDBRANCH   4  24
TORSDOF 7
