REMARK  Name = 
REMARK  10 active torsions:
REMARK  status: ('A' for Active; 'I' for Inactive)
REMARK    1  A    between atoms: N_1  and  C_2
REMARK    2  A    between atoms: C_2  and  C_3
REMARK    3  A    between atoms: C_3  and  N_4
REMARK    4  A    between atoms: N_4  and  C_5
REMARK    5  A    between atoms: C_5  and  C_6
REMARK    6  A    between atoms: C_9  and  C_10
REMARK    7  A    between atoms: C_10  and  C_11
REMARK    8  A    between atoms: C_14  and  C_15
REMARK    9  A    between atoms: C_15  and  N_16
REMARK   10  A    between atoms: C_17  and  C_19
REMARK                            x       y       z     vdW  Elec       q    Type
REMARK                         _______ _______ _______ _____ _____    ______ ____
ROOT
ATOM      1  C   UNL     1      11.280  -3.068   1.489  0.00  0.00    +0.000 A 
ATOM      2  C   UNL     1      11.096  -3.388   0.136  0.00  0.00    +0.000 A 
ATOM      3  C   UNL     1      11.623  -4.570  -0.394  0.00  0.00    +0.000 A 
ATOM      4  C   UNL     1      12.331  -5.462   0.421  0.00  0.00    +0.000 A 
ATOM      5  C   UNL     1      12.567  -5.112   1.757  0.00  0.00    +0.000 A 
ATOM      6  C   UNL     1      12.040  -3.932   2.288  0.00  0.00    +0.000 A 
ENDROOT
BRANCH   1   7
ATOM      7  C   UNL     1      10.641  -1.834   2.083  0.00  0.00    +0.000 C 
BRANCH   7  11
ATOM      8  C   UNL     1       6.792  -2.517   3.805  0.00  0.00    +0.000 A 
ATOM      9  C   UNL     1       6.866  -2.162   2.459  0.00  0.00    +0.000 A 
ATOM     10  C   UNL     1       8.115  -1.947   1.885  0.00  0.00    +0.000 A 
ATOM     11  C   UNL     1       9.270  -2.074   2.660  0.00  0.00    +0.000 A 
ATOM     12  C   UNL     1       9.100  -2.449   3.989  0.00  0.00    +0.000 A 
ATOM     13  N   UNL     1       7.902  -2.667   4.577  0.00  0.00    +0.000 NA
BRANCH   8  14
ATOM     14  C   UNL     1       5.450  -2.818   4.436  0.00  0.00    +0.000 C 
BRANCH  14  15
ATOM     15  N   UNL     1       4.727  -3.957   3.832  0.00  0.00    +0.000 NA
ATOM     16  H   UNL     1       3.905  -4.122   4.421  0.00  0.00    +0.000 HD
BRANCH  15  17
ATOM     17  C   UNL     1       5.512  -5.205   3.890  0.00  0.00    +0.000 C 
BRANCH  17  18
ATOM     18  C   UNL     1       5.754  -5.723   5.322  0.00  0.00    +0.000 C 
BRANCH  18  19
ATOM     19  N   UNL     1       4.489  -5.865   6.054  0.00  0.00    +0.000 NA
ATOM     20  H   UNL     1       4.693  -6.209   6.992  0.00  0.00    +0.000 HD
ATOM     21  H   UNL     1       3.930  -6.589   5.603  0.00  0.00    +0.000 HD
ENDBRANCH  18  19
ENDBRANCH  17  18
ENDBRANCH  15  17
ENDBRANCH  14  15
ENDBRANCH   8  14
ENDBRANCH   7  11
ENDBRANCH   1   7
BRANCH   4  22
ATOM     22  C   UNL     1      12.835  -6.772  -0.122  0.00  0.00    +0.000 C 
BRANCH  22  23
ATOM     23  N   UNL     1      14.164  -6.647  -0.659  0.00  0.00    +0.000 N 
ATOM     24  C   UNL     1      14.778  -7.708  -1.275  0.00  0.00    +0.000 C 
ATOM     25  O   UNL     1      14.207  -8.782  -1.445  0.00  0.00    +0.000 OA
ATOM     26  H   UNL     1      14.722  -5.868  -0.326  0.00  0.00    +0.000 HD
BRANCH  24  27
ATOM     27  C   UNL     1      16.136  -7.474  -1.779  0.00  0.00    +0.000 A 
ATOM     28  C   UNL     1      16.639  -8.277  -2.794  0.00  0.00    +0.000 A 
ATOM     29  S   UNL     1      18.203  -7.831  -3.307  0.00  0.00    +0.000 S 
ATOM     30  C   UNL     1      18.284  -6.583  -2.152  0.00  0.00    +0.000 A 
ATOM     31  N   UNL     1      19.394  -5.806  -2.042  0.00  0.00    +0.000 NA
ATOM     32  C   UNL     1      19.332  -4.921  -1.104  0.00  0.00    +0.000 A 
ATOM     33  N   UNL     1      18.263  -4.742  -0.266  0.00  0.00    +0.000 N 
ATOM     34  C   UNL     1      17.110  -5.488  -0.357  0.00  0.00    +0.000 A 
ATOM     35  O   UNL     1      16.157  -5.277   0.387  0.00  0.00    +0.000 OA
ATOM     36  C   UNL     1      17.130  -6.501  -1.394  0.00  0.00    +0.000 A 
ATOM     37  H   UNL     1      18.277  -4.027   0.447  0.00  0.00    +0.000 HD
ENDBRANCH  24  27
ENDBRANCH  22  23
ENDBRANCH   4  22
TORSDOF 10
