REMARK  Name = 
REMARK  7 active torsions:
REMARK  status: ('A' for Active; 'I' for Inactive)
REMARK    1  A    between atoms: C_2  and  C_20
REMARK    2  A    between atoms: N_3  and  C_4
REMARK    3  A    between atoms: C_4  and  C_5
REMARK    4  A    between atoms: C_8  and  C_9
REMARK    5  A    between atoms: C_9  and  N_10
REMARK    6  A    between atoms: N_10  and  C_11
REMARK    7  A    between atoms: C_11  and  C_12
REMARK                            x       y       z     vdW  Elec       q    Type
REMARK                         _______ _______ _______ _____ _____    ______ ____
ROOT
ATOM      1  C   UNL     1       2.284   2.142  -1.137  0.00  0.00    +0.000 C 
ENDROOT
BRANCH   1   2
ATOM      2  C   UNL     1       3.218   3.180  -1.705  0.00  0.00    +0.000 A 
ATOM      3  C   UNL     1       2.849   4.532  -1.690  0.00  0.00    +0.000 A 
ATOM      4  C   UNL     1       3.719   5.516  -2.164  0.00  0.00    +0.000 A 
ATOM      5  C   UNL     1       4.984   5.174  -2.663  0.00  0.00    +0.000 A 
ATOM      6  C   UNL     1       5.349   3.822  -2.690  0.00  0.00    +0.000 A 
ATOM      7  C   UNL     1       4.467   2.832  -2.237  0.00  0.00    +0.000 A 
BRANCH   5   8
ATOM      8  C   UNL     1       5.911   6.235  -3.212  0.00  0.00    +0.000 C 
BRANCH   8   9
ATOM      9  N   UNL     1       6.229   7.246  -2.204  0.00  0.00    +0.000 NA
ATOM     10  H   UNL     1       6.669   6.788  -1.406  0.00  0.00    +0.000 HD
BRANCH   9  11
ATOM     11  C   UNL     1       7.134   8.265  -2.731  0.00  0.00    +0.000 C 
BRANCH  11  12
ATOM     12  C   UNL     1       7.454   9.294  -1.674  0.00  0.00    +0.000 A 
ATOM     13  C   UNL     1       8.766   9.497  -1.248  0.00  0.00    +0.000 A 
ATOM     14  C   UNL     1       9.009  10.443  -0.261  0.00  0.00    +0.000 A 
ATOM     15  N   UNL     1       8.044  11.192   0.318  0.00  0.00    +0.000 NA
ATOM     16  C   UNL     1       6.783  10.982  -0.110  0.00  0.00    +0.000 A 
ATOM     17  C   UNL     1       6.439  10.068  -1.094  0.00  0.00    +0.000 A 
ENDBRANCH  11  12
ENDBRANCH   9  11
ENDBRANCH   8   9
ENDBRANCH   5   8
ENDBRANCH   1   2
BRANCH   1  20
ATOM     18  O   UNL     1      -0.284   3.174  -1.750  0.00  0.00    +0.000 OA
ATOM     19  C   UNL     1       0.156   2.223  -2.388  0.00  0.00    +0.000 C 
ATOM     20  N   UNL     1       1.360   1.626  -2.113  0.00  0.00    +0.000 N 
ATOM     21  H   UNL     1       1.732   0.940  -2.758  0.00  0.00    +0.000 HD
BRANCH  19  22
ATOM     22  C   UNL     1      -0.617   1.598  -3.464  0.00  0.00    +0.000 A 
ATOM     23  C   UNL     1      -2.004   1.633  -3.460  0.00  0.00    +0.000 A 
ATOM     24  S   UNL     1      -2.703   0.795  -4.776  0.00  0.00    +0.000 S 
ATOM     25  C   UNL     1      -1.175   0.403  -5.412  0.00  0.00    +0.000 A 
ATOM     26  N   UNL     1      -1.052  -0.321  -6.557  0.00  0.00    +0.000 NA
ATOM     27  C   UNL     1       0.171  -0.502  -6.945  0.00  0.00    +0.000 A 
ATOM     28  N   UNL     1       1.274  -0.023  -6.294  0.00  0.00    +0.000 N 
ATOM     29  C   UNL     1       1.202   0.649  -5.102  0.00  0.00    +0.000 A 
ATOM     30  O   UNL     1       2.220   0.949  -4.488  0.00  0.00    +0.000 OA
ATOM     31  C   UNL     1      -0.146   0.902  -4.637  0.00  0.00    +0.000 A 
ATOM     32  H   UNL     1       2.207  -0.220  -6.634  0.00  0.00    +0.000 HD
ENDBRANCH  19  22
ENDBRANCH   1  20
TORSDOF 7
