REMARK  Name = 
REMARK  5 active torsions:
REMARK  status: ('A' for Active; 'I' for Inactive)
REMARK    1  A    between atoms: N_1  and  C_2
REMARK    2  A    between atoms: C_2  and  C_3
REMARK    3  A    between atoms: C_6  and  C_7
REMARK    4  A    between atoms: C_7  and  N_8
REMARK    5  A    between atoms: C_11  and  C_12
REMARK                            x       y       z     vdW  Elec       q    Type
REMARK                         _______ _______ _______ _____ _____    ______ ____
ROOT
ATOM      1  N   UNL     1       2.992   6.153  -2.176  0.00  0.00    +0.000 N 
ATOM      2  C   UNL     1       3.324   7.393  -2.750  0.00  0.00    +0.000 A 
ATOM      3  C   UNL     1       2.449   8.462  -2.600  0.00  0.00    +0.000 A 
ATOM      4  C   UNL     1       2.765   9.698  -3.180  0.00  0.00    +0.000 A 
ATOM      5  C   UNL     1       3.948   9.827  -3.901  0.00  0.00    +0.000 A 
ATOM      6  C   UNL     1       4.753   8.713  -4.013  0.00  0.00    +0.000 A 
ATOM      7  N   UNL     1       4.461   7.518  -3.464  0.00  0.00    +0.000 NA
ATOM      8  H   UNL     1       2.813   6.274  -1.183  0.00  0.00    +0.000 HD
ENDROOT
BRANCH   4   9
ATOM      9  C   UNL     1       1.810  10.825  -2.995  0.00  0.00    +0.000 C 
ATOM     10  N   UNL     1       2.106  12.039  -3.550  0.00  0.00    +0.000 N 
ATOM     11  O   UNL     1       0.774  10.683  -2.353  0.00  0.00    +0.000 OA
ATOM     12  H   UNL     1       2.924  12.260  -4.090  0.00  0.00    +0.000 HD
ATOM     13  H   UNL     1       1.429  12.779  -3.401  0.00  0.00    +0.000 HD
ENDBRANCH   4   9
BRANCH   1  14
ATOM     14  C   UNL     1       3.992   5.121  -2.426  0.00  0.00    +0.000 C 
BRANCH  14  18
ATOM     15  C   UNL     1       3.075   1.364  -0.469  0.00  0.00    +0.000 A 
ATOM     16  C   UNL     1       2.582   1.642  -1.752  0.00  0.00    +0.000 A 
ATOM     17  C   UNL     1       2.851   2.864  -2.372  0.00  0.00    +0.000 A 
ATOM     18  C   UNL     1       3.625   3.835  -1.723  0.00  0.00    +0.000 A 
ATOM     19  C   UNL     1       4.083   3.576  -0.424  0.00  0.00    +0.000 A 
ATOM     20  C   UNL     1       3.814   2.352   0.196  0.00  0.00    +0.000 A 
BRANCH  15  21
ATOM     21  C   UNL     1       2.805   0.031   0.182  0.00  0.00    +0.000 C 
BRANCH  21  22
ATOM     22  N   UNL     1       3.334  -1.072  -0.614  0.00  0.00    +0.000 NA
ATOM     23  H   UNL     1       3.212  -1.943  -0.103  0.00  0.00    +0.000 HD
ATOM     24  H   UNL     1       4.338  -0.940  -0.729  0.00  0.00    +0.000 HD
ENDBRANCH  21  22
ENDBRANCH  15  21
ENDBRANCH  14  18
ENDBRANCH   1  14
TORSDOF 5
