REMARK  Name = 
REMARK  6 active torsions:
REMARK  status: ('A' for Active; 'I' for Inactive)
REMARK    1  A    between atoms: C_1  and  C_2
REMARK    2  A    between atoms: C_4  and  C_5
REMARK    3  A    between atoms: C_10  and  N_11
REMARK    4  A    between atoms: N_11  and  C_12
REMARK    5  A    between atoms: C_12  and  C_13
REMARK    6  A    between atoms: C_17  and  C_18
REMARK                            x       y       z     vdW  Elec       q    Type
REMARK                         _______ _______ _______ _____ _____    ______ ____
ROOT
ATOM      1  N   UNL     1       0.800  -2.451  -0.189  0.00  0.00    +0.000 N 
ATOM      2  H   UNL     1       0.330  -2.689   0.676  0.00  0.00    +0.000 HD
ENDROOT
BRANCH   1   9
ATOM      3  C   UNL     1      -2.063  -1.831  -0.136  0.00  0.00    +0.000 C 
ATOM      4  C   UNL     1      -1.017  -0.936  -0.740  0.00  0.00    +0.000 A 
ATOM      5  C   UNL     1      -1.435   0.247  -1.380  0.00  0.00    +0.000 A 
ATOM      6  C   UNL     1      -0.510   1.099  -1.973  0.00  0.00    +0.000 A 
ATOM      7  C   UNL     1       0.816   0.730  -1.883  0.00  0.00    +0.000 A 
ATOM      8  N   UNL     1       1.253  -0.395  -1.267  0.00  0.00    +0.000 NA
ATOM      9  C   UNL     1       0.350  -1.228  -0.701  0.00  0.00    +0.000 A 
BRANCH   6  10
ATOM     10  C   UNL     1      -0.990   2.323  -2.658  0.00  0.00    +0.000 C 
ATOM     11  N   UNL     1      -0.085   3.156  -3.251  0.00  0.00    +0.000 N 
ATOM     12  O   UNL     1      -2.185   2.595  -2.699  0.00  0.00    +0.000 OA
ATOM     13  H   UNL     1       0.912   3.020  -3.295  0.00  0.00    +0.000 HD
ATOM     14  H   UNL     1      -0.466   3.973  -3.713  0.00  0.00    +0.000 HD
ENDBRANCH   6  10
ENDBRANCH   1   9
BRANCH   1  15
ATOM     15  C   UNL     1       2.250  -2.579  -0.060  0.00  0.00    +0.000 C 
BRANCH  15  16
ATOM     16  C   UNL     1       2.635  -4.040   0.013  0.00  0.00    +0.000 A 
ATOM     17  C   UNL     1       2.251  -4.910  -1.015  0.00  0.00    +0.000 A 
ATOM     18  C   UNL     1       2.670  -6.236  -1.010  0.00  0.00    +0.000 A 
ATOM     19  C   UNL     1       3.507  -6.699   0.007  0.00  0.00    +0.000 A 
ATOM     20  C   UNL     1       3.967  -5.845   1.027  0.00  0.00    +0.000 A 
ATOM     21  C   UNL     1       3.485  -4.519   1.025  0.00  0.00    +0.000 A 
BRANCH  20  22
ATOM     22  C   UNL     1       5.010  -6.280   1.989  0.00  0.00    +0.000 A 
ATOM     23  C   UNL     1       6.030  -7.166   1.588  0.00  0.00    +0.000 A 
ATOM     24  C   UNL     1       7.095  -7.491   2.433  0.00  0.00    +0.000 A 
ATOM     25  C   UNL     1       7.169  -6.932   3.702  0.00  0.00    +0.000 A 
ATOM     26  C   UNL     1       6.162  -6.076   4.138  0.00  0.00    +0.000 A 
ATOM     27  C   UNL     1       5.089  -5.765   3.295  0.00  0.00    +0.000 A 
ENDBRANCH  20  22
ENDBRANCH  15  16
ENDBRANCH   1  15
TORSDOF 5
