REMARK  Name = 
REMARK  7 active torsions:
REMARK  status: ('A' for Active; 'I' for Inactive)
REMARK    1  A    between atoms: C_1  and  C_2
REMARK    2  A    between atoms: C_2  and  C_3
REMARK    3  A    between atoms: C_2  and  C_4
REMARK    4  A    between atoms: C_2  and  C_5
REMARK    5  A    between atoms: C_9  and  C_10
REMARK    6  A    between atoms: N_16  and  C_17
REMARK    7  A    between atoms: C_17  and  C_18
REMARK                            x       y       z     vdW  Elec       q    Type
REMARK                         _______ _______ _______ _____ _____    ______ ____
ROOT
ATOM      1  C   UNL     1       3.000   0.170   1.431  0.00  0.00    +0.000 A 
ATOM      2  N   UNL     1       3.031   1.399   1.942  0.00  0.00    +0.000 NA
ATOM      3  C   UNL     1       3.524   1.293   3.209  0.00  0.00    +0.000 A 
ATOM      4  C   UNL     1       3.732   2.267   4.197  0.00  0.00    +0.000 A 
ATOM      5  C   UNL     1       4.238   1.825   5.423  0.00  0.00    +0.000 A 
ATOM      6  C   UNL     1       4.513   0.463   5.587  0.00  0.00    +0.000 A 
ATOM      7  N   UNL     1       4.319  -0.512   4.656  0.00  0.00    +0.000 NA
ATOM      8  C   UNL     1       3.828  -0.025   3.502  0.00  0.00    +0.000 A 
ATOM      9  N   UNL     1       3.452  -0.740   2.382  0.00  0.00    +0.000 N 
ENDROOT
BRANCH   5  10
ATOM     10  C   UNL     1       4.491   2.725   6.578  0.00  0.00    +0.000 C 
ATOM     11  N   UNL     1       4.202   4.053   6.452  0.00  0.00    +0.000 N 
ATOM     12  O   UNL     1       4.941   2.289   7.631  0.00  0.00    +0.000 OA
ATOM     13  H   UNL     1       3.820   4.497   5.632  0.00  0.00    +0.000 HD
ATOM     14  H   UNL     1       4.375   4.637   7.262  0.00  0.00    +0.000 HD
ENDBRANCH   5  10
BRANCH   1  16
ATOM     15  C   UNL     1       2.080   1.224  -0.647  0.00  0.00    +0.000 C 
ATOM     16  C   UNL     1       2.553  -0.107  -0.005  0.00  0.00    +0.000 C 
ATOM     17  C   UNL     1       1.361  -1.066  -0.096  0.00  0.00    +0.000 C 
ATOM     18  C   UNL     1       3.722  -0.632  -0.855  0.00  0.00    +0.000 C 
ENDBRANCH   1  16
BRANCH   9  19
ATOM     19  C   UNL     1       3.506  -2.195   2.346  0.00  0.00    +0.000 C 
BRANCH  19  20
ATOM     20  C   UNL     1       2.175  -2.832   2.678  0.00  0.00    +0.000 A 
ATOM     21  C   UNL     1       1.342  -2.334   3.680  0.00  0.00    +0.000 A 
ATOM     22  C   UNL     1       0.056  -2.849   3.809  0.00  0.00    +0.000 A 
ATOM     23  C   UNL     1      -0.355  -3.874   2.969  0.00  0.00    +0.000 A 
ATOM     24  C   UNL     1       0.555  -4.371   2.055  0.00  0.00    +0.000 A 
ATOM     25  N   UNL     1       1.806  -3.883   1.899  0.00  0.00    +0.000 NA
ENDBRANCH  19  20
ENDBRANCH   9  19
TORSDOF 4
