REMARK  Name = 
REMARK  6 active torsions:
REMARK  status: ('A' for Active; 'I' for Inactive)
REMARK    1  A    between atoms: C_2  and  C_25
REMARK    2  A    between atoms: N_3  and  C_4
REMARK    3  A    between atoms: C_4  and  C_5
REMARK    4  A    between atoms: C_8  and  C_9
REMARK    5  A    between atoms: C_9  and  N_10
REMARK    6  A    between atoms: C_11  and  C_13
REMARK                            x       y       z     vdW  Elec       q    Type
REMARK                         _______ _______ _______ _____ _____    ______ ____
ROOT
ATOM      1  C   UNL     1       3.398   1.121  -3.472  0.00  0.00    +0.000 A 
ATOM      2  C   UNL     1       3.511   2.453  -3.854  0.00  0.00    +0.000 A 
ATOM      3  C   UNL     1       4.360   2.783  -4.907  0.00  0.00    +0.000 A 
ATOM      4  C   UNL     1       5.085   1.781  -5.553  0.00  0.00    +0.000 A 
ATOM      5  C   UNL     1       4.884   0.474  -5.127  0.00  0.00    +0.000 A 
ATOM      6  N   UNL     1       4.060   0.121  -4.111  0.00  0.00    +0.000 NA
ENDROOT
BRANCH   1   7
ATOM      7  C   UNL     1       2.472   0.728  -2.345  0.00  0.00    +0.000 C 
BRANCH   7  10
ATOM      8  O   UNL     1       0.360   2.582  -2.461  0.00  0.00    +0.000 OA
ATOM      9  C   UNL     1       0.166   1.437  -2.858  0.00  0.00    +0.000 C 
ATOM     10  N   UNL     1       1.132   0.464  -2.818  0.00  0.00    +0.000 N 
ATOM     11  H   UNL     1       1.004  -0.375  -3.365  0.00  0.00    +0.000 HD
BRANCH   9  12
ATOM     12  C   UNL     1      -1.100   1.017  -3.416  0.00  0.00    +0.000 A 
ATOM     13  C   UNL     1      -1.577  -0.225  -3.808  0.00  0.00    +0.000 A 
ATOM     14  C   UNL     1      -2.911  -0.066  -4.256  0.00  0.00    +0.000 A 
ATOM     15  C   UNL     1      -3.225   1.267  -4.134  0.00  0.00    +0.000 A 
ATOM     16  N   UNL     1      -2.131   1.911  -3.621  0.00  0.00    +0.000 N 
ATOM     17  H   UNL     1      -2.066   2.899  -3.405  0.00  0.00    +0.000 HD
ENDBRANCH   9  12
ENDBRANCH   7  10
ENDBRANCH   1   7
BRANCH   4  18
ATOM     18  C   UNL     1       6.005   2.095  -6.695  0.00  0.00    +0.000 C 
BRANCH  18  19
ATOM     19  N   UNL     1       5.307   2.046  -7.954  0.00  0.00    +0.000 N 
ATOM     20  C   UNL     1       5.980   2.158  -9.143  0.00  0.00    +0.000 C 
ATOM     21  O   UNL     1       7.204   2.251  -9.189  0.00  0.00    +0.000 OA
ATOM     22  H   UNL     1       4.306   2.212  -7.934  0.00  0.00    +0.000 HD
BRANCH  20  23
ATOM     23  C   UNL     1       5.169   2.097 -10.365  0.00  0.00    +0.000 A 
ATOM     24  C   UNL     1       5.763   1.736 -11.567  0.00  0.00    +0.000 A 
ATOM     25  S   UNL     1       4.671   1.653 -12.874  0.00  0.00    +0.000 S 
ATOM     26  C   UNL     1       3.374   2.149 -11.892  0.00  0.00    +0.000 A 
ATOM     27  N   UNL     1       2.125   2.304 -12.408  0.00  0.00    +0.000 NA
ATOM     28  C   UNL     1       1.243   2.718 -11.560  0.00  0.00    +0.000 A 
ATOM     29  N   UNL     1       1.497   2.986 -10.240  0.00  0.00    +0.000 N 
ATOM     30  C   UNL     1       2.735   2.816  -9.668  0.00  0.00    +0.000 A 
ATOM     31  O   UNL     1       2.922   3.033  -8.475  0.00  0.00    +0.000 OA
ATOM     32  C   UNL     1       3.766   2.362 -10.582  0.00  0.00    +0.000 A 
ATOM     33  H   UNL     1       0.762   3.303  -9.627  0.00  0.00    +0.000 HD
ENDBRANCH  20  23
ENDBRANCH  18  19
ENDBRANCH   4  18
TORSDOF 6
