REMARK  Name = 
REMARK  6 active torsions:
REMARK  status: ('A' for Active; 'I' for Inactive)
REMARK    1  A    between atoms: C_2  and  C_25
REMARK    2  A    between atoms: N_3  and  C_4
REMARK    3  A    between atoms: C_4  and  C_5
REMARK    4  A    between atoms: C_8  and  C_9
REMARK    5  A    between atoms: C_9  and  N_10
REMARK    6  A    between atoms: C_11  and  C_13
REMARK                            x       y       z     vdW  Elec       q    Type
REMARK                         _______ _______ _______ _____ _____    ______ ____
ROOT
ATOM      1  C   UNL     1       3.210   0.801   3.443  0.00  0.00    +0.000 A 
ATOM      2  C   UNL     1       3.436   2.123   3.829  0.00  0.00    +0.000 A 
ATOM      3  C   UNL     1       4.309   2.400   4.879  0.00  0.00    +0.000 A 
ATOM      4  C   UNL     1       4.925   1.341   5.541  0.00  0.00    +0.000 A 
ATOM      5  N   UNL     1       4.732   0.048   5.174  0.00  0.00    +0.000 NA
ATOM      6  C   UNL     1       3.886  -0.190   4.144  0.00  0.00    +0.000 A 
ENDROOT
BRANCH   1   7
ATOM      7  C   UNL     1       2.273   0.465   2.326  0.00  0.00    +0.000 C 
BRANCH   7  10
ATOM      8  O   UNL     1       0.149  -0.181   0.662  0.00  0.00    +0.000 OA
ATOM      9  C   UNL     1      -0.066  -0.065   1.865  0.00  0.00    +0.000 C 
ATOM     10  N   UNL     1       0.918   0.262   2.775  0.00  0.00    +0.000 N 
ATOM     11  H   UNL     1       0.650   0.370   3.749  0.00  0.00    +0.000 HD
BRANCH   9  12
ATOM     12  C   UNL     1      -1.437  -0.278   2.427  0.00  0.00    +0.000 A 
ATOM     13  C   UNL     1      -2.465  -0.642   1.563  0.00  0.00    +0.000 A 
ATOM     14  C   UNL     1      -3.739  -0.820   2.089  0.00  0.00    +0.000 A 
ATOM     15  C   UNL     1      -3.943  -0.621   3.450  0.00  0.00    +0.000 A 
ATOM     16  C   UNL     1      -2.856  -0.264   4.238  0.00  0.00    +0.000 A 
ATOM     17  N   UNL     1      -1.600  -0.091   3.766  0.00  0.00    +0.000 NA
ENDBRANCH   9  12
ENDBRANCH   7  10
ENDBRANCH   1   7
BRANCH   4  18
ATOM     18  C   UNL     1       5.834   1.599   6.719  0.00  0.00    +0.000 C 
BRANCH  18  19
ATOM     19  N   UNL     1       7.217   1.756   6.336  0.00  0.00    +0.000 N 
ATOM     20  C   UNL     1       7.795   2.980   6.130  0.00  0.00    +0.000 C 
ATOM     21  O   UNL     1       7.167   4.029   6.240  0.00  0.00    +0.000 OA
ATOM     22  H   UNL     1       7.665   0.924   5.964  0.00  0.00    +0.000 HD
BRANCH  20  23
ATOM     23  C   UNL     1       9.235   2.971   5.844  0.00  0.00    +0.000 A 
ATOM     24  C   UNL     1      10.015   4.072   6.171  0.00  0.00    +0.000 A 
ATOM     25  S   UNL     1      11.665   3.878   5.783  0.00  0.00    +0.000 S 
ATOM     26  C   UNL     1      11.387   2.330   5.132  0.00  0.00    +0.000 A 
ATOM     27  N   UNL     1      12.402   1.607   4.579  0.00  0.00    +0.000 NA
ATOM     28  C   UNL     1      12.039   0.465   4.097  0.00  0.00    +0.000 A 
ATOM     29  N   UNL     1      10.762  -0.028   4.134  0.00  0.00    +0.000 N 
ATOM     30  C   UNL     1       9.721   0.638   4.732  0.00  0.00    +0.000 A 
ATOM     31  O   UNL     1       8.617   0.123   4.836  0.00  0.00    +0.000 OA
ATOM     32  C   UNL     1      10.064   1.953   5.243  0.00  0.00    +0.000 A 
ATOM     33  H   UNL     1      10.545  -0.942   3.760  0.00  0.00    +0.000 HD
ENDBRANCH  20  23
ENDBRANCH  18  19
ENDBRANCH   4  18
TORSDOF 6
