REMARK  Name = 
REMARK  10 active torsions:
REMARK  status: ('A' for Active; 'I' for Inactive)
REMARK    1  A    between atoms: C_1  and  O_2
REMARK    2  A    between atoms: O_2  and  C_3
REMARK    3  A    between atoms: C_10  and  C_11
REMARK    4  A    between atoms: N_13  and  C_14
REMARK    5  A    between atoms: C_14  and  C_15
REMARK    6  A    between atoms: C_18  and  C_19
REMARK    7  A    between atoms: C_19  and  N_20
REMARK    8  A    between atoms: N_20  and  C_21
REMARK    9  A    between atoms: C_21  and  C_22
REMARK   10  A    between atoms: C_24  and  C_25
REMARK                            x       y       z     vdW  Elec       q    Type
REMARK                         _______ _______ _______ _____ _____    ______ ____
ROOT
ATOM      1  C   UNL     1       1.757   3.265   1.221  0.00  0.00    +0.000 A 
ATOM      2  C   UNL     1       0.748   2.342   0.919  0.00  0.00    +0.000 A 
ATOM      3  C   UNL     1      -0.361   2.722   0.155  0.00  0.00    +0.000 A 
ATOM      4  C   UNL     1      -0.486   4.033  -0.328  0.00  0.00    +0.000 A 
ATOM      5  C   UNL     1       0.514   4.961  -0.006  0.00  0.00    +0.000 A 
ATOM      6  C   UNL     1       1.626   4.580   0.756  0.00  0.00    +0.000 A 
ENDROOT
BRANCH   1   7
ATOM      7  C   UNL     1       2.980   2.834   1.989  0.00  0.00    +0.000 C 
BRANCH   7  10
ATOM      8  C   UNL     1       5.180   1.814   1.609  0.00  0.00    +0.000 C 
ATOM      9  O   UNL     1       5.409   1.834   2.817  0.00  0.00    +0.000 OA
ATOM     10  N   UNL     1       3.999   2.302   1.112  0.00  0.00    +0.000 N 
ATOM     11  H   UNL     1       3.804   2.265   0.120  0.00  0.00    +0.000 HD
BRANCH   8  19
ATOM     12  C   UNL     1       5.241   1.425  -1.823  0.00  0.00    +0.000 A 
ATOM     13  N   UNL     1       5.517   1.127  -3.110  0.00  0.00    +0.000 NA
ATOM     14  C   UNL     1       6.686   0.544  -3.387  0.00  0.00    +0.000 A 
ATOM     15  N   UNL     1       7.638   0.216  -2.520  0.00  0.00    +0.000 NA
ATOM     16  C   UNL     1       7.319   0.519  -1.249  0.00  0.00    +0.000 A 
ATOM     17  S   UNL     1       8.426   0.172  -0.009  0.00  0.00    +0.000 S 
ATOM     18  C   UNL     1       7.367   0.787   1.168  0.00  0.00    +0.000 A 
ATOM     19  C   UNL     1       6.165   1.267   0.659  0.00  0.00    +0.000 A 
ATOM     20  C   UNL     1       6.145   1.111  -0.794  0.00  0.00    +0.000 A 
BRANCH  12  22
ATOM     21  C   UNL     1       3.523   2.768  -2.648  0.00  0.00    +0.000 C 
ATOM     22  O   UNL     1       4.033   2.028  -1.540  0.00  0.00    +0.000 OA
ENDBRANCH  12  22
ENDBRANCH   8  19
ENDBRANCH   7  10
ENDBRANCH   1   7
BRANCH   4  23
ATOM     23  C   UNL     1      -1.650   4.419  -1.216  0.00  0.00    +0.000 C 
BRANCH  23  24
ATOM     24  N   UNL     1      -2.929   4.218  -0.541  0.00  0.00    +0.000 NA
ATOM     25  H   UNL     1      -2.963   4.816   0.284  0.00  0.00    +0.000 HD
BRANCH  24  26
ATOM     26  C   UNL     1      -4.055   4.583  -1.414  0.00  0.00    +0.000 C 
BRANCH  26  27
ATOM     27  C   UNL     1      -5.393   4.379  -0.725  0.00  0.00    +0.000 A 
ATOM     28  C   UNL     1      -5.752   3.112  -0.262  0.00  0.00    +0.000 A 
ATOM     29  C   UNL     1      -6.970   2.942   0.397  0.00  0.00    +0.000 A 
ATOM     30  C   UNL     1      -7.382   1.602   0.930  0.00  0.00    +0.000 C 
ATOM     31  C   UNL     1      -7.801   4.050   0.553  0.00  0.00    +0.000 A 
ATOM     32  C   UNL     1      -7.375   5.273   0.057  0.00  0.00    +0.000 A 
ATOM     33  N   UNL     1      -6.194   5.464  -0.573  0.00  0.00    +0.000 NA
ENDBRANCH  26  27
ENDBRANCH  24  26
ENDBRANCH  23  24
ENDBRANCH   4  23
TORSDOF 8
