REMARK  Name = 
REMARK  8 active torsions:
REMARK  status: ('A' for Active; 'I' for Inactive)
REMARK    1  A    between atoms: C_1  and  C_2
REMARK    2  A    between atoms: C_2  and  N_3
REMARK    3  A    between atoms: C_2  and  C_25
REMARK    4  A    between atoms: N_3  and  C_4
REMARK    5  A    between atoms: C_4  and  C_5
REMARK    6  A    between atoms: C_8  and  C_9
REMARK    7  A    between atoms: C_9  and  N_10
REMARK    8  A    between atoms: C_11  and  C_13
REMARK                            x       y       z     vdW  Elec       q    Type
REMARK                         _______ _______ _______ _____ _____    ______ ____
ROOT
ATOM      1  C   UNL     1      -0.981  -0.870  -0.852  0.00  0.00    +0.000 A 
ATOM      2  C   UNL     1      -1.587  -1.603  -1.882  0.00  0.00    +0.000 A 
ATOM      3  C   UNL     1      -2.955  -1.892  -1.841  0.00  0.00    +0.000 A 
ATOM      4  C   UNL     1      -3.747  -1.441  -0.776  0.00  0.00    +0.000 A 
ATOM      5  C   UNL     1      -3.137  -0.721   0.260  0.00  0.00    +0.000 A 
ATOM      6  C   UNL     1      -1.773  -0.435   0.220  0.00  0.00    +0.000 A 
ENDROOT
BRANCH   1   7
ATOM      7  C   UNL     1       0.520  -0.734  -0.777  0.00  0.00    +0.000 C 
BRANCH   7   8
ATOM      8  N   UNL     1       1.160  -0.239  -2.003  0.00  0.00    +0.000 NA
ATOM      9  H   UNL     1       0.867   0.725  -2.151  0.00  0.00    +0.000 HD
BRANCH   8  11
ATOM     10  C   UNL     1       3.149  -1.711  -1.676  0.00  0.00    +0.000 C 
ATOM     11  C   UNL     1       2.631  -0.272  -1.889  0.00  0.00    +0.000 C 
BRANCH  11  12
ATOM     12  C   UNL     1       3.325   0.317  -3.118  0.00  0.00    +0.000 A 
ATOM     13  C   UNL     1       4.172   1.435  -2.997  0.00  0.00    +0.000 A 
ATOM     14  C   UNL     1       4.952   1.855  -4.082  0.00  0.00    +0.000 A 
ATOM     15  C   UNL     1       4.902   1.170  -5.293  0.00  0.00    +0.000 A 
ATOM     16  C   UNL     1       4.029   0.095  -5.441  0.00  0.00    +0.000 A 
ATOM     17  C   UNL     1       3.233  -0.311  -4.369  0.00  0.00    +0.000 A 
ENDBRANCH  11  12
ENDBRANCH   8  11
ENDBRANCH   7   8
ENDBRANCH   1   7
BRANCH   4  18
ATOM     18  C   UNL     1      -5.215  -1.763  -0.705  0.00  0.00    +0.000 C 
BRANCH  18  19
ATOM     19  N   UNL     1      -5.451  -2.997  -0.000  0.00  0.00    +0.000 N 
ATOM     20  C   UNL     1      -6.719  -3.497   0.140  0.00  0.00    +0.000 C 
ATOM     21  O   UNL     1      -7.699  -2.942  -0.348  0.00  0.00    +0.000 OA
ATOM     22  H   UNL     1      -4.709  -3.333   0.605  0.00  0.00    +0.000 HD
BRANCH  20  23
ATOM     23  C   UNL     1      -6.841  -4.775   0.849  0.00  0.00    +0.000 A 
ATOM     24  C   UNL     1      -7.931  -5.599   0.603  0.00  0.00    +0.000 A 
ATOM     25  S   UNL     1      -7.885  -7.071   1.464  0.00  0.00    +0.000 S 
ATOM     26  C   UNL     1      -6.435  -6.633   2.237  0.00  0.00    +0.000 A 
ATOM     27  N   UNL     1      -5.852  -7.463   3.146  0.00  0.00    +0.000 NA
ATOM     28  C   UNL     1      -4.774  -6.991   3.682  0.00  0.00    +0.000 A 
ATOM     29  N   UNL     1      -4.225  -5.772   3.389  0.00  0.00    +0.000 N 
ATOM     30  C   UNL     1      -4.760  -4.912   2.456  0.00  0.00    +0.000 A 
ATOM     31  O   UNL     1      -4.223  -3.850   2.188  0.00  0.00    +0.000 OA
ATOM     32  C   UNL     1      -5.980  -5.392   1.835  0.00  0.00    +0.000 A 
ATOM     33  H   UNL     1      -3.376  -5.468   3.837  0.00  0.00    +0.000 HD
ENDBRANCH  20  23
ENDBRANCH  18  19
ENDBRANCH   4  18
TORSDOF 7
