REMARK  Name = 
REMARK  7 active torsions:
REMARK  status: ('A' for Active; 'I' for Inactive)
REMARK    1  A    between atoms: C_1  and  O_2
REMARK    2  A    between atoms: O_2  and  C_3
REMARK    3  A    between atoms: C_3  and  C_5
REMARK    4  A    between atoms: N_9  and  C_10
REMARK    5  A    between atoms: C_10  and  C_11
REMARK    6  A    between atoms: C_14  and  C_15
REMARK    7  A    between atoms: C_15  and  N_16
REMARK                            x       y       z     vdW  Elec       q    Type
REMARK                         _______ _______ _______ _____ _____    ______ ____
ROOT
ATOM      1  C   UNL     1       4.543  -0.956   0.271  0.00  0.00    +0.000 A 
ATOM      2  C   UNL     1       5.247   0.056   0.877  0.00  0.00    +0.000 A 
ATOM      3  N   UNL     1       6.600   0.086   0.954  0.00  0.00    +0.000 NA
ATOM      4  C   UNL     1       7.274  -0.930   0.392  0.00  0.00    +0.000 A 
ATOM      5  N   UNL     1       8.652  -0.823   0.427  0.00  0.00    +0.000 N 
ATOM      6  N   UNL     1       6.678  -1.972  -0.201  0.00  0.00    +0.000 NA
ATOM      7  C   UNL     1       5.323  -1.961  -0.255  0.00  0.00    +0.000 A 
ATOM      8  H   UNL     1       8.895  -0.152   1.144  0.00  0.00    +0.000 HD
ENDROOT
BRANCH   1   9
ATOM      9  C   UNL     1       3.075  -0.932   0.215  0.00  0.00    +0.000 C 
ATOM     10  O   UNL     1       2.394  -0.027   0.665  0.00  0.00    +0.000 OA
BRANCH   9  12
ATOM     11  C   UNL     1       1.199  -2.175  -0.457  0.00  0.00    +0.000 C 
ATOM     12  O   UNL     1       2.621  -2.059  -0.388  0.00  0.00    +0.000 OA
ENDBRANCH   9  12
ENDBRANCH   1   9
BRANCH   5  13
ATOM     13  C   UNL     1       9.406  -2.059   0.444  0.00  0.00    +0.000 C 
BRANCH  13  14
ATOM     14  C   UNL     1      10.891  -1.748   0.488  0.00  0.00    +0.000 A 
ATOM     15  C   UNL     1      11.704  -2.207   1.535  0.00  0.00    +0.000 A 
ATOM     16  C   UNL     1      13.080  -1.939   1.544  0.00  0.00    +0.000 A 
ATOM     17  C   UNL     1      13.675  -1.200   0.512  0.00  0.00    +0.000 A 
ATOM     18  C   UNL     1      12.862  -0.738  -0.531  0.00  0.00    +0.000 A 
ATOM     19  C   UNL     1      11.490  -1.012  -0.545  0.00  0.00    +0.000 A 
BRANCH  17  20
ATOM     20  C   UNL     1      15.148  -0.870   0.540  0.00  0.00    +0.000 C 
BRANCH  20  21
ATOM     21  N   UNL     1      15.853  -1.385  -0.629  0.00  0.00    +0.000 NA
ATOM     22  H   UNL     1      15.761  -2.399  -0.648  0.00  0.00    +0.000 HD
ATOM     23  H   UNL     1      16.847  -1.187  -0.532  0.00  0.00    +0.000 HD
ENDBRANCH  20  21
ENDBRANCH  17  20
ENDBRANCH  13  14
ENDBRANCH   5  13
TORSDOF 6
