REMARK  Name = 
REMARK  5 active torsions:
REMARK  status: ('A' for Active; 'I' for Inactive)
REMARK    1  A    between atoms: C_2  and  C_3
REMARK    2  A    between atoms: C_6  and  N_7
REMARK    3  A    between atoms: N_7  and  C_8
REMARK    4  A    between atoms: C_8  and  C_9
REMARK    5  A    between atoms: C_9  and  C_12
REMARK                            x       y       z     vdW  Elec       q    Type
REMARK                         _______ _______ _______ _____ _____    ______ ____
ROOT
ATOM      1  N   UNL     1       7.859   0.071  -0.288  0.00  0.00    +0.000 N 
ATOM      2  H   UNL     1       8.146   0.885  -0.829  0.00  0.00    +0.000 HD
ENDROOT
BRANCH   1   6
ATOM      3  C   UNL     1       3.819  -0.142   0.471  0.00  0.00    +0.000 A 
ATOM      4  C   UNL     1       4.460  -1.134  -0.258  0.00  0.00    +0.000 A 
ATOM      5  N   UNL     1       5.791  -1.098  -0.550  0.00  0.00    +0.000 NA
ATOM      6  C   UNL     1       6.478  -0.018  -0.122  0.00  0.00    +0.000 A 
ATOM      7  C   UNL     1       5.801   0.993   0.573  0.00  0.00    +0.000 A 
ATOM      8  N   UNL     1       4.480   0.958   0.896  0.00  0.00    +0.000 NA
BRANCH   3  10
ATOM      9  N   UNL     1       1.313  -0.415   1.117  0.00  0.00    +0.000 NA
ATOM     10  C   UNL     1       2.436  -0.269   0.839  0.00  0.00    +0.000 C 
ENDBRANCH   3  10
ENDBRANCH   1   6
BRANCH   1  11
ATOM     11  C   UNL     1       8.579  -1.177  -0.630  0.00  0.00    +0.000 C 
BRANCH  11  12
ATOM     12  C   UNL     1      10.077  -0.945  -0.982  0.00  0.00    +0.000 C 
ATOM     13  F   UNL     1      10.121  -0.198  -2.131  0.00  0.00    +0.000 F 
ATOM     14  F   UNL     1      10.635  -0.141  -0.025  0.00  0.00    +0.000 F 
BRANCH  12  15
ATOM     15  C   UNL     1      10.832  -2.256  -1.127  0.00  0.00    +0.000 A 
ATOM     16  C   UNL     1      10.901  -2.901  -2.371  0.00  0.00    +0.000 A 
ATOM     17  C   UNL     1      11.564  -4.124  -2.505  0.00  0.00    +0.000 A 
ATOM     18  C   UNL     1      12.169  -4.716  -1.399  0.00  0.00    +0.000 A 
ATOM     19  C   UNL     1      12.125  -4.080  -0.161  0.00  0.00    +0.000 A 
ATOM     20  C   UNL     1      11.462  -2.857  -0.023  0.00  0.00    +0.000 A 
ENDBRANCH  12  15
ENDBRANCH  11  12
ENDBRANCH   1  11
TORSDOF 5
