REMARK  Name = 
REMARK  5 active torsions:
REMARK  status: ('A' for Active; 'I' for Inactive)
REMARK    1  A    between atoms: C_5  and  C_6
REMARK    2  A    between atoms: C_6  and  C_7
REMARK    3  A    between atoms: C_7  and  N_8
REMARK    4  A    between atoms: C_16  and  O_17
REMARK    5  A    between atoms: O_17  and  C_18
REMARK                            x       y       z     vdW  Elec       q    Type
REMARK                         _______ _______ _______ _____ _____    ______ ____
ROOT
ATOM      1 CL   UNL     1      -2.065   0.642  -0.470  0.00  0.00    +0.000 Cl
ATOM      2  C   UNL     1      -0.386   0.364  -0.191  0.00  0.00    +0.000 A 
ATOM      3  C   UNL     1       0.394   1.519  -0.081  0.00  0.00    +0.000 A 
ATOM      4  C   UNL     1       1.779   1.442   0.052  0.00  0.00    +0.000 A 
ATOM      5  C   UNL     1       2.433   0.205   0.075  0.00  0.00    +0.000 A 
ATOM      6  C   UNL     1       1.637  -0.953  -0.006  0.00  0.00    +0.000 A 
ATOM      7  C   UNL     1       0.230  -0.891  -0.130  0.00  0.00    +0.000 A 
ENDROOT
BRANCH   5   8
ATOM      8  C   UNL     1       3.951   0.081   0.161  0.00  0.00    +0.000 C 
BRANCH   8   9
ATOM      9  C   UNL     1       4.684   1.430   0.224  0.00  0.00    +0.000 C 
BRANCH   9  10
ATOM     10  N   UNL     1       6.132   1.302   0.310  0.00  0.00    +0.000 N 
ATOM     11  C   UNL     1       6.757   2.555   0.365  0.00  0.00    +0.000 A 
ATOM     12  N   UNL     1       6.139   3.580   0.953  0.00  0.00    +0.000 NA
ATOM     13  C   UNL     1       6.790   4.738   0.924  0.00  0.00    +0.000 A 
ATOM     14  N   UNL     1       7.976   4.948   0.373  0.00  0.00    +0.000 NA
ATOM     15  C   UNL     1       8.502   3.859  -0.176  0.00  0.00    +0.000 A 
ATOM     16  N   UNL     1       7.944   2.647  -0.223  0.00  0.00    +0.000 NA
ATOM     17  H   UNL     1       6.580   0.804  -0.453  0.00  0.00    +0.000 HD
ENDBRANCH   9  10
ENDBRANCH   8   9
ENDBRANCH   5   8
BRANCH   7  18
ATOM     18  O   UNL     1      -0.353  -2.132  -0.258  0.00  0.00    +0.000 OA
BRANCH  18  19
ATOM     19  C   UNL     1      -1.711  -2.375   0.171  0.00  0.00    +0.000 C 
ATOM     20  C   UNL     1      -2.035  -2.229   1.677  0.00  0.00    +0.000 C 
ATOM     21  C   UNL     1      -2.755  -3.584   1.635  0.00  0.00    +0.000 C 
ATOM     22  C   UNL     1      -2.068  -3.876   0.297  0.00  0.00    +0.000 C 
ENDBRANCH  18  19
ENDBRANCH   7  18
TORSDOF 5
