REMARK  Name = 
REMARK  5 active torsions:
REMARK  status: ('A' for Active; 'I' for Inactive)
REMARK    1  A    between atoms: N_1  and  C_2
REMARK    2  A    between atoms: C_2  and  C_3
REMARK    3  A    between atoms: C_6  and  C_7
REMARK    4  A    between atoms: C_7  and  N_8
REMARK    5  A    between atoms: C_13  and  C_14
REMARK                            x       y       z     vdW  Elec       q    Type
REMARK                         _______ _______ _______ _____ _____    ______ ____
ROOT
ATOM      1  N   UNL     1       2.390   3.703   5.481  0.00  0.00    +0.000 N 
ATOM      2  C   UNL     1       3.305   4.705   5.274  0.00  0.00    +0.000 A 
ATOM      3  C   UNL     1       2.664   5.908   5.450  0.00  0.00    +0.000 A 
ATOM      4  C   UNL     1       1.324   5.630   5.829  0.00  0.00    +0.000 A 
ATOM      5  C   UNL     1       0.208   6.450   6.103  0.00  0.00    +0.000 A 
ATOM      6  C   UNL     1      -1.013   5.865   6.468  0.00  0.00    +0.000 A 
ATOM      7  C   UNL     1      -1.096   4.473   6.601  0.00  0.00    +0.000 A 
ATOM      8  C   UNL     1      -0.003   3.639   6.334  0.00  0.00    +0.000 A 
ATOM      9  C   UNL     1       1.193   4.240   5.912  0.00  0.00    +0.000 A 
ENDROOT
BRANCH   6  10
ATOM     10  C   UNL     1      -2.252   6.662   6.693  0.00  0.00    +0.000 C 
ATOM     11  N   UNL     1      -2.206   8.018   6.547  0.00  0.00    +0.000 N 
ATOM     12  O   UNL     1      -3.310   6.125   7.003  0.00  0.00    +0.000 OA
ATOM     13  H   UNL     1      -1.395   8.553   6.282  0.00  0.00    +0.000 HD
ATOM     14  H   UNL     1      -3.075   8.522   6.690  0.00  0.00    +0.000 HD
ENDBRANCH   6  10
BRANCH   1  15
ATOM     15  C   UNL     1       2.663   2.298   5.214  0.00  0.00    +0.000 C 
BRANCH  15  19
ATOM     16  C   UNL     1       2.927   0.639   1.120  0.00  0.00    +0.000 C 
ATOM     17  C   UNL     1       2.243  -0.177   2.228  0.00  0.00    +0.000 C 
ATOM     18  C   UNL     1       2.568   0.341   3.628  0.00  0.00    +0.000 C 
ATOM     19  C   UNL     1       2.253   1.836   3.795  0.00  0.00    +0.000 C 
ATOM     20  C   UNL     1       2.951   2.643   2.688  0.00  0.00    +0.000 C 
ATOM     21  C   UNL     1       2.613   2.132   1.287  0.00  0.00    +0.000 C 
BRANCH  16  22
ATOM     22  C   UNL     1       2.494   0.102  -0.259  0.00  0.00    +0.000 C 
BRANCH  22  23
ATOM     23  N   UNL     1       3.121   0.822  -1.364  0.00  0.00    +0.000 NA
ATOM     24  H   UNL     1       2.860   0.382  -2.245  0.00  0.00    +0.000 HD
ATOM     25  H   UNL     1       4.133   0.752  -1.294  0.00  0.00    +0.000 HD
ENDBRANCH  22  23
ENDBRANCH  16  22
ENDBRANCH  15  19
ENDBRANCH   1  15
TORSDOF 5
