REMARK  Name = 
REMARK  7 active torsions:
REMARK  status: ('A' for Active; 'I' for Inactive)
REMARK    1  A    between atoms: C_1  and  O_2
REMARK    2  A    between atoms: O_2  and  C_3
REMARK    3  A    between atoms: C_6  and  C_7
REMARK    4  A    between atoms: C_7  and  C_8
REMARK    5  A    between atoms: C_11  and  O_12
REMARK    6  A    between atoms: O_12  and  C_13
REMARK    7  A    between atoms: C_20  and  C_21
REMARK                            x       y       z     vdW  Elec       q    Type
REMARK                         _______ _______ _______ _____ _____    ______ ____
ROOT
ATOM      1  C   UNL     1       5.419   2.181  -3.975  0.00  0.00    +0.000 C 
ATOM      2  C   UNL     1       6.073   3.564  -3.835  0.00  0.00    +0.000 C 
ATOM      3  C   UNL     1       4.873   3.418  -4.716  0.00  0.00    +0.000 C 
ATOM      4  C   UNL     1       5.019   3.624  -6.188  0.00  0.00    +0.000 C 
ENDROOT
BRANCH   1   8
ATOM      5  C   UNL     1       3.152   0.917  -0.616  0.00  0.00    +0.000 A 
ATOM      6  C   UNL     1       2.597   0.925  -1.888  0.00  0.00    +0.000 A 
ATOM      7  N   UNL     1       3.290   1.306  -2.991  0.00  0.00    +0.000 NA
ATOM      8  C   UNL     1       4.591   1.665  -2.796  0.00  0.00    +0.000 A 
ATOM      9  C   UNL     1       5.134   1.601  -1.508  0.00  0.00    +0.000 A 
ATOM     10  N   UNL     1       4.442   1.241  -0.400  0.00  0.00    +0.000 NA
BRANCH   5  12
ATOM     11  C   UNL     1       2.874   1.014   1.688  0.00  0.00    +0.000 C 
ATOM     12  O   UNL     1       2.344   0.567   0.442  0.00  0.00    +0.000 OA
ENDBRANCH   5  12
ENDBRANCH   1   8
BRANCH   1  13
ATOM     13  C   UNL     1       6.178   1.134  -4.785  0.00  0.00    +0.000 A 
ATOM     14  C   UNL     1       5.546   0.414  -5.811  0.00  0.00    +0.000 A 
ATOM     15  C   UNL     1       6.280  -0.342  -6.728  0.00  0.00    +0.000 A 
ATOM     16  C   UNL     1       7.669  -0.383  -6.637  0.00  0.00    +0.000 A 
ATOM     17  C   UNL     1       8.297   0.186  -5.532  0.00  0.00    +0.000 A 
ATOM     18  C   UNL     1       7.559   0.931  -4.612  0.00  0.00    +0.000 A 
BRANCH  16  19
ATOM     19  O   UNL     1       8.485  -0.997  -7.539  0.00  0.00    +0.000 OA
BRANCH  19  20
ATOM     20  C   UNL     1       8.191  -0.821  -8.923  0.00  0.00    +0.000 C 
ATOM     21  F   UNL     1       7.100  -0.066  -9.180  0.00  0.00    +0.000 F 
ATOM     22  F   UNL     1       9.249  -0.232  -9.522  0.00  0.00    +0.000 F 
ATOM     23  F   UNL     1       8.012  -2.036  -9.485  0.00  0.00    +0.000 F 
ENDBRANCH  19  20
ENDBRANCH  16  19
ENDBRANCH   1  13
TORSDOF 5
