REMARK  Name = 
REMARK  8 active torsions:
REMARK  status: ('A' for Active; 'I' for Inactive)
REMARK    1  A    between atoms: C_2  and  C_3
REMARK    2  A    between atoms: C_3  and  C_4
REMARK    3  A    between atoms: C_4  and  N_5
REMARK    4  A    between atoms: C_4  and  C_18
REMARK    5  A    between atoms: C_6  and  C_8
REMARK    6  A    between atoms: C_21  and  C_22
REMARK    7  A    between atoms: C_22  and  N_23
REMARK    8  A    between atoms: C_24  and  C_26
REMARK                            x       y       z     vdW  Elec       q    Type
REMARK                         _______ _______ _______ _____ _____    ______ ____
ROOT
ATOM      1  C   UNL     1       4.178   1.299  -0.087  0.00  0.00    +0.000 C 
ENDROOT
BRANCH   1   2
ATOM      2  C   UNL     1       5.702   1.376  -0.260  0.00  0.00    +0.000 A 
ATOM      3  C   UNL     1       6.347   2.621  -0.201  0.00  0.00    +0.000 A 
ATOM      4  C   UNL     1       7.746   2.709  -0.156  0.00  0.00    +0.000 A 
ATOM      5  C   UNL     1       8.540   1.555  -0.188  0.00  0.00    +0.000 A 
ATOM      6  C   UNL     1       7.903   0.317  -0.329  0.00  0.00    +0.000 A 
ATOM      7  C   UNL     1       6.505   0.230  -0.392  0.00  0.00    +0.000 A 
BRANCH   5   8
ATOM      8  C   UNL     1      10.041   1.639  -0.088  0.00  0.00    +0.000 C 
BRANCH   8   9
ATOM      9  N   UNL     1      10.543   1.530   1.263  0.00  0.00    +0.000 N 
ATOM     10  C   UNL     1      11.897   1.601   1.505  0.00  0.00    +0.000 C 
ATOM     11  O   UNL     1      12.724   1.711   0.599  0.00  0.00    +0.000 OA
ATOM     12  H   UNL     1       9.922   1.467   2.065  0.00  0.00    +0.000 HD
BRANCH  10  13
ATOM     13  C   UNL     1      12.338   1.460   2.963  0.00  0.00    +0.000 C 
ATOM     14  C   UNL     1      12.557   0.017   3.373  0.00  0.00    +0.000 C 
ATOM     15  C   UNL     1      12.620   0.122   4.886  0.00  0.00    +0.000 C 
ATOM     16  C   UNL     1      11.715   1.304   5.221  0.00  0.00    +0.000 C 
ATOM     17  N   UNL     1      11.303   1.887   3.934  0.00  0.00    +0.000 NA
ATOM     18  H   UNL     1      11.288   2.905   3.998  0.00  0.00    +0.000 HD
ENDBRANCH  10  13
ENDBRANCH   8   9
ENDBRANCH   5   8
ENDBRANCH   1   2
BRANCH   1  19
ATOM     19  N   UNL     1       3.519   1.190  -1.390  0.00  0.00    +0.000 N 
ATOM     20  C   UNL     1       2.151   1.267  -1.550  0.00  0.00    +0.000 C 
ATOM     21  O   UNL     1       1.399   1.267  -0.578  0.00  0.00    +0.000 OA
ATOM     22  H   UNL     1       4.102   1.410  -2.196  0.00  0.00    +0.000 HD
BRANCH  20  23
ATOM     23  C   UNL     1       1.607   1.341  -2.920  0.00  0.00    +0.000 A 
ATOM     24  C   UNL     1       0.229   1.316  -3.113  0.00  0.00    +0.000 A 
ATOM     25  S   UNL     1      -0.247   1.411  -4.748  0.00  0.00    +0.000 S 
ATOM     26  C   UNL     1       1.371   1.481  -5.266  0.00  0.00    +0.000 A 
ATOM     27  N   UNL     1       1.673   1.564  -6.590  0.00  0.00    +0.000 NA
ATOM     28  C   UNL     1       2.938   1.592  -6.849  0.00  0.00    +0.000 A 
ATOM     29  N   UNL     1       3.927   1.550  -5.902  0.00  0.00    +0.000 N 
ATOM     30  C   UNL     1       3.667   1.513  -4.554  0.00  0.00    +0.000 A 
ATOM     31  O   UNL     1       4.575   1.554  -3.731  0.00  0.00    +0.000 OA
ATOM     32  C   UNL     1       2.260   1.443  -4.206  0.00  0.00    +0.000 A 
ATOM     33  H   UNL     1       4.900   1.593  -6.167  0.00  0.00    +0.000 HD
ENDBRANCH  20  23
ENDBRANCH   1  19
BRANCH   1  34
ATOM     34  C   UNL     1       3.769   0.185   0.913  0.00  0.00    +0.000 C 
BRANCH  34  36
ATOM     35  N   UNL     1       4.744   0.642   3.319  0.00  0.00    +0.000 NA
ATOM     36  C   UNL     1       4.315   0.442   2.256  0.00  0.00    +0.000 C 
ENDBRANCH  34  36
ENDBRANCH   1  34
TORSDOF 8
