REMARK  Name = 
REMARK  6 active torsions:
REMARK  status: ('A' for Active; 'I' for Inactive)
REMARK    1  A    between atoms: C_2  and  C_25
REMARK    2  A    between atoms: N_3  and  C_4
REMARK    3  A    between atoms: C_4  and  C_5
REMARK    4  A    between atoms: C_8  and  C_9
REMARK    5  A    between atoms: C_9  and  N_10
REMARK    6  A    between atoms: C_11  and  C_13
REMARK                            x       y       z     vdW  Elec       q    Type
REMARK                         _______ _______ _______ _____ _____    ______ ____
ROOT
ATOM      1  C   UNL     1       3.111   2.366   2.779  0.00  0.00    +0.000 A 
ATOM      2  C   UNL     1       3.055   3.766   2.794  0.00  0.00    +0.000 A 
ATOM      3  C   UNL     1       3.844   4.503   3.685  0.00  0.00    +0.000 A 
ATOM      4  C   UNL     1       4.722   3.856   4.565  0.00  0.00    +0.000 A 
ATOM      5  C   UNL     1       4.781   2.456   4.546  0.00  0.00    +0.000 A 
ATOM      6  C   UNL     1       3.994   1.720   3.655  0.00  0.00    +0.000 A 
ENDROOT
BRANCH   1   7
ATOM      7  C   UNL     1       2.202   1.571   1.882  0.00  0.00    +0.000 C 
BRANCH   7  10
ATOM      8  O   UNL     1       0.892   0.129  -0.127  0.00  0.00    +0.000 OA
ATOM      9  C   UNL     1       2.001   0.601  -0.338  0.00  0.00    +0.000 C 
ATOM     10  N   UNL     1       2.736   1.330   0.568  0.00  0.00    +0.000 N 
ATOM     11  H   UNL     1       3.646   1.683   0.285  0.00  0.00    +0.000 HD
BRANCH   9  12
ATOM     12  C   UNL     1       2.643   0.383  -1.676  0.00  0.00    +0.000 C 
ATOM     13  C   UNL     1       1.985  -0.382  -2.748  0.00  0.00    +0.000 C 
ATOM     14  C   UNL     1       2.923  -0.321  -3.821  0.00  0.00    +0.000 C 
ATOM     15  C   UNL     1       3.955   0.397  -3.354  0.00  0.00    +0.000 C 
ATOM     16  N   UNL     1       3.819   0.843  -2.044  0.00  0.00    +0.000 NA
ENDBRANCH   9  12
ENDBRANCH   7  10
ENDBRANCH   1   7
BRANCH   4  17
ATOM     17  C   UNL     1       5.561   4.642   5.542  0.00  0.00    +0.000 C 
BRANCH  17  18
ATOM     18  N   UNL     1       4.879   4.828   6.800  0.00  0.00    +0.000 N 
ATOM     19  C   UNL     1       5.433   5.594   7.795  0.00  0.00    +0.000 C 
ATOM     20  O   UNL     1       6.494   6.192   7.642  0.00  0.00    +0.000 OA
ATOM     21  H   UNL     1       4.133   4.178   7.022  0.00  0.00    +0.000 HD
BRANCH  19  22
ATOM     22  C   UNL     1       4.656   5.722   9.037  0.00  0.00    +0.000 A 
ATOM     23  C   UNL     1       4.875   6.810   9.875  0.00  0.00    +0.000 A 
ATOM     24  S   UNL     1       3.860   6.837  11.243  0.00  0.00    +0.000 S 
ATOM     25  C   UNL     1       3.128   5.367  10.799  0.00  0.00    +0.000 A 
ATOM     26  N   UNL     1       2.167   4.801  11.576  0.00  0.00    +0.000 NA
ATOM     27  C   UNL     1       1.730   3.667  11.143  0.00  0.00    +0.000 A 
ATOM     28  N   UNL     1       2.161   3.050   9.997  0.00  0.00    +0.000 N 
ATOM     29  C   UNL     1       3.100   3.604   9.159  0.00  0.00    +0.000 A 
ATOM     30  O   UNL     1       3.424   3.052   8.112  0.00  0.00    +0.000 OA
ATOM     31  C   UNL     1       3.639   4.872   9.611  0.00  0.00    +0.000 A 
ATOM     32  H   UNL     1       1.770   2.166   9.707  0.00  0.00    +0.000 HD
ENDBRANCH  19  22
ENDBRANCH  17  18
ENDBRANCH   4  17
TORSDOF 6
