REMARK  Name = 
REMARK  10 active torsions:
REMARK  status: ('A' for Active; 'I' for Inactive)
REMARK    1  A    between atoms: N_1  and  C_2
REMARK    2  A    between atoms: C_2  and  C_3
REMARK    3  A    between atoms: C_3  and  N_4
REMARK    4  A    between atoms: N_4  and  C_5
REMARK    5  A    between atoms: C_5  and  C_6
REMARK    6  A    between atoms: C_9  and  C_10
REMARK    7  A    between atoms: C_10  and  N_11
REMARK    8  A    between atoms: C_12  and  C_14
REMARK    9  A    between atoms: C_25  and  C_26
REMARK   10  A    between atoms: C_26  and  N_27
REMARK                            x       y       z     vdW  Elec       q    Type
REMARK                         _______ _______ _______ _____ _____    ______ ____
ROOT
ATOM      1  C   UNL     1       6.455   1.991  -1.877  0.00  0.00    +0.000 A 
ATOM      2  C   UNL     1       7.172   3.158  -2.219  0.00  0.00    +0.000 A 
ATOM      3  C   UNL     1       8.566   3.196  -2.226  0.00  0.00    +0.000 A 
ATOM      4  C   UNL     1       9.297   2.072  -1.855  0.00  0.00    +0.000 A 
ATOM      5  C   UNL     1       8.603   0.907  -1.499  0.00  0.00    +0.000 A 
ATOM      6  C   UNL     1       7.193   0.833  -1.528  0.00  0.00    +0.000 A 
ENDROOT
BRANCH   1   7
ATOM      7  C   UNL     1       4.936   2.045  -1.781  0.00  0.00    +0.000 C 
BRANCH   7   8
ATOM      8  N   UNL     1       4.317   3.026  -2.689  0.00  0.00    +0.000 NA
ATOM      9  H   UNL     1       4.593   3.954  -2.357  0.00  0.00    +0.000 HD
BRANCH   8  10
ATOM     10  C   UNL     1       2.850   3.018  -2.593  0.00  0.00    +0.000 C 
BRANCH  10  11
ATOM     11  C   UNL     1       2.326   3.612  -1.268  0.00  0.00    +0.000 C 
BRANCH  11  12
ATOM     12  N   UNL     1       2.943   4.912  -0.976  0.00  0.00    +0.000 NA
ATOM     13  H   UNL     1       2.574   5.262  -0.092  0.00  0.00    +0.000 HD
ATOM     14  H   UNL     1       2.654   5.584  -1.686  0.00  0.00    +0.000 HD
ENDBRANCH  11  12
ENDBRANCH  10  11
ENDBRANCH   8  10
ENDBRANCH   7   8
ENDBRANCH   1   7
BRANCH   4  15
ATOM     15  C   UNL     1      10.800   2.108  -1.819  0.00  0.00    +0.000 C 
BRANCH  15  16
ATOM     16  N   UNL     1      11.276   1.927  -0.472  0.00  0.00    +0.000 N 
ATOM     17  C   UNL     1      12.215   0.995  -0.128  0.00  0.00    +0.000 C 
ATOM     18  O   UNL     1      12.732   0.246  -0.953  0.00  0.00    +0.000 OA
ATOM     19  H   UNL     1      10.766   2.425   0.251  0.00  0.00    +0.000 HD
BRANCH  17  20
ATOM     20  C   UNL     1      12.626   0.980   1.281  0.00  0.00    +0.000 A 
ATOM     21  C   UNL     1      13.849   0.425   1.630  0.00  0.00    +0.000 A 
ATOM     22  S   UNL     1      14.204   0.545   3.293  0.00  0.00    +0.000 S 
ATOM     23  C   UNL     1      12.708   1.290   3.614  0.00  0.00    +0.000 A 
ATOM     24  N   UNL     1      12.366   1.650   4.882  0.00  0.00    +0.000 NA
ATOM     25  C   UNL     1      11.185   2.167   4.988  0.00  0.00    +0.000 A 
ATOM     26  N   UNL     1      10.323   2.365   3.943  0.00  0.00    +0.000 N 
ATOM     27  C   UNL     1      10.654   2.081   2.639  0.00  0.00    +0.000 A 
ATOM     28  O   UNL     1       9.905   2.382   1.718  0.00  0.00    +0.000 OA
ATOM     29  C   UNL     1      11.956   1.463   2.467  0.00  0.00    +0.000 A 
ATOM     30  H   UNL     1       9.420   2.792   4.088  0.00  0.00    +0.000 HD
ENDBRANCH  17  20
ENDBRANCH  15  16
ENDBRANCH   4  15
BRANCH   6  31
ATOM     31  C   UNL     1       6.573  -0.512  -1.185  0.00  0.00    +0.000 C 
BRANCH  31  32
ATOM     32  N   UNL     1       6.472  -0.677   0.250  0.00  0.00    +0.000 N 
ATOM     33  C   UNL     1       5.992  -1.849   0.801  0.00  0.00    +0.000 A 
ATOM     34  C   UNL     1       6.220  -3.112   0.259  0.00  0.00    +0.000 A 
ATOM     35  C   UNL     1       5.782  -4.248   0.937  0.00  0.00    +0.000 A 
ATOM     36  C   UNL     1       5.127  -4.102   2.153  0.00  0.00    +0.000 A 
ATOM     37  C   UNL     1       4.934  -2.818   2.623  0.00  0.00    +0.000 A 
ATOM     38  N   UNL     1       5.345  -1.702   1.976  0.00  0.00    +0.000 NA
ATOM     39  H   UNL     1       6.082   0.108   0.758  0.00  0.00    +0.000 HD
ENDBRANCH  31  32
ENDBRANCH   6  31
TORSDOF 10
