REMARK  Name = 
REMARK  10 active torsions:
REMARK  status: ('A' for Active; 'I' for Inactive)
REMARK    1  A    between atoms: N_1  and  C_2
REMARK    2  A    between atoms: C_2  and  C_3
REMARK    3  A    between atoms: C_3  and  N_4
REMARK    4  A    between atoms: C_3  and  C_20
REMARK    5  A    between atoms: N_4  and  C_5
REMARK    6  A    between atoms: C_5  and  C_6
REMARK    7  A    between atoms: C_9  and  C_10
REMARK    8  A    between atoms: C_10  and  C_11
REMARK    9  A    between atoms: C_11  and  N_12
REMARK   10  A    between atoms: N_12  and  C_13
REMARK                            x       y       z     vdW  Elec       q    Type
REMARK                         _______ _______ _______ _____ _____    ______ ____
ROOT
ATOM      1  N   UNL     1       5.076  -1.316  -0.071  0.00  0.00    +0.000 NA
ATOM      2  H   UNL     1       5.297  -2.190  -0.550  0.00  0.00    +0.000 HD
ENDROOT
BRANCH   1   3
ATOM      3  C   UNL     1       5.814  -0.223  -0.726  0.00  0.00    +0.000 C 
BRANCH   3   4
ATOM      4  C   UNL     1       7.281  -0.634  -0.734  0.00  0.00    +0.000 A 
ATOM      5  C   UNL     1       7.940  -1.269   0.311  0.00  0.00    +0.000 A 
ATOM      6  S   UNL     1       9.587  -1.582  -0.013  0.00  0.00    +0.000 S 
ATOM      7  C   UNL     1       9.472  -0.893  -1.564  0.00  0.00    +0.000 A 
ATOM      8  N   UNL     1      10.551  -0.852  -2.395  0.00  0.00    +0.000 NA
ATOM      9  C   UNL     1      10.304  -0.318  -3.546  0.00  0.00    +0.000 A 
ATOM     10  N   UNL     1       9.089   0.187  -3.939  0.00  0.00    +0.000 N 
ATOM     11  C   UNL     1       7.974   0.177  -3.130  0.00  0.00    +0.000 A 
ATOM     12  O   UNL     1       6.902   0.626  -3.521  0.00  0.00    +0.000 OA
ATOM     13  C   UNL     1       8.198  -0.426  -1.829  0.00  0.00    +0.000 A 
ATOM     14  H   UNL     1       8.967   0.589  -4.856  0.00  0.00    +0.000 HD
ENDBRANCH   3   4
BRANCH   3  15
ATOM     15  C   UNL     1       5.602   1.154  -0.019  0.00  0.00    +0.000 C 
BRANCH  15  16
ATOM     16  N   UNL     1       6.251   2.298  -0.671  0.00  0.00    +0.000 NA
ATOM     17  H   UNL     1       6.014   3.145  -0.157  0.00  0.00    +0.000 HD
ATOM     18  H   UNL     1       5.862   2.411  -1.609  0.00  0.00    +0.000 HD
ENDBRANCH  15  16
ENDBRANCH   3  15
ENDBRANCH   1   3
BRANCH   1  19
ATOM     19  C   UNL     1       3.626  -1.142  -0.098  0.00  0.00    +0.000 C 
BRANCH  19  20
ATOM     20  C   UNL     1       2.949  -2.285   0.613  0.00  0.00    +0.000 A 
ATOM     21  C   UNL     1       3.313  -2.581   1.929  0.00  0.00    +0.000 A 
ATOM     22  C   UNL     1       2.682  -3.609   2.619  0.00  0.00    +0.000 A 
ATOM     23  C   UNL     1       1.634  -4.339   2.037  0.00  0.00    +0.000 A 
ATOM     24  C   UNL     1       1.284  -4.053   0.710  0.00  0.00    +0.000 A 
ATOM     25  C   UNL     1       1.936  -3.033   0.005  0.00  0.00    +0.000 A 
BRANCH  23  26
ATOM     26  C   UNL     1       0.894  -5.427   2.805  0.00  0.00    +0.000 C 
BRANCH  26  27
ATOM     27  C   UNL     1       0.817  -5.110   4.306  0.00  0.00    +0.000 C 
BRANCH  27  28
ATOM     28  N   UNL     1       0.148  -6.116   5.132  0.00  0.00    +0.000 NA
ATOM     29  H   UNL     1       0.643  -7.006   5.074  0.00  0.00    +0.000 HD
BRANCH  28  30
ATOM     30  C   UNL     1       0.089  -5.672   6.542  0.00  0.00    +0.000 C 
ATOM     31  C   UNL     1       1.436  -5.500   7.250  0.00  0.00    +0.000 C 
ATOM     32  C   UNL     1       1.686  -6.844   7.893  0.00  0.00    +0.000 C 
ATOM     33  N   UNL     1       0.371  -7.255   8.386  0.00  0.00    +0.000 NA
ATOM     34  C   UNL     1      -0.616  -6.725   7.424  0.00  0.00    +0.000 C 
ATOM     35  H   UNL     1       0.208  -6.808   9.289  0.00  0.00    +0.000 HD
ENDBRANCH  28  30
ENDBRANCH  27  28
ENDBRANCH  26  27
ENDBRANCH  23  26
ENDBRANCH  19  20
ENDBRANCH   1  19
TORSDOF 10
