REMARK  Name = 
REMARK  8 active torsions:
REMARK  status: ('A' for Active; 'I' for Inactive)
REMARK    1  A    between atoms: C_1  and  C_2
REMARK    2  A    between atoms: C_2  and  N_3
REMARK    3  A    between atoms: C_2  and  C_25
REMARK    4  A    between atoms: N_3  and  C_4
REMARK    5  A    between atoms: C_4  and  C_5
REMARK    6  A    between atoms: C_8  and  C_9
REMARK    7  A    between atoms: C_9  and  N_10
REMARK    8  A    between atoms: C_11  and  C_13
REMARK                            x       y       z     vdW  Elec       q    Type
REMARK                         _______ _______ _______ _____ _____    ______ ____
ROOT
ATOM      1  C   UNL     1      -1.053   0.148  -1.416  0.00  0.00    +0.000 A 
ATOM      2  C   UNL     1      -1.709  -0.944  -0.826  0.00  0.00    +0.000 A 
ATOM      3  C   UNL     1      -3.103  -1.020  -0.817  0.00  0.00    +0.000 A 
ATOM      4  C   UNL     1      -3.871  -0.007  -1.403  0.00  0.00    +0.000 A 
ATOM      5  C   UNL     1      -3.219   1.110  -1.942  0.00  0.00    +0.000 A 
ATOM      6  C   UNL     1      -1.823   1.185  -1.955  0.00  0.00    +0.000 A 
ENDROOT
BRANCH   1   7
ATOM      7  C   UNL     1       0.459   0.184  -1.474  0.00  0.00    +0.000 C 
BRANCH   7   8
ATOM      8  N   UNL     1       0.961  -0.981  -2.196  0.00  0.00    +0.000 NA
ATOM      9  H   UNL     1       0.508  -1.016  -3.110  0.00  0.00    +0.000 HD
BRANCH   8  11
ATOM     10  C   UNL     1       3.210  -0.989  -1.091  0.00  0.00    +0.000 C 
ATOM     11  C   UNL     1       2.413  -0.997  -2.402  0.00  0.00    +0.000 C 
BRANCH  11  12
ATOM     12  C   UNL     1       2.786  -2.229  -3.218  0.00  0.00    +0.000 A 
ATOM     13  C   UNL     1       3.433  -2.097  -4.456  0.00  0.00    +0.000 A 
ATOM     14  C   UNL     1       3.797  -3.229  -5.191  0.00  0.00    +0.000 A 
ATOM     15  C   UNL     1       3.519  -4.504  -4.701  0.00  0.00    +0.000 A 
ATOM     16  C   UNL     1       2.864  -4.651  -3.481  0.00  0.00    +0.000 A 
ATOM     17  C   UNL     1       2.496  -3.522  -2.748  0.00  0.00    +0.000 A 
ENDBRANCH  11  12
ENDBRANCH   8  11
ENDBRANCH   7   8
ENDBRANCH   1   7
BRANCH   4  18
ATOM     18  C   UNL     1      -5.373  -0.103  -1.435  0.00  0.00    +0.000 C 
BRANCH  18  19
ATOM     19  N   UNL     1      -5.958   0.478  -0.255  0.00  0.00    +0.000 N 
ATOM     20  C   UNL     1      -7.308   0.418  -0.031  0.00  0.00    +0.000 C 
ATOM     21  O   UNL     1      -8.073  -0.146  -0.809  0.00  0.00    +0.000 OA
ATOM     22  H   UNL     1      -5.386   1.131   0.270  0.00  0.00    +0.000 HD
BRANCH  20  23
ATOM     23  C   UNL     1      -7.791   1.006   1.223  0.00  0.00    +0.000 A 
ATOM     24  C   UNL     1      -9.004   0.590   1.754  0.00  0.00    +0.000 A 
ATOM     25  S   UNL     1      -9.391   1.327   3.241  0.00  0.00    +0.000 S 
ATOM     26  C   UNL     1      -7.973   2.266   3.206  0.00  0.00    +0.000 A 
ATOM     27  N   UNL     1      -7.698   3.151   4.201  0.00  0.00    +0.000 NA
ATOM     28  C   UNL     1      -6.601   3.814   4.038  0.00  0.00    +0.000 A 
ATOM     29  N   UNL     1      -5.756   3.669   2.968  0.00  0.00    +0.000 N 
ATOM     30  C   UNL     1      -5.983   2.777   1.950  0.00  0.00    +0.000 A 
ATOM     31  O   UNL     1      -5.190   2.654   1.024  0.00  0.00    +0.000 OA
ATOM     32  C   UNL     1      -7.207   2.009   2.084  0.00  0.00    +0.000 A 
ATOM     33  H   UNL     1      -4.909   4.216   2.902  0.00  0.00    +0.000 HD
ENDBRANCH  20  23
ENDBRANCH  18  19
ENDBRANCH   4  18
TORSDOF 7
