REMARK  Name = 
REMARK  5 active torsions:
REMARK  status: ('A' for Active; 'I' for Inactive)
REMARK    1  A    between atoms: N_1  and  C_2
REMARK    2  A    between atoms: C_2  and  C_3
REMARK    3  A    between atoms: C_6  and  N_7
REMARK    4  A    between atoms: N_7  and  C_8
REMARK    5  A    between atoms: C_8  and  C_9
REMARK                            x       y       z     vdW  Elec       q    Type
REMARK                         _______ _______ _______ _____ _____    ______ ____
ROOT
ATOM      1  C   UNL     1       2.742   0.873   1.076  0.00  0.00    +0.000 A 
ATOM      2  C   UNL     1       2.668   2.263   0.916  0.00  0.00    +0.000 A 
ATOM      3  C   UNL     1       2.861   3.120   2.006  0.00  0.00    +0.000 A 
ATOM      4  C   UNL     1       3.101   2.608   3.283  0.00  0.00    +0.000 A 
ATOM      5  C   UNL     1       3.271   1.226   3.419  0.00  0.00    +0.000 A 
ATOM      6  C   UNL     1       3.074   0.364   2.336  0.00  0.00    +0.000 A 
ENDROOT
BRANCH   4   7
ATOM      7  N   UNL     1       3.250   3.399   4.427  0.00  0.00    +0.000 N 
ATOM      8  H   UNL     1       4.235   3.526   4.649  0.00  0.00    +0.000 HD
BRANCH   7   9
ATOM      9  C   UNL     1       2.511   4.653   4.487  0.00  0.00    +0.000 C 
BRANCH   9  10
ATOM     10  C   UNL     1       2.145   4.948   5.921  0.00  0.00    +0.000 A 
ATOM     11  C   UNL     1       2.520   6.143   6.540  0.00  0.00    +0.000 A 
ATOM     12  C   UNL     1       2.109   6.372   7.844  0.00  0.00    +0.000 A 
ATOM     13  N   UNL     1       1.358   5.508   8.561  0.00  0.00    +0.000 NA
ATOM     14  C   UNL     1       1.007   4.358   7.948  0.00  0.00    +0.000 A 
ATOM     15  C   UNL     1       1.370   4.038   6.651  0.00  0.00    +0.000 A 
ENDBRANCH   9  10
ENDBRANCH   7   9
ENDBRANCH   4   7
BRANCH   1  16
ATOM     16  C   UNL     1       2.414  -0.053  -0.067  0.00  0.00    +0.000 C 
BRANCH  16  17
ATOM     17  N   UNL     1       3.263   0.182  -1.228  0.00  0.00    +0.000 NA
ATOM     18  H   UNL     1       3.072  -0.535  -1.925  0.00  0.00    +0.000 HD
ATOM     19  H   UNL     1       4.235   0.061  -0.949  0.00  0.00    +0.000 HD
ENDBRANCH  16  17
ENDBRANCH   1  16
TORSDOF 5
