REMARK  Name = 
REMARK  4 active torsions:
REMARK  status: ('A' for Active; 'I' for Inactive)
REMARK    1  A    between atoms: C_2  and  C_4
REMARK    2  A    between atoms: N_8  and  C_9
REMARK    3  A    between atoms: C_9  and  C_10
REMARK    4  A    between atoms: C_14  and  C_15
REMARK                            x       y       z     vdW  Elec       q    Type
REMARK                         _______ _______ _______ _____ _____    ______ ____
ROOT
ATOM      1  C   UNL     1       5.066   3.830   4.652  0.00  0.00    +0.000 C 
ENDROOT
BRANCH   1   6
ATOM      2  C   UNL     1       6.187   3.957  -0.350  0.00  0.00    +0.000 A 
ATOM      3  C   UNL     1       6.435   2.952   0.580  0.00  0.00    +0.000 A 
ATOM      4  C   UNL     1       5.892   3.057   1.856  0.00  0.00    +0.000 A 
ATOM      5  C   UNL     1       5.123   4.165   2.194  0.00  0.00    +0.000 A 
ATOM      6  N   UNL     1       4.477   4.291   3.405  0.00  0.00    +0.000 N 
ATOM      7  N   UNL     1       4.891   5.155   1.311  0.00  0.00    +0.000 NA
ATOM      8  C   UNL     1       5.431   5.042   0.064  0.00  0.00    +0.000 A 
ATOM      9  H   UNL     1       4.020   5.196   3.433  0.00  0.00    +0.000 HD
BRANCH   2  11
ATOM     10  N   UNL     1       6.938   2.659  -2.260  0.00  0.00    +0.000 N 
ATOM     11  C   UNL     1       6.703   3.901  -1.733  0.00  0.00    +0.000 C 
ATOM     12  O   UNL     1       6.883   4.916  -2.391  0.00  0.00    +0.000 OA
ATOM     13  H   UNL     1       7.209   2.622  -3.234  0.00  0.00    +0.000 HD
ATOM     14  H   UNL     1       6.575   1.812  -1.846  0.00  0.00    +0.000 HD
ENDBRANCH   2  11
ENDBRANCH   1   6
BRANCH   1  15
ATOM     15  C   UNL     1       6.056   4.787   5.262  0.00  0.00    +0.000 A 
ATOM     16  C   UNL     1       7.143   4.298   5.977  0.00  0.00    +0.000 A 
ATOM     17  N   UNL     1       8.027   5.073   6.640  0.00  0.00    +0.000 NA
ATOM     18  C   UNL     1       7.819   6.411   6.592  0.00  0.00    +0.000 A 
ATOM     19  C   UNL     1       6.767   7.038   5.921  0.00  0.00    +0.000 A 
ATOM     20  C   UNL     1       5.876   6.178   5.259  0.00  0.00    +0.000 A 
BRANCH  19  21
ATOM     21  C   UNL     1       6.588   8.507   5.911  0.00  0.00    +0.000 A 
ATOM     22  C   UNL     1       6.023   9.168   4.800  0.00  0.00    +0.000 A 
ATOM     23  C   UNL     1       5.840  10.556   4.783  0.00  0.00    +0.000 A 
ATOM     24  C   UNL     1       6.234  11.320   5.875  0.00  0.00    +0.000 A 
ATOM     25  C   UNL     1       6.797  10.688   6.974  0.00  0.00    +0.000 A 
ATOM     26  F   UNL     1       7.180  11.419   8.029  0.00  0.00    +0.000 F 
ATOM     27  C   UNL     1       6.969   9.305   7.004  0.00  0.00    +0.000 A 
ENDBRANCH  19  21
ENDBRANCH   1  15
TORSDOF 4
