REMARK  Name = 
REMARK  10 active torsions:
REMARK  status: ('A' for Active; 'I' for Inactive)
REMARK    1  A    between atoms: C_1  and  C_2
REMARK    2  A    between atoms: C_5  and  O_6
REMARK    3  A    between atoms: O_6  and  C_7
REMARK    4  A    between atoms: C_9  and  C_10
REMARK    5  A    between atoms: C_10  and  C_11
REMARK    6  A    between atoms: C_16  and  N_17
REMARK    7  A    between atoms: N_17  and  C_18
REMARK    8  A    between atoms: C_18  and  C_19
REMARK    9  A    between atoms: C_19  and  C_22
REMARK   10  A    between atoms: C_25  and  C_26
REMARK                            x       y       z     vdW  Elec       q    Type
REMARK                         _______ _______ _______ _____ _____    ______ ____
ROOT
ATOM      1  C   UNL     1       1.398   2.422   1.944  0.00  0.00    +0.000 A 
ATOM      2  C   UNL     1       0.387   2.079   1.045  0.00  0.00    +0.000 A 
ATOM      3  C   UNL     1      -0.704   2.931   0.859  0.00  0.00    +0.000 A 
ATOM      4  C   UNL     1      -0.770   4.119   1.601  0.00  0.00    +0.000 A 
ATOM      5  C   UNL     1       0.185   4.439   2.571  0.00  0.00    +0.000 A 
ATOM      6  C   UNL     1       1.282   3.578   2.717  0.00  0.00    +0.000 A 
ENDROOT
BRANCH   5   7
ATOM      7  N   UNL     1       0.154   5.603   3.345  0.00  0.00    +0.000 N 
ATOM      8  H   UNL     1       0.391   5.404   4.315  0.00  0.00    +0.000 HD
BRANCH   7   9
ATOM      9  C   UNL     1      -0.938   6.580   3.190  0.00  0.00    +0.000 C 
BRANCH   9  10
ATOM     10  C   UNL     1      -0.663   7.653   2.106  0.00  0.00    +0.000 C 
ATOM     11  F   UNL     1      -0.479   7.048   0.893  0.00  0.00    +0.000 F 
ATOM     12  F   UNL     1      -1.815   8.378   1.952  0.00  0.00    +0.000 F 
BRANCH  10  13
ATOM     13  C   UNL     1       0.491   8.531   2.477  0.00  0.00    +0.000 A 
ATOM     14  C   UNL     1       1.794   8.230   2.133  0.00  0.00    +0.000 A 
ATOM     15  N   UNL     1       2.853   8.990   2.478  0.00  0.00    +0.000 NA
ATOM     16  C   UNL     1       2.564  10.099   3.204  0.00  0.00    +0.000 A 
ATOM     17  N   UNL     1       1.335  10.478   3.604  0.00  0.00    +0.000 NA
ATOM     18  C   UNL     1       0.323   9.679   3.223  0.00  0.00    +0.000 A 
BRANCH  16  19
ATOM     19  C   UNL     1       3.733  10.970   3.605  0.00  0.00    +0.000 C 
ATOM     20  N   UNL     1       4.970  10.533   3.190  0.00  0.00    +0.000 N 
ATOM     21  O   UNL     1       3.625  12.002   4.257  0.00  0.00    +0.000 OA
ATOM     22  H   UNL     1       5.056   9.685   2.642  0.00  0.00    +0.000 HD
ATOM     23  H   UNL     1       5.785  11.081   3.424  0.00  0.00    +0.000 HD
ENDBRANCH  16  19
ENDBRANCH  10  13
ENDBRANCH   9  10
ENDBRANCH   7   9
ENDBRANCH   5   7
BRANCH   1  24
ATOM     24  O   UNL     1       2.463   1.561   2.013  0.00  0.00    +0.000 OA
BRANCH  24  29
ATOM     25  C   UNL     1       5.175   4.281   2.261  0.00  0.00    +0.000 C 
ATOM     26  C   UNL     1       4.411   3.182   1.541  0.00  0.00    +0.000 C 
ATOM     27  O   UNL     1       5.336   2.218   0.973  0.00  0.00    +0.000 OA
ATOM     28  C   UNL     1       4.958   1.243   1.975  0.00  0.00    +0.000 C 
ATOM     29  C   UNL     1       3.753   2.089   2.419  0.00  0.00    +0.000 C 
ENDBRANCH  24  29
ENDBRANCH   1  24
BRANCH   3  30
ATOM     30  C   UNL     1      -1.821   2.594  -0.098  0.00  0.00    +0.000 C 
BRANCH  30  31
ATOM     31  C   UNL     1      -2.992   1.833   0.522  0.00  0.00    +0.000 C 
ATOM     32  F   UNL     1      -2.831   1.572   1.835  0.00  0.00    +0.000 F 
ATOM     33  F   UNL     1      -4.139   2.540   0.391  0.00  0.00    +0.000 F 
ATOM     34  F   UNL     1      -3.177   0.646  -0.107  0.00  0.00    +0.000 F 
ENDBRANCH  30  31
ENDBRANCH   3  30
TORSDOF 9
