REMARK  Name = 
REMARK  5 active torsions:
REMARK  status: ('A' for Active; 'I' for Inactive)
REMARK    1  A    between atoms: N_1  and  C_2
REMARK    2  A    between atoms: C_2  and  C_3
REMARK    3  A    between atoms: C_3  and  C_4
REMARK    4  A    between atoms: C_7  and  C_8
REMARK    5  A    between atoms: C_8  and  N_9
REMARK                            x       y       z     vdW  Elec       q    Type
REMARK                         _______ _______ _______ _____ _____    ______ ____
ROOT
ATOM      1  C   UNL     1       4.717   0.588  -1.200  0.00  0.00    +0.000 A 
ATOM      2  C   UNL     1       5.473   1.294  -2.140  0.00  0.00    +0.000 A 
ATOM      3  C   UNL     1       6.863   1.319  -2.050  0.00  0.00    +0.000 A 
ATOM      4  C   UNL     1       7.530   0.637  -1.022  0.00  0.00    +0.000 A 
ATOM      5  C   UNL     1       6.772  -0.074  -0.086  0.00  0.00    +0.000 A 
ATOM      6  C   UNL     1       5.370  -0.111  -0.174  0.00  0.00    +0.000 A 
ENDROOT
BRANCH   1   7
ATOM      7  C   UNL     1       3.210   0.576  -1.290  0.00  0.00    +0.000 C 
BRANCH   7   8
ATOM      8  C   UNL     1       2.656  -0.583  -2.115  0.00  0.00    +0.000 C 
BRANCH   8   9
ATOM      9  N   UNL     1       1.186  -0.558  -2.158  0.00  0.00    +0.000 NA
ATOM     10  H   UNL     1       0.851  -1.334  -2.732  0.00  0.00    +0.000 HD
ATOM     11  H   UNL     1       0.870   0.292  -2.623  0.00  0.00    +0.000 HD
ENDBRANCH   8   9
ENDBRANCH   7   8
ENDBRANCH   1   7
BRANCH   4  12
ATOM     12  C   UNL     1       9.039   0.649  -0.939  0.00  0.00    +0.000 C 
BRANCH  12  13
ATOM     13  N   UNL     1       9.571   1.719  -0.097  0.00  0.00    +0.000 N 
ATOM     14  C   UNL     1       9.480   3.056  -0.409  0.00  0.00    +0.000 A 
ATOM     15  C   UNL     1      10.157   3.764   0.555  0.00  0.00    +0.000 A 
ATOM     16  C   UNL     1      10.968   2.828   1.241  0.00  0.00    +0.000 A 
ATOM     17  C   UNL     1      12.096   2.950   2.073  0.00  0.00    +0.000 A 
ATOM     18  C   UNL     1      12.673   1.800   2.615  0.00  0.00    +0.000 A 
ATOM     19  C   UNL     1      12.076   0.557   2.427  0.00  0.00    +0.000 A 
ATOM     20  C   UNL     1      10.958   0.409   1.597  0.00  0.00    +0.000 A 
ATOM     21  C   UNL     1      10.476   1.553   0.940  0.00  0.00    +0.000 A 
ENDBRANCH  12  13
ENDBRANCH   4  12
TORSDOF 5
