REMARK  Name = 
REMARK  6 active torsions:
REMARK  status: ('A' for Active; 'I' for Inactive)
REMARK    1  A    between atoms: C_2  and  C_4
REMARK    2  A    between atoms: C_8  and  N_9
REMARK    3  A    between atoms: N_9  and  C_10
REMARK    4  A    between atoms: C_10  and  C_11
REMARK    5  A    between atoms: C_11  and  C_12
REMARK    6  A    between atoms: C_16  and  C_17
REMARK                            x       y       z     vdW  Elec       q    Type
REMARK                         _______ _______ _______ _____ _____    ______ ____
ROOT
ATOM      1  C   UNL     1       8.592  -3.679   1.796  0.00  0.00    +0.000 C 
ENDROOT
BRANCH   1   2
ATOM      2  C   UNL     1       9.496  -4.870   1.556  0.00  0.00    +0.000 A 
ATOM      3  C   UNL     1      10.747  -4.915   2.158  0.00  0.00    +0.000 A 
ATOM      4  N   UNL     1      11.618  -5.938   2.018  0.00  0.00    +0.000 NA
ATOM      5  C   UNL     1      11.226  -6.975   1.239  0.00  0.00    +0.000 A 
ATOM      6  C   UNL     1      10.008  -7.058   0.563  0.00  0.00    +0.000 A 
ATOM      7  C   UNL     1       9.150  -5.964   0.743  0.00  0.00    +0.000 A 
BRANCH   6   8
ATOM      8  C   UNL     1       9.639  -8.215  -0.282  0.00  0.00    +0.000 A 
ATOM      9  C   UNL     1      10.605  -8.902  -1.040  0.00  0.00    +0.000 A 
ATOM     10  C   UNL     1      10.267 -10.014  -1.819  0.00  0.00    +0.000 A 
ATOM     11  C   UNL     1       8.948 -10.463  -1.874  0.00  0.00    +0.000 A 
ATOM     12 CL   UNL     1       8.606 -11.850  -2.842  0.00  0.00    +0.000 Cl
ATOM     13  C   UNL     1       7.964  -9.787  -1.151  0.00  0.00    +0.000 A 
ATOM     14 CL   UNL     1       6.303 -10.264  -1.179  0.00  0.00    +0.000 Cl
ATOM     15  C   UNL     1       8.311  -8.679  -0.363  0.00  0.00    +0.000 A 
ENDBRANCH   6   8
ENDBRANCH   1   2
BRANCH   1  16
ATOM     16  C   UNL     1       7.208  -3.809   1.151  0.00  0.00    +0.000 C 
BRANCH  16  17
ATOM     17  N   UNL     1       6.348  -2.655   1.412  0.00  0.00    +0.000 N 
ATOM     18  H   UNL     1       6.815  -1.769   1.223  0.00  0.00    +0.000 HD
BRANCH  17  23
ATOM     19  C   UNL     1       3.154  -1.467  -0.079  0.00  0.00    +0.000 A 
ATOM     20  C   UNL     1       2.502  -2.668  -0.373  0.00  0.00    +0.000 A 
ATOM     21  C   UNL     1       3.114  -3.874  -0.052  0.00  0.00    +0.000 A 
ATOM     22  C   UNL     1       4.381  -3.879   0.538  0.00  0.00    +0.000 A 
ATOM     23  C   UNL     1       5.084  -2.689   0.783  0.00  0.00    +0.000 A 
ATOM     24  C   UNL     1       4.432  -1.481   0.499  0.00  0.00    +0.000 A 
BRANCH  19  26
ATOM     25  N   UNL     1       1.169  -0.096  -0.411  0.00  0.00    +0.000 N 
ATOM     26  C   UNL     1       2.534  -0.154  -0.389  0.00  0.00    +0.000 C 
ATOM     27  O   UNL     1       3.212   0.847  -0.587  0.00  0.00    +0.000 OA
ATOM     28  H   UNL     1       0.762   0.822  -0.520  0.00  0.00    +0.000 HD
ATOM     29  H   UNL     1       0.589  -0.823  -0.011  0.00  0.00    +0.000 HD
ENDBRANCH  19  26
ENDBRANCH  17  23
ENDBRANCH  16  17
ENDBRANCH   1  16
TORSDOF 6
