REMARK  Name = 
REMARK  7 active torsions:
REMARK  status: ('A' for Active; 'I' for Inactive)
REMARK    1  A    between atoms: C_2  and  C_4
REMARK    2  A    between atoms: N_8  and  C_9
REMARK    3  A    between atoms: C_9  and  C_10
REMARK    4  A    between atoms: C_10  and  C_11
REMARK    5  A    between atoms: C_15  and  C_16
REMARK    6  A    between atoms: C_19  and  O_20
REMARK    7  A    between atoms: O_20  and  C_21
REMARK                            x       y       z     vdW  Elec       q    Type
REMARK                         _______ _______ _______ _____ _____    ______ ____
ROOT
ATOM      1  C   UNL     1       5.729  -0.900  -8.337  0.00  0.00    +0.000 A 
ATOM      2  C   UNL     1       5.183  -1.659  -9.383  0.00  0.00    +0.000 A 
ATOM      3  C   UNL     1       4.865  -1.073 -10.600  0.00  0.00    +0.000 A 
ATOM      4  C   UNL     1       5.069   0.289 -10.787  0.00  0.00    +0.000 A 
ATOM      5  C   UNL     1       5.572   1.104  -9.757  0.00  0.00    +0.000 A 
ATOM      6  C   UNL     1       5.931   0.477  -8.548  0.00  0.00    +0.000 A 
ENDROOT
BRANCH   5   7
ATOM      7  C   UNL     1       5.617   2.574  -9.916  0.00  0.00    +0.000 A 
ATOM      8  C   UNL     1       4.613   3.237 -10.646  0.00  0.00    +0.000 A 
ATOM      9  C   UNL     1       4.567   4.634 -10.754  0.00  0.00    +0.000 A 
ATOM     10  C   UNL     1       5.500   5.405 -10.080  0.00  0.00    +0.000 A 
ATOM     11  C   UNL     1       6.542   4.770  -9.399  0.00  0.00    +0.000 A 
ATOM     12  C   UNL     1       6.603   3.372  -9.320  0.00  0.00    +0.000 A 
BRANCH  10  13
ATOM     13  O   UNL     1       5.524   6.766 -10.033  0.00  0.00    +0.000 OA
BRANCH  13  14
ATOM     14  C   UNL     1       4.305   7.488 -10.159  0.00  0.00    +0.000 C 
ATOM     15  F   UNL     1       3.193   6.733 -10.049  0.00  0.00    +0.000 F 
ATOM     16  F   UNL     1       4.262   8.420  -9.179  0.00  0.00    +0.000 F 
ATOM     17  F   UNL     1       4.284   8.128 -11.348  0.00  0.00    +0.000 F 
ENDBRANCH  13  14
ENDBRANCH  10  13
ENDBRANCH   5   7
BRANCH   1  18
ATOM     18  C   UNL     1       6.083  -1.497  -6.984  0.00  0.00    +0.000 C 
BRANCH  18  19
ATOM     19  C   UNL     1       5.680  -2.966  -6.829  0.00  0.00    +0.000 C 
BRANCH  19  24
ATOM     20  C   UNL     1       5.059  -7.419  -4.560  0.00  0.00    +0.000 A 
ATOM     21  C   UNL     1       5.312  -7.135  -5.897  0.00  0.00    +0.000 A 
ATOM     22  C   UNL     1       5.636  -5.829  -6.256  0.00  0.00    +0.000 A 
ATOM     23  C   UNL     1       5.681  -4.828  -5.283  0.00  0.00    +0.000 A 
ATOM     24  N   UNL     1       6.089  -3.527  -5.554  0.00  0.00    +0.000 N 
ATOM     25  N   UNL     1       5.389  -5.087  -3.996  0.00  0.00    +0.000 NA
ATOM     26  C   UNL     1       5.081  -6.368  -3.659  0.00  0.00    +0.000 A 
ATOM     27  H   UNL     1       5.873  -2.974  -4.727  0.00  0.00    +0.000 HD
BRANCH  20  29
ATOM     28  N   UNL     1       5.310  -9.823  -4.795  0.00  0.00    +0.000 N 
ATOM     29  C   UNL     1       4.780  -8.784  -4.074  0.00  0.00    +0.000 C 
ATOM     30  O   UNL     1       4.148  -8.982  -3.049  0.00  0.00    +0.000 OA
ATOM     31  H   UNL     1       5.220 -10.742  -4.382  0.00  0.00    +0.000 HD
ATOM     32  H   UNL     1       6.044  -9.689  -5.475  0.00  0.00    +0.000 HD
ENDBRANCH  20  29
ENDBRANCH  19  24
ENDBRANCH  18  19
ENDBRANCH   1  18
TORSDOF 7
