REMARK  Name = 
REMARK  4 active torsions:
REMARK  status: ('A' for Active; 'I' for Inactive)
REMARK    1  A    between atoms: C_2  and  C_3
REMARK    2  A    between atoms: N_7  and  C_8
REMARK    3  A    between atoms: C_8  and  C_9
REMARK    4  A    between atoms: C_13  and  C_14
REMARK                            x       y       z     vdW  Elec       q    Type
REMARK                         _______ _______ _______ _____ _____    ______ ____
ROOT
ATOM      1  C   UNL     1      -4.418   1.126  -0.257  0.00  0.00    +0.000 C 
ATOM      2  C   UNL     1      -4.494   2.280  -1.243  0.00  0.00    +0.000 C 
ATOM      3  C   UNL     1      -4.351   2.587   0.209  0.00  0.00    +0.000 C 
ENDROOT
BRANCH   1   8
ATOM      4  C   UNL     1      -1.342  -2.100  -2.963  0.00  0.00    +0.000 A 
ATOM      5  C   UNL     1      -2.687  -1.799  -3.152  0.00  0.00    +0.000 A 
ATOM      6  C   UNL     1      -3.345  -0.964  -2.241  0.00  0.00    +0.000 A 
ATOM      7  C   UNL     1      -2.636  -0.447  -1.154  0.00  0.00    +0.000 A 
ATOM      8  N   UNL     1      -3.199   0.333  -0.153  0.00  0.00    +0.000 N 
ATOM      9  N   UNL     1      -1.325  -0.718  -0.981  0.00  0.00    +0.000 NA
ATOM     10  C   UNL     1      -0.709  -1.530  -1.875  0.00  0.00    +0.000 A 
ATOM     11  H   UNL     1      -2.460   0.630   0.475  0.00  0.00    +0.000 HD
BRANCH   4  13
ATOM     12  N   UNL     1      -0.031  -3.688  -4.531  0.00  0.00    +0.000 NA
ATOM     13  C   UNL     1      -0.623  -2.977  -3.836  0.00  0.00    +0.000 C 
ENDBRANCH   4  13
ENDBRANCH   1   8
BRANCH   1  14
ATOM     14  C   UNL     1      -5.688   0.451   0.251  0.00  0.00    +0.000 A 
ATOM     15  C   UNL     1      -5.853   0.184   1.620  0.00  0.00    +0.000 A 
ATOM     16  C   UNL     1      -7.115  -0.052   2.156  0.00  0.00    +0.000 A 
ATOM     17  C   UNL     1      -8.234  -0.039   1.322  0.00  0.00    +0.000 A 
ATOM     18  C   UNL     1      -8.105   0.123  -0.069  0.00  0.00    +0.000 A 
ATOM     19  C   UNL     1      -6.808   0.304  -0.581  0.00  0.00    +0.000 A 
BRANCH  18  20
ATOM     20  C   UNL     1      -9.275   0.230  -0.959  0.00  0.00    +0.000 A 
ATOM     21  N   UNL     1     -10.489   0.368  -0.393  0.00  0.00    +0.000 NA
ATOM     22  C   UNL     1     -11.516   0.606  -1.230  0.00  0.00    +0.000 A 
ATOM     23  C   UNL     1     -11.382   0.704  -2.593  0.00  0.00    +0.000 A 
ATOM     24  C   UNL     1     -10.106   0.537  -3.076  0.00  0.00    +0.000 A 
ATOM     25  N   UNL     1      -9.043   0.303  -2.289  0.00  0.00    +0.000 NA
ENDBRANCH  18  20
ENDBRANCH   1  14
TORSDOF 4
