REMARK  Name = 
REMARK  7 active torsions:
REMARK  status: ('A' for Active; 'I' for Inactive)
REMARK    1  A    between atoms: C_1  and  C_2
REMARK    2  A    between atoms: C_4  and  C_5
REMARK    3  A    between atoms: C_10  and  N_11
REMARK    4  A    between atoms: N_11  and  C_12
REMARK    5  A    between atoms: C_12  and  C_13
REMARK    6  A    between atoms: C_16  and  O_17
REMARK    7  A    between atoms: O_17  and  C_18
REMARK                            x       y       z     vdW  Elec       q    Type
REMARK                         _______ _______ _______ _____ _____    ______ ____
ROOT
ATOM      1  N   UNL     1      -1.085   2.034   0.297  0.00  0.00    +0.000 N 
ATOM      2  H   UNL     1      -0.587   2.569   1.003  0.00  0.00    +0.000 HD
ENDROOT
BRANCH   1   9
ATOM      3  C   UNL     1       1.696   1.601   1.093  0.00  0.00    +0.000 C 
ATOM      4  C   UNL     1       1.163   1.255  -0.271  0.00  0.00    +0.000 A 
ATOM      5  C   UNL     1       2.052   0.669  -1.184  0.00  0.00    +0.000 A 
ATOM      6  C   UNL     1       1.586   0.293  -2.434  0.00  0.00    +0.000 A 
ATOM      7  N   UNL     1       0.294   0.451  -2.829  0.00  0.00    +0.000 NA
ATOM      8  C   UNL     1      -0.545   1.029  -1.917  0.00  0.00    +0.000 A 
ATOM      9  C   UNL     1      -0.181   1.490  -0.648  0.00  0.00    +0.000 A 
BRANCH   6  10
ATOM     10  C   UNL     1       2.556  -0.337  -3.396  0.00  0.00    +0.000 C 
ATOM     11  N   UNL     1       2.057  -0.715  -4.609  0.00  0.00    +0.000 N 
ATOM     12  O   UNL     1       3.735  -0.518  -3.114  0.00  0.00    +0.000 OA
ATOM     13  H   UNL     1       1.073  -0.570  -4.817  0.00  0.00    +0.000 HD
ATOM     14  H   UNL     1       2.669  -1.156  -5.276  0.00  0.00    +0.000 HD
ENDBRANCH   6  10
ENDBRANCH   1   9
BRANCH   1  15
ATOM     15  C   UNL     1      -2.431   2.588   0.027  0.00  0.00    +0.000 C 
ATOM     16  C   UNL     1      -3.420   2.319   1.168  0.00  0.00    +0.000 C 
ATOM     17  C   UNL     1      -3.673   1.743  -0.183  0.00  0.00    +0.000 C 
BRANCH  15  18
ATOM     18  C   UNL     1      -2.446   3.989  -0.589  0.00  0.00    +0.000 A 
ATOM     19  C   UNL     1      -2.452   4.175  -1.982  0.00  0.00    +0.000 A 
ATOM     20  C   UNL     1      -2.566   5.445  -2.561  0.00  0.00    +0.000 A 
ATOM     21  C   UNL     1      -2.727   6.566  -1.754  0.00  0.00    +0.000 A 
ATOM     22  C   UNL     1      -2.660   6.414  -0.369  0.00  0.00    +0.000 A 
ATOM     23  C   UNL     1      -2.515   5.146   0.204  0.00  0.00    +0.000 A 
BRANCH  21  24
ATOM     24  O   UNL     1      -2.916   7.843  -2.179  0.00  0.00    +0.000 OA
BRANCH  24  25
ATOM     25  C   UNL     1      -3.573   8.080  -3.417  0.00  0.00    +0.000 C 
ATOM     26  F   UNL     1      -4.172   6.994  -3.947  0.00  0.00    +0.000 F 
ATOM     27  F   UNL     1      -4.529   9.017  -3.219  0.00  0.00    +0.000 F 
ATOM     28  F   UNL     1      -2.685   8.569  -4.308  0.00  0.00    +0.000 F 
ENDBRANCH  24  25
ENDBRANCH  21  24
ENDBRANCH  15  18
ENDBRANCH   1  15
TORSDOF 6
