REMARK  Name = 
REMARK  5 active torsions:
REMARK  status: ('A' for Active; 'I' for Inactive)
REMARK    1  A    between atoms: C_8  and  C_9
REMARK    2  A    between atoms: N_11  and  C_12
REMARK    3  A    between atoms: C_12  and  C_13
REMARK    4  A    between atoms: C_16  and  C_17
REMARK    5  A    between atoms: C_17  and  C_18
REMARK                            x       y       z     vdW  Elec       q    Type
REMARK                         _______ _______ _______ _____ _____    ______ ____
ROOT
ATOM      1  C   UNL     1       7.684  -3.921   1.417  0.00  0.00    +0.000 C 
ATOM      2  O   UNL     1       7.236  -4.553   0.463  0.00  0.00    +0.000 OA
ATOM      3  N   UNL     1       8.543  -2.866   1.229  0.00  0.00    +0.000 N 
ATOM      4  H   UNL     1       8.927  -2.359   2.022  0.00  0.00    +0.000 HD
ENDROOT
BRANCH   1  12
ATOM      5  N   UNL     1       6.510  -4.456   7.564  0.00  0.00    +0.000 N 
ATOM      6  C   UNL     1       7.171  -3.885   6.512  0.00  0.00    +0.000 A 
ATOM      7  N   UNL     1       7.992  -2.903   6.790  0.00  0.00    +0.000 NA
ATOM      8  N   UNL     1       8.664  -2.290   5.756  0.00  0.00    +0.000 N 
ATOM      9  C   UNL     1       8.564  -2.586   4.409  0.00  0.00    +0.000 A 
ATOM     10  O   UNL     1       9.206  -1.959   3.573  0.00  0.00    +0.000 OA
ATOM     11  C   UNL     1       7.669  -3.684   4.078  0.00  0.00    +0.000 A 
ATOM     12  C   UNL     1       7.303  -4.265   2.802  0.00  0.00    +0.000 A 
ATOM     13  C   UNL     1       6.425  -5.326   3.014  0.00  0.00    +0.000 A 
ATOM     14  S   UNL     1       6.038  -5.589   4.655  0.00  0.00    +0.000 S 
ATOM     15  C   UNL     1       7.021  -4.299   5.130  0.00  0.00    +0.000 A 
ATOM     16  H   UNL     1       6.933  -4.260   8.464  0.00  0.00    +0.000 HD
ATOM     17  H   UNL     1       6.186  -5.407   7.440  0.00  0.00    +0.000 HD
ATOM     18  H   UNL     1       9.275  -1.522   6.013  0.00  0.00    +0.000 HD
ENDBRANCH   1  12
BRANCH   3  19
ATOM     19  C   UNL     1       8.934  -2.444  -0.092  0.00  0.00    +0.000 C 
BRANCH  19  20
ATOM     20  C   UNL     1       9.874  -1.266  -0.061  0.00  0.00    +0.000 A 
ATOM     21  C   UNL     1      11.258  -1.458   0.032  0.00  0.00    +0.000 A 
ATOM     22  C   UNL     1      12.132  -0.365   0.049  0.00  0.00    +0.000 A 
ATOM     23  C   UNL     1      11.639   0.946  -0.031  0.00  0.00    +0.000 A 
ATOM     24  C   UNL     1      10.254   1.137  -0.107  0.00  0.00    +0.000 A 
ATOM     25  C   UNL     1       9.380   0.045  -0.111  0.00  0.00    +0.000 A 
BRANCH  23  26
ATOM     26  C   UNL     1      12.572   2.137  -0.033  0.00  0.00    +0.000 C 
BRANCH  26  27
ATOM     27  C   UNL     1      13.020   2.617  -1.398  0.00  0.00    +0.000 A 
ATOM     28  C   UNL     1      13.767   1.792  -2.238  0.00  0.00    +0.000 A 
ATOM     29  C   UNL     1      14.268   2.311  -3.430  0.00  0.00    +0.000 A 
ATOM     30  C   UNL     1      14.008   3.634  -3.759  0.00  0.00    +0.000 A 
ATOM     31  C   UNL     1      13.241   4.383  -2.884  0.00  0.00    +0.000 A 
ATOM     32  N   UNL     1      12.749   3.910  -1.717  0.00  0.00    +0.000 NA
ENDBRANCH  26  27
ENDBRANCH  23  26
ENDBRANCH  19  20
ENDBRANCH   3  19
TORSDOF 5
