REMARK  Name = 
REMARK  10 active torsions:
REMARK  status: ('A' for Active; 'I' for Inactive)
REMARK    1  A    between atoms: C_1  and  C_2
REMARK    2  A    between atoms: C_2  and  C_3
REMARK    3  A    between atoms: C_3  and  N_4
REMARK    4  A    between atoms: C_3  and  C_20
REMARK    5  A    between atoms: N_4  and  C_5
REMARK    6  A    between atoms: C_5  and  C_6
REMARK    7  A    between atoms: C_9  and  C_10
REMARK    8  A    between atoms: C_10  and  N_11
REMARK    9  A    between atoms: N_11  and  C_12
REMARK   10  A    between atoms: C_12  and  C_13
REMARK                            x       y       z     vdW  Elec       q    Type
REMARK                         _______ _______ _______ _____ _____    ______ ____
ROOT
ATOM      1  C   UNL     1      -0.228   1.663  15.990  0.00  0.00    +0.000 C 
ENDROOT
BRANCH   1   2
ATOM      2  C   UNL     1      -0.356   0.374  15.216  0.00  0.00    +0.000 A 
ATOM      3  C   UNL     1      -0.320   0.379  13.819  0.00  0.00    +0.000 A 
ATOM      4  C   UNL     1      -0.449  -0.810  13.107  0.00  0.00    +0.000 A 
ATOM      5  C   UNL     1      -0.584  -2.031  13.783  0.00  0.00    +0.000 A 
ATOM      6  C   UNL     1      -0.604  -2.039  15.182  0.00  0.00    +0.000 A 
ATOM      7  C   UNL     1      -0.496  -0.847  15.895  0.00  0.00    +0.000 A 
BRANCH   5   8
ATOM      8  C   UNL     1      -0.712  -3.318  13.012  0.00  0.00    +0.000 C 
BRANCH   8   9
ATOM      9  N   UNL     1       0.457  -3.525  12.161  0.00  0.00    +0.000 NA
ATOM     10  H   UNL     1       1.294  -3.515  12.745  0.00  0.00    +0.000 HD
BRANCH   9  11
ATOM     11  C   UNL     1       0.366  -4.807  11.459  0.00  0.00    +0.000 C 
BRANCH  11  12
ATOM     12  C   UNL     1       1.617  -5.024  10.573  0.00  0.00    +0.000 C 
ATOM     13  C   UNL     1       1.549  -6.318   9.779  0.00  0.00    +0.000 C 
ATOM     14  C   UNL     1       0.673  -5.952   8.597  0.00  0.00    +0.000 C 
ATOM     15  C   UNL     1       0.909  -4.460   8.391  0.00  0.00    +0.000 C 
ATOM     16  N   UNL     1       1.741  -4.009   9.512  0.00  0.00    +0.000 NA
ATOM     17  H   UNL     1       1.399  -3.117   9.878  0.00  0.00    +0.000 HD
ENDBRANCH  11  12
ENDBRANCH   9  11
ENDBRANCH   8   9
ENDBRANCH   5   8
ENDBRANCH   1   2
BRANCH   1  18
ATOM     18  N   UNL     1      -1.306   2.592  15.656  0.00  0.00    +0.000 NA
ATOM     19  H   UNL     1      -1.307   2.770  14.655  0.00  0.00    +0.000 HD
BRANCH  18  20
ATOM     20  C   UNL     1      -1.298   3.863  16.382  0.00  0.00    +0.000 C 
BRANCH  20  21
ATOM     21  C   UNL     1      -1.494   3.552  17.862  0.00  0.00    +0.000 A 
ATOM     22  C   UNL     1      -0.456   3.442  18.777  0.00  0.00    +0.000 A 
ATOM     23  S   UNL     1      -0.949   2.911  20.317  0.00  0.00    +0.000 S 
ATOM     24  C   UNL     1      -2.577   2.834  19.823  0.00  0.00    +0.000 A 
ATOM     25  N   UNL     1      -3.535   2.395  20.684  0.00  0.00    +0.000 NA
ATOM     26  C   UNL     1      -4.717   2.358  20.171  0.00  0.00    +0.000 A 
ATOM     27  N   UNL     1      -5.034   2.739  18.892  0.00  0.00    +0.000 N 
ATOM     28  C   UNL     1      -4.105   3.248  18.002  0.00  0.00    +0.000 A 
ATOM     29  O   UNL     1      -4.450   3.714  16.921  0.00  0.00    +0.000 OA
ATOM     30  C   UNL     1      -2.751   3.239  18.516  0.00  0.00    +0.000 A 
ATOM     31  H   UNL     1      -5.992   2.737  18.571  0.00  0.00    +0.000 HD
ENDBRANCH  20  21
BRANCH  20  33
ATOM     32  C   UNL     1       0.219   5.182  14.702  0.00  0.00    +0.000 C 
ATOM     33  C   UNL     1      -0.063   4.767  16.140  0.00  0.00    +0.000 C 
ENDBRANCH  20  33
ENDBRANCH  18  20
ENDBRANCH   1  18
TORSDOF 9
