REMARK  Name = 
REMARK  9 active torsions:
REMARK  status: ('A' for Active; 'I' for Inactive)
REMARK    1  A    between atoms: C_1  and  O_2
REMARK    2  A    between atoms: O_2  and  C_3
REMARK    3  A    between atoms: C_10  and  C_11
REMARK    4  A    between atoms: N_13  and  C_14
REMARK    5  A    between atoms: C_14  and  C_15
REMARK    6  A    between atoms: C_18  and  O_19
REMARK    7  A    between atoms: O_19  and  C_20
REMARK    8  A    between atoms: C_20  and  C_21
REMARK    9  A    between atoms: C_21  and  N_22
REMARK                            x       y       z     vdW  Elec       q    Type
REMARK                         _______ _______ _______ _____ _____    ______ ____
ROOT
ATOM      1  C   UNL     1       1.663   2.801   1.995  0.00  0.00    +0.000 A 
ATOM      2  C   UNL     1       0.493   2.138   1.595  0.00  0.00    +0.000 A 
ATOM      3  C   UNL     1      -0.497   2.807   0.861  0.00  0.00    +0.000 A 
ATOM      4  C   UNL     1      -0.331   4.152   0.532  0.00  0.00    +0.000 A 
ATOM      5  C   UNL     1       0.820   4.822   0.947  0.00  0.00    +0.000 A 
ATOM      6  C   UNL     1       1.810   4.157   1.674  0.00  0.00    +0.000 A 
ENDROOT
BRANCH   1   7
ATOM      7  C   UNL     1       2.778   2.052   2.677  0.00  0.00    +0.000 C 
BRANCH   7  10
ATOM      8  C   UNL     1       4.760   0.729   2.088  0.00  0.00    +0.000 C 
ATOM      9  O   UNL     1       4.975   0.503   3.282  0.00  0.00    +0.000 OA
ATOM     10  N   UNL     1       3.694   1.496   1.706  0.00  0.00    +0.000 N 
ATOM     11  H   UNL     1       3.547   1.713   0.729  0.00  0.00    +0.000 HD
BRANCH   8  19
ATOM     12  C   UNL     1       4.716   0.839  -1.368  0.00  0.00    +0.000 A 
ATOM     13  N   UNL     1       4.934   0.684  -2.692  0.00  0.00    +0.000 NA
ATOM     14  C   UNL     1       5.995  -0.023  -3.084  0.00  0.00    +0.000 A 
ATOM     15  N   UNL     1       6.886  -0.619  -2.301  0.00  0.00    +0.000 NA
ATOM     16  C   UNL     1       6.633  -0.457  -0.992  0.00  0.00    +0.000 A 
ATOM     17  S   UNL     1       7.679  -1.154   0.148  0.00  0.00    +0.000 S 
ATOM     18  C   UNL     1       6.750  -0.553   1.435  0.00  0.00    +0.000 A 
ATOM     19  C   UNL     1       5.638   0.184   1.039  0.00  0.00    +0.000 A 
ATOM     20  C   UNL     1       5.576   0.248  -0.420  0.00  0.00    +0.000 A 
BRANCH  12  22
ATOM     21  C   UNL     1       2.895   2.139  -2.063  0.00  0.00    +0.000 C 
ATOM     22  O   UNL     1       3.641   1.606  -0.968  0.00  0.00    +0.000 OA
ENDBRANCH  12  22
ENDBRANCH   8  19
ENDBRANCH   7  10
ENDBRANCH   1   7
BRANCH   4  23
ATOM     23  O   UNL     1      -1.193   4.898  -0.224  0.00  0.00    +0.000 OA
BRANCH  23  24
ATOM     24  C   UNL     1      -2.567   4.490  -0.223  0.00  0.00    +0.000 C 
BRANCH  24  25
ATOM     25  C   UNL     1      -3.415   5.734  -0.549  0.00  0.00    +0.000 C 
BRANCH  25  26
ATOM     26  N   UNL     1      -4.877   5.535  -0.577  0.00  0.00    +0.000 NA
ATOM     27  C   UNL     1      -5.572   6.820  -0.861  0.00  0.00    +0.000 C 
ATOM     28  C   UNL     1      -5.554   7.842   0.300  0.00  0.00    +0.000 C 
ATOM     29  N   UNL     1      -5.986   7.241   1.567  0.00  0.00    +0.000 N 
ATOM     30  C   UNL     1      -6.821   7.957   2.384  0.00  0.00    +0.000 C 
ATOM     31  N   UNL     1      -7.223   7.354   3.528  0.00  0.00    +0.000 N 
ATOM     32  O   UNL     1      -7.251   9.076   2.126  0.00  0.00    +0.000 OA
ATOM     33  C   UNL     1      -5.363   5.952   1.879  0.00  0.00    +0.000 C 
ATOM     34  C   UNL     1      -5.435   4.991   0.680  0.00  0.00    +0.000 C 
ATOM     35  H   UNL     1      -6.587   6.756   4.027  0.00  0.00    +0.000 HD
ATOM     36  H   UNL     1      -7.776   7.963   4.117  0.00  0.00    +0.000 HD
ENDBRANCH  25  26
ENDBRANCH  24  25
ENDBRANCH  23  24
ENDBRANCH   4  23
TORSDOF 8
