REMARK  Name = 
REMARK  11 active torsions:
REMARK  status: ('A' for Active; 'I' for Inactive)
REMARK    1  A    between atoms: C_1  and  C_2
REMARK    2  A    between atoms: C_2  and  C_3
REMARK    3  A    between atoms: C_3  and  N_4
REMARK    4  A    between atoms: C_3  and  C_20
REMARK    5  A    between atoms: N_4  and  C_5
REMARK    6  A    between atoms: C_5  and  C_6
REMARK    7  A    between atoms: C_9  and  C_10
REMARK    8  A    between atoms: C_10  and  O_11
REMARK    9  A    between atoms: C_10  and  C_12
REMARK   10  A    between atoms: C_12  and  N_13
REMARK   11  A    between atoms: C_20  and  C_22
REMARK                            x       y       z     vdW  Elec       q    Type
REMARK                         _______ _______ _______ _____ _____    ______ ____
ROOT
ATOM      1  N   UNL     1       2.253   2.203  -0.742  0.00  0.00    +0.000 NA
ATOM      2  H   UNL     1       2.653   2.973  -1.276  0.00  0.00    +0.000 HD
ENDROOT
BRANCH   1   3
ATOM      3  C   UNL     1       2.833   0.922  -1.202  0.00  0.00    +0.000 C 
BRANCH   3   5
ATOM      4  C   UNL     1       3.080   1.716  -3.648  0.00  0.00    +0.000 C 
ATOM      5  C   UNL     1       2.607   0.623  -2.700  0.00  0.00    +0.000 C 
ENDBRANCH   3   5
BRANCH   3   6
ATOM      6  C   UNL     1       2.393  -0.289  -0.331  0.00  0.00    +0.000 C 
ATOM      7  O   UNL     1       1.735  -1.205  -0.832  0.00  0.00    +0.000 OA
BRANCH   6   8
ATOM      8  C   UNL     1       2.730  -0.348   1.104  0.00  0.00    +0.000 A 
ATOM      9  C   UNL     1       2.851   0.756   1.929  0.00  0.00    +0.000 A 
ATOM     10  S   UNL     1       2.965   0.351   3.587  0.00  0.00    +0.000 S 
ATOM     11  C   UNL     1       2.921  -1.314   3.241  0.00  0.00    +0.000 A 
ATOM     12  N   UNL     1       2.922  -2.244   4.234  0.00  0.00    +0.000 NA
ATOM     13  C   UNL     1       2.889  -3.465   3.813  0.00  0.00    +0.000 A 
ATOM     14  N   UNL     1       2.893  -3.842   2.493  0.00  0.00    +0.000 N 
ATOM     15  C   UNL     1       3.028  -2.936   1.461  0.00  0.00    +0.000 A 
ATOM     16  O   UNL     1       3.336  -3.302   0.332  0.00  0.00    +0.000 OA
ATOM     17  C   UNL     1       2.903  -1.553   1.880  0.00  0.00    +0.000 A 
ATOM     18  H   UNL     1       2.986  -4.814   2.239  0.00  0.00    +0.000 HD
ENDBRANCH   6   8
ENDBRANCH   3   6
ENDBRANCH   1   3
BRANCH   1  19
ATOM     19  C   UNL     1       0.796   2.301  -0.801  0.00  0.00    +0.000 C 
BRANCH  19  20
ATOM     20  C   UNL     1       0.355   3.625  -0.207  0.00  0.00    +0.000 A 
ATOM     21  C   UNL     1       0.319   4.791  -0.983  0.00  0.00    +0.000 A 
ATOM     22  C   UNL     1      -0.032   6.021  -0.407  0.00  0.00    +0.000 A 
ATOM     23  C   UNL     1      -0.347   6.116   0.960  0.00  0.00    +0.000 A 
ATOM     24  C   UNL     1      -0.328   4.939   1.720  0.00  0.00    +0.000 A 
ATOM     25  C   UNL     1       0.028   3.716   1.152  0.00  0.00    +0.000 A 
BRANCH  23  26
ATOM     26  C   UNL     1      -0.710   7.467   1.555  0.00  0.00    +0.000 C 
BRANCH  26  27
ATOM     27  O   UNL     1      -2.121   7.666   1.397  0.00  0.00    +0.000 OA
ATOM     28  H   UNL     1      -2.544   6.797   1.514  0.00  0.00    +0.000 HD
ENDBRANCH  26  27
BRANCH  26  29
ATOM     29  C   UNL     1      -0.369   7.671   3.061  0.00  0.00    +0.000 C 
BRANCH  29  30
ATOM     30  N   UNL     1       1.039   7.466   3.429  0.00  0.00    +0.000 NA
ATOM     31  C   UNL     1       1.932   8.472   2.835  0.00  0.00    +0.000 C 
ATOM     32  C   UNL     1       2.819   8.913   3.988  0.00  0.00    +0.000 C 
ATOM     33  N   UNL     1       1.937   8.767   5.149  0.00  0.00    +0.000 NA
ATOM     34  C   UNL     1       1.252   7.512   4.870  0.00  0.00    +0.000 C 
ATOM     35  H   UNL     1       1.232   9.500   5.109  0.00  0.00    +0.000 HD
ENDBRANCH  29  30
ENDBRANCH  26  29
ENDBRANCH  23  26
ENDBRANCH  19  20
ENDBRANCH   1  19
TORSDOF 10
