REMARK  Name = 
REMARK  5 active torsions:
REMARK  status: ('A' for Active; 'I' for Inactive)
REMARK    1  A    between atoms: N_1  and  C_2
REMARK    2  A    between atoms: C_2  and  C_3
REMARK    3  A    between atoms: C_6  and  O_7
REMARK    4  A    between atoms: O_7  and  C_8
REMARK    5  A    between atoms: C_8  and  C_9
REMARK                            x       y       z     vdW  Elec       q    Type
REMARK                         _______ _______ _______ _____ _____    ______ ____
ROOT
ATOM      1  C   UNL     1       2.923   0.850   1.192  0.00  0.00    +0.000 A 
ATOM      2  C   UNL     1       3.514   0.252   2.316  0.00  0.00    +0.000 A 
ATOM      3  C   UNL     1       3.930   1.021   3.402  0.00  0.00    +0.000 A 
ATOM      4  C   UNL     1       3.777   2.407   3.380  0.00  0.00    +0.000 A 
ATOM      5  C   UNL     1       3.144   3.010   2.293  0.00  0.00    +0.000 A 
ATOM      6  C   UNL     1       2.722   2.239   1.205  0.00  0.00    +0.000 A 
ATOM      7 CL   UNL     1       1.945   3.059  -0.104  0.00  0.00    +0.000 Cl
ENDROOT
BRANCH   1   8
ATOM      8  C   UNL     1       2.484  -0.038   0.057  0.00  0.00    +0.000 C 
BRANCH   8   9
ATOM      9  N   UNL     1       1.128  -0.525   0.275  0.00  0.00    +0.000 NA
ATOM     10  H   UNL     1       0.830  -1.055  -0.543  0.00  0.00    +0.000 HD
ATOM     11  H   UNL     1       0.500   0.276   0.333  0.00  0.00    +0.000 HD
ENDBRANCH   8   9
ENDBRANCH   1   8
BRANCH   4  12
ATOM     12  O   UNL     1       4.205   3.257   4.365  0.00  0.00    +0.000 OA
BRANCH  12  13
ATOM     13  C   UNL     1       5.245   2.736   5.196  0.00  0.00    +0.000 C 
BRANCH  13  14
ATOM     14  C   UNL     1       6.013   3.823   5.905  0.00  0.00    +0.000 A 
ATOM     15  C   UNL     1       5.651   5.171   5.854  0.00  0.00    +0.000 A 
ATOM     16  C   UNL     1       6.441   6.095   6.521  0.00  0.00    +0.000 A 
ATOM     17  N   UNL     1       7.545   5.774   7.229  0.00  0.00    +0.000 NA
ATOM     18  C   UNL     1       7.874   4.467   7.274  0.00  0.00    +0.000 A 
ATOM     19  C   UNL     1       7.150   3.470   6.643  0.00  0.00    +0.000 A 
ENDBRANCH  13  14
ENDBRANCH  12  13
ENDBRANCH   4  12
TORSDOF 5
