REMARK  Name = 
REMARK  4 active torsions:
REMARK  status: ('A' for Active; 'I' for Inactive)
REMARK    1  A    between atoms: C_2  and  C_4
REMARK    2  A    between atoms: N_8  and  C_9
REMARK    3  A    between atoms: C_9  and  C_10
REMARK    4  A    between atoms: C_14  and  C_15
REMARK                            x       y       z     vdW  Elec       q    Type
REMARK                         _______ _______ _______ _____ _____    ______ ____
ROOT
ATOM      1  C   UNL     1       5.406  -5.211   2.481  0.00  0.00    +0.000 C 
ENDROOT
BRANCH   1   6
ATOM      2  C   UNL     1       3.528  -0.602   1.331  0.00  0.00    +0.000 A 
ATOM      3  C   UNL     1       3.181  -1.441   2.385  0.00  0.00    +0.000 A 
ATOM      4  C   UNL     1       3.948  -2.582   2.625  0.00  0.00    +0.000 A 
ATOM      5  C   UNL     1       5.029  -2.877   1.800  0.00  0.00    +0.000 A 
ATOM      6  N   UNL     1       5.900  -3.921   2.040  0.00  0.00    +0.000 N 
ATOM      7  N   UNL     1       5.356  -2.087   0.760  0.00  0.00    +0.000 NA
ATOM      8  C   UNL     1       4.604  -0.974   0.541  0.00  0.00    +0.000 A 
ATOM      9  H   UNL     1       6.540  -3.969   1.249  0.00  0.00    +0.000 HD
BRANCH   2  11
ATOM     10  N   UNL     1       2.155   1.262   2.067  0.00  0.00    +0.000 N 
ATOM     11  C   UNL     1       2.806   0.650   1.031  0.00  0.00    +0.000 C 
ATOM     12  O   UNL     1       2.819   1.142  -0.091  0.00  0.00    +0.000 OA
ATOM     13  H   UNL     1       1.760   2.174   1.871  0.00  0.00    +0.000 HD
ATOM     14  H   UNL     1       2.334   1.033   3.033  0.00  0.00    +0.000 HD
ENDBRANCH   2  11
ENDBRANCH   1   6
BRANCH   1  15
ATOM     15  C   UNL     1       6.506  -6.011   3.145  0.00  0.00    +0.000 A 
ATOM     16  C   UNL     1       6.429  -7.403   3.186  0.00  0.00    +0.000 A 
ATOM     17  C   UNL     1       7.411  -8.101   3.868  0.00  0.00    +0.000 A 
ATOM     18  N   UNL     1       8.441  -7.516   4.515  0.00  0.00    +0.000 NA
ATOM     19  C   UNL     1       8.511  -6.161   4.506  0.00  0.00    +0.000 A 
ATOM     20  C   UNL     1       7.563  -5.392   3.829  0.00  0.00    +0.000 A 
BRANCH  19  21
ATOM     21  C   UNL     1       9.628  -5.569   5.272  0.00  0.00    +0.000 A 
ATOM     22  C   UNL     1      10.854  -6.252   5.408  0.00  0.00    +0.000 A 
ATOM     23  C   UNL     1      11.919  -5.714   6.140  0.00  0.00    +0.000 A 
ATOM     24  C   UNL     1      11.778  -4.477   6.760  0.00  0.00    +0.000 A 
ATOM     25  C   UNL     1      10.576  -3.794   6.642  0.00  0.00    +0.000 A 
ATOM     26  F   UNL     1      10.431  -2.607   7.246  0.00  0.00    +0.000 F 
ATOM     27  C   UNL     1       9.513  -4.322   5.914  0.00  0.00    +0.000 A 
ENDBRANCH  19  21
ENDBRANCH   1  15
TORSDOF 4
