REMARK  Name = 
REMARK  9 active torsions:
REMARK  status: ('A' for Active; 'I' for Inactive)
REMARK    1  A    between atoms: C_1  and  C_2
REMARK    2  A    between atoms: C_2  and  N_3
REMARK    3  A    between atoms: C_6  and  C_7
REMARK    4  A    between atoms: C_11  and  C_12
REMARK    5  A    between atoms: C_12  and  C_13
REMARK    6  A    between atoms: C_12  and  C_14
REMARK    7  A    between atoms: C_12  and  C_15
REMARK    8  A    between atoms: C_15  and  N_16
REMARK    9  A    between atoms: C_20  and  C_21
REMARK                            x       y       z     vdW  Elec       q    Type
REMARK                         _______ _______ _______ _____ _____    ______ ____
ROOT
ATOM      1  C   UNL     1      -1.859  -2.913  -6.252  0.00  0.00    +0.000 C 
ATOM      2  C   UNL     1      -2.862  -4.067  -6.047  0.00  0.00    +0.000 C 
ATOM      3  C   UNL     1      -2.606  -1.647  -6.732  0.00  0.00    +0.000 C 
ENDROOT
BRANCH   1   8
ATOM      4  C   UNL     1       0.896  -2.114  -3.599  0.00  0.00    +0.000 A 
ATOM      5  C   UNL     1       0.086  -1.693  -2.537  0.00  0.00    +0.000 A 
ATOM      6  C   UNL     1      -1.306  -1.750  -2.622  0.00  0.00    +0.000 A 
ATOM      7  C   UNL     1      -1.925  -2.185  -3.792  0.00  0.00    +0.000 A 
ATOM      8  C   UNL     1      -1.164  -2.565  -4.907  0.00  0.00    +0.000 A 
ATOM      9  C   UNL     1       0.242  -2.537  -4.771  0.00  0.00    +0.000 A 
BRANCH   4  13
ATOM     10  N   UNL     1       3.519  -4.473  -2.275  0.00  0.00    +0.000 NA
ATOM     11  C   UNL     1       3.096  -4.462  -3.686  0.00  0.00    +0.000 C 
ATOM     12  C   UNL     1       3.199  -3.086  -4.347  0.00  0.00    +0.000 C 
ATOM     13  C   UNL     1       2.428  -2.006  -3.561  0.00  0.00    +0.000 C 
ATOM     14  C   UNL     1       3.054  -2.004  -2.158  0.00  0.00    +0.000 C 
ATOM     15  C   UNL     1       2.927  -3.375  -1.490  0.00  0.00    +0.000 C 
BRANCH  10  17
ATOM     16  C   UNL     1       3.921  -6.957  -2.177  0.00  0.00    +0.000 C 
ATOM     17  C   UNL     1       3.162  -5.754  -1.629  0.00  0.00    +0.000 C 
ENDBRANCH  10  17
ENDBRANCH   4  13
ENDBRANCH   1   8
BRANCH   1  18
ATOM     18  C   UNL     1      -0.820  -3.332  -7.332  0.00  0.00    +0.000 C 
BRANCH  18  19
ATOM     19  N   UNL     1      -1.389  -3.665  -8.647  0.00  0.00    +0.000 N 
ATOM     20  C   UNL     1      -0.371  -4.018  -9.567  0.00  0.00    +0.000 A 
ATOM     21  C   UNL     1      -0.735  -4.325 -10.873  0.00  0.00    +0.000 A 
ATOM     22  C   UNL     1       0.256  -4.667 -11.794  0.00  0.00    +0.000 A 
ATOM     23  C   UNL     1       1.595  -4.698 -11.394  0.00  0.00    +0.000 A 
ATOM     24  C   UNL     1       1.863  -4.393 -10.072  0.00  0.00    +0.000 A 
ATOM     25  N   UNL     1       0.914  -4.064  -9.164  0.00  0.00    +0.000 NA
ATOM     26  H   UNL     1      -1.903  -2.886  -9.051  0.00  0.00    +0.000 HD
BRANCH  23  27
ATOM     27  C   UNL     1       2.646  -5.042 -12.377  0.00  0.00    +0.000 C 
ATOM     28  N   UNL     1       3.953  -5.053 -11.975  0.00  0.00    +0.000 N 
ATOM     29  O   UNL     1       2.360  -5.310 -13.539  0.00  0.00    +0.000 OA
ATOM     30  H   UNL     1       4.300  -4.850 -11.052  0.00  0.00    +0.000 HD
ATOM     31  H   UNL     1       4.635  -5.295 -12.686  0.00  0.00    +0.000 HD
ENDBRANCH  23  27
ENDBRANCH  18  19
ENDBRANCH   1  18
TORSDOF 6
