REMARK  Name = 
REMARK  4 active torsions:
REMARK  status: ('A' for Active; 'I' for Inactive)
REMARK    1  A    between atoms: C_2  and  C_5
REMARK    2  A    between atoms: N_10  and  C_11
REMARK    3  A    between atoms: C_11  and  C_12
REMARK    4  A    between atoms: C_16  and  C_17
REMARK                            x       y       z     vdW  Elec       q    Type
REMARK                         _______ _______ _______ _____ _____    ______ ____
ROOT
ATOM      1  C   UNL     1       4.661   2.246  -5.212  0.00  0.00    +0.000 C 
ENDROOT
BRANCH   1   7
ATOM      2  C   UNL     1       5.243   3.017  -0.645  0.00  0.00    +0.000 A 
ATOM      3  C   UNL     1       4.264   3.993  -0.624  0.00  0.00    +0.000 A 
ATOM      4  C   UNL     1       3.747   4.350  -1.843  0.00  0.00    +0.000 A 
ATOM      5  N   UNL     1       4.151   3.810  -3.005  0.00  0.00    +0.000 NA
ATOM      6  C   UNL     1       5.109   2.876  -2.952  0.00  0.00    +0.000 A 
ATOM      7  N   UNL     1       5.611   2.323  -4.117  0.00  0.00    +0.000 N 
ATOM      8  N   UNL     1       5.661   2.450  -1.810  0.00  0.00    +0.000 NA
ATOM      9  H   UNL     1       6.043   1.437  -3.878  0.00  0.00    +0.000 HD
BRANCH   2  11
ATOM     10  F   UNL     1       5.393   3.232   1.750  0.00  0.00    +0.000 F 
ATOM     11  C   UNL     1       5.885   2.571   0.659  0.00  0.00    +0.000 C 
ATOM     12  F   UNL     1       7.232   2.776   0.692  0.00  0.00    +0.000 F 
ATOM     13  F   UNL     1       5.694   1.247   0.926  0.00  0.00    +0.000 F 
ENDBRANCH   2  11
ENDBRANCH   1   7
BRANCH   1  14
ATOM     14  C   UNL     1       5.330   1.654  -6.442  0.00  0.00    +0.000 A 
ATOM     15  C   UNL     1       6.028   2.486  -7.313  0.00  0.00    +0.000 A 
ATOM     16  C   UNL     1       6.626   1.928  -8.435  0.00  0.00    +0.000 A 
ATOM     17  C   UNL     1       6.531   0.557  -8.645  0.00  0.00    +0.000 A 
ATOM     18  C   UNL     1       5.847  -0.234  -7.722  0.00  0.00    +0.000 A 
ATOM     19  N   UNL     1       5.242   0.308  -6.632  0.00  0.00    +0.000 NA
BRANCH  18  20
ATOM     20  C   UNL     1       5.726  -1.695  -7.869  0.00  0.00    +0.000 A 
ATOM     21  C   UNL     1       4.609  -2.387  -7.393  0.00  0.00    +0.000 A 
ATOM     22  N   UNL     1       4.409  -3.727  -7.514  0.00  0.00    +0.000 NA
ATOM     23  C   UNL     1       5.383  -4.430  -8.133  0.00  0.00    +0.000 A 
ATOM     24  C   UNL     1       6.540  -3.854  -8.629  0.00  0.00    +0.000 A 
ATOM     25 CL   UNL     1       7.740  -4.810  -9.401  0.00  0.00    +0.000 Cl
ATOM     26  C   UNL     1       6.712  -2.480  -8.493  0.00  0.00    +0.000 A 
ENDBRANCH  18  20
ENDBRANCH   1  14
TORSDOF 4
