REMARK  Name = 
REMARK  5 active torsions:
REMARK  status: ('A' for Active; 'I' for Inactive)
REMARK    1  A    between atoms: C_2  and  C_5
REMARK    2  A    between atoms: C_9  and  N_10
REMARK    3  A    between atoms: N_10  and  C_11
REMARK    4  A    between atoms: C_11  and  C_12
REMARK    5  A    between atoms: C_17  and  C_18
REMARK                            x       y       z     vdW  Elec       q    Type
REMARK                         _______ _______ _______ _____ _____    ______ ____
ROOT
ATOM      1  C   UNL     1       4.066   2.943  -3.686  0.00  0.00    +0.000 C 
ENDROOT
BRANCH   1   2
ATOM      2  C   UNL     1       4.423   3.937  -4.772  0.00  0.00    +0.000 A 
ATOM      3  C   UNL     1       5.127   3.526  -5.903  0.00  0.00    +0.000 A 
ATOM      4  C   UNL     1       5.478   4.454  -6.881  0.00  0.00    +0.000 A 
ATOM      5  C   UNL     1       5.126   5.806  -6.748  0.00  0.00    +0.000 A 
ATOM      6 CL   UNL     1       5.751   6.856  -7.978  0.00  0.00    +0.000 Cl
ATOM      7  C   UNL     1       4.364   6.260  -5.648  0.00  0.00    +0.000 A 
ATOM      8  C   UNL     1       4.024   5.285  -4.675  0.00  0.00    +0.000 A 
BRANCH   7   9
ATOM      9  C   UNL     1       3.916   7.667  -5.443  0.00  0.00    +0.000 A 
ATOM     10  C   UNL     1       3.888   8.254  -4.165  0.00  0.00    +0.000 A 
ATOM     11  C   UNL     1       3.439   9.563  -3.979  0.00  0.00    +0.000 A 
ATOM     12  C   UNL     1       3.038  10.282  -5.088  0.00  0.00    +0.000 A 
ATOM     13  N   UNL     1       3.030   9.773  -6.333  0.00  0.00    +0.000 NA
ATOM     14  C   UNL     1       3.454   8.488  -6.475  0.00  0.00    +0.000 A 
ENDBRANCH   7   9
ENDBRANCH   1   2
BRANCH   1  15
ATOM     15  N   UNL     1       2.787   2.335  -4.013  0.00  0.00    +0.000 N 
ATOM     16  H   UNL     1       2.074   3.032  -4.208  0.00  0.00    +0.000 HD
BRANCH  15  21
ATOM     17  C   UNL     1       2.532   0.106  -1.159  0.00  0.00    +0.000 A 
ATOM     18  C   UNL     1       1.292  -0.465  -1.402  0.00  0.00    +0.000 A 
ATOM     19  N   UNL     1       0.531  -0.139  -2.469  0.00  0.00    +0.000 NA
ATOM     20  C   UNL     1       1.073   0.792  -3.294  0.00  0.00    +0.000 A 
ATOM     21  C   UNL     1       2.309   1.406  -3.079  0.00  0.00    +0.000 A 
ATOM     22  N   UNL     1       3.053   1.054  -2.006  0.00  0.00    +0.000 NA
BRANCH  17  24
ATOM     23  F   UNL     1       2.656  -1.253   0.822  0.00  0.00    +0.000 F 
ATOM     24  C   UNL     1       3.313  -0.326   0.061  0.00  0.00    +0.000 C 
ATOM     25  F   UNL     1       3.590   0.704   0.911  0.00  0.00    +0.000 F 
ATOM     26  F   UNL     1       4.513  -0.896  -0.243  0.00  0.00    +0.000 F 
ENDBRANCH  17  24
ENDBRANCH  15  21
ENDBRANCH   1  15
TORSDOF 5
