REMARK  Name = 
REMARK  4 active torsions:
REMARK  status: ('A' for Active; 'I' for Inactive)
REMARK    1  A    between atoms: C_1  and  C_2
REMARK    2  A    between atoms: C_2  and  C_3
REMARK    3  A    between atoms: C_6  and  C_7
REMARK    4  A    between atoms: C_14  and  C_15
REMARK                            x       y       z     vdW  Elec       q    Type
REMARK                         _______ _______ _______ _____ _____    ______ ____
ROOT
ATOM      1  C   UNL     1      -1.753   0.076  -0.613  0.00  0.00    +0.000 C 
ATOM      2  C   UNL     1      -0.657   0.020   0.473  0.00  0.00    +0.000 C 
ATOM      3  C   UNL     1       0.372  -1.118   0.165  0.00  0.00    +0.000 C 
ATOM      4  C   UNL     1       1.234  -0.103  -0.597  0.00  0.00    +0.000 C 
ATOM      5  C   UNL     1       0.515   1.039   0.181  0.00  0.00    +0.000 C 
ENDROOT
BRANCH   5   6
ATOM      6  C   UNL     1       1.332   1.748   1.367  0.00  0.00    +0.000 A 
ATOM      7  C   UNL     1       1.130   3.111   1.672  0.00  0.00    +0.000 A 
ATOM      8  C   UNL     1       1.928   3.795   2.598  0.00  0.00    +0.000 A 
ATOM      9  C   UNL     1       2.953   3.124   3.252  0.00  0.00    +0.000 A 
ATOM     10 CL   UNL     1       3.988   3.973   4.332  0.00  0.00    +0.000 Cl
ATOM     11  C   UNL     1       3.158   1.771   3.017  0.00  0.00    +0.000 A 
ATOM     12  C   UNL     1       2.349   1.096   2.097  0.00  0.00    +0.000 A 
ENDBRANCH   5   6
BRANCH   2  13
ATOM     13  C   UNL     1      -1.363   0.024   1.919  0.00  0.00    +0.000 A 
ATOM     14  C   UNL     1      -1.226  -1.026   2.849  0.00  0.00    +0.000 A 
ATOM     15  C   UNL     1      -1.876  -1.008   4.082  0.00  0.00    +0.000 A 
ATOM     16  C   UNL     1      -2.680   0.077   4.378  0.00  0.00    +0.000 A 
ATOM     17  N   UNL     1      -2.872   1.122   3.530  0.00  0.00    +0.000 NA
ATOM     18  C   UNL     1      -2.211   1.061   2.347  0.00  0.00    +0.000 A 
BRANCH  16  19
ATOM     19  C   UNL     1      -3.392   0.134   5.697  0.00  0.00    +0.000 C 
ATOM     20  N   UNL     1      -4.161   1.247   5.896  0.00  0.00    +0.000 N 
ATOM     21  O   UNL     1      -3.296  -0.746   6.539  0.00  0.00    +0.000 OA
ATOM     22  H   UNL     1      -4.197   1.963   5.181  0.00  0.00    +0.000 HD
ATOM     23  H   UNL     1      -4.650   1.366   6.773  0.00  0.00    +0.000 HD
ENDBRANCH  16  19
ENDBRANCH   2  13
TORSDOF 3
