REMARK  Name = 
REMARK  6 active torsions:
REMARK  status: ('A' for Active; 'I' for Inactive)
REMARK    1  A    between atoms: C_2  and  C_18
REMARK    2  A    between atoms: N_3  and  C_4
REMARK    3  A    between atoms: C_4  and  C_5
REMARK    4  A    between atoms: C_8  and  C_9
REMARK    5  A    between atoms: C_9  and  N_10
REMARK    6  A    between atoms: N_10  and  C_11
REMARK                            x       y       z     vdW  Elec       q    Type
REMARK                         _______ _______ _______ _____ _____    ______ ____
ROOT
ATOM      1  O   UNL     1       3.457   1.277   1.104  0.00  0.00    +0.000 OA
ATOM      2  C   UNL     1       3.484   0.212   0.490  0.00  0.00    +0.000 C 
ATOM      3  N   UNL     1       2.873  -0.922   0.954  0.00  0.00    +0.000 N 
ATOM      4  H   UNL     1       3.070  -1.809   0.503  0.00  0.00    +0.000 HD
ENDROOT
BRANCH   2   5
ATOM      5  C   UNL     1       4.148   0.094  -0.811  0.00  0.00    +0.000 A 
ATOM      6  C   UNL     1       4.311   1.218  -1.611  0.00  0.00    +0.000 A 
ATOM      7  S   UNL     1       5.134   0.897  -3.070  0.00  0.00    +0.000 S 
ATOM      8  C   UNL     1       5.329  -0.744  -2.665  0.00  0.00    +0.000 A 
ATOM      9  N   UNL     1       6.008  -1.591  -3.482  0.00  0.00    +0.000 NA
ATOM     10  C   UNL     1       6.118  -2.799  -3.026  0.00  0.00    +0.000 A 
ATOM     11  N   UNL     1       5.592  -3.235  -1.841  0.00  0.00    +0.000 N 
ATOM     12  C   UNL     1       4.817  -2.439  -1.032  0.00  0.00    +0.000 A 
ATOM     13  O   UNL     1       4.214  -2.904  -0.071  0.00  0.00    +0.000 OA
ATOM     14  C   UNL     1       4.732  -1.054  -1.458  0.00  0.00    +0.000 A 
ATOM     15  H   UNL     1       5.673  -4.204  -1.563  0.00  0.00    +0.000 HD
ENDBRANCH   2   5
BRANCH   3  16
ATOM     16  C   UNL     1       2.263  -0.995   2.255  0.00  0.00    +0.000 C 
BRANCH  16  17
ATOM     17  C   UNL     1       3.227  -1.491   3.291  0.00  0.00    +0.000 A 
ATOM     18  C   UNL     1       4.066  -0.615   3.980  0.00  0.00    +0.000 A 
ATOM     19  C   UNL     1       4.918  -1.105   4.967  0.00  0.00    +0.000 A 
ATOM     20  C   UNL     1       4.920  -2.472   5.244  0.00  0.00    +0.000 A 
ATOM     21  N   UNL     1       4.138  -3.345   4.560  0.00  0.00    +0.000 NA
ATOM     22  C   UNL     1       3.330  -2.842   3.599  0.00  0.00    +0.000 A 
BRANCH  20  23
ATOM     23  C   UNL     1       5.754  -3.015   6.394  0.00  0.00    +0.000 C 
BRANCH  23  24
ATOM     24  N   UNL     1       6.792  -3.961   5.974  0.00  0.00    +0.000 NA
ATOM     25  H   UNL     1       7.434  -3.526   5.315  0.00  0.00    +0.000 HD
BRANCH  24  26
ATOM     26  C   UNL     1       7.497  -4.589   7.098  0.00  0.00    +0.000 C 
ATOM     27  C   UNL     1       8.367  -3.649   7.915  0.00  0.00    +0.000 C 
ATOM     28  C   UNL     1       9.672  -3.607   7.150  0.00  0.00    +0.000 C 
ATOM     29  O   UNL     1       9.786  -4.840   6.432  0.00  0.00    +0.000 OA
ATOM     30  C   UNL     1       8.559  -5.572   6.590  0.00  0.00    +0.000 C 
ENDBRANCH  24  26
ENDBRANCH  23  24
ENDBRANCH  20  23
ENDBRANCH  16  17
ENDBRANCH   3  16
TORSDOF 6
