REMARK  Name = 
REMARK  7 active torsions:
REMARK  status: ('A' for Active; 'I' for Inactive)
REMARK    1  A    between atoms: N_1  and  C_2
REMARK    2  A    between atoms: C_2  and  C_3
REMARK    3  A    between atoms: C_3  and  N_4
REMARK    4  A    between atoms: C_3  and  C_17
REMARK    5  A    between atoms: C_5  and  C_7
REMARK    6  A    between atoms: C_20  and  O_21
REMARK    7  A    between atoms: O_21  and  C_22
REMARK                            x       y       z     vdW  Elec       q    Type
REMARK                         _______ _______ _______ _____ _____    ______ ____
ROOT
ATOM      1  C   UNL     1       3.084   0.979   0.940  0.00  0.00    +0.000 C 
ENDROOT
BRANCH   1   2
ATOM      2  C   UNL     1       4.587   1.194   0.825  0.00  0.00    +0.000 A 
ATOM      3  C   UNL     1       5.043   2.196  -0.046  0.00  0.00    +0.000 A 
ATOM      4  C   UNL     1       6.404   2.369  -0.293  0.00  0.00    +0.000 A 
ATOM      5  C   UNL     1       7.348   1.595   0.382  0.00  0.00    +0.000 A 
ATOM      6  C   UNL     1       6.912   0.584   1.240  0.00  0.00    +0.000 A 
ATOM      7  C   UNL     1       5.541   0.377   1.452  0.00  0.00    +0.000 A 
BRANCH   5   8
ATOM      8  O   UNL     1       8.713   1.719   0.223  0.00  0.00    +0.000 OA
BRANCH   8   9
ATOM      9  C   UNL     1       9.243   2.938  -0.138  0.00  0.00    +0.000 A 
ATOM     10  C   UNL     1       8.774   4.157   0.353  0.00  0.00    +0.000 A 
ATOM     11  C   UNL     1       9.345   5.317  -0.136  0.00  0.00    +0.000 A 
ATOM     12  N   UNL     1      10.375   5.336  -1.006  0.00  0.00    +0.000 NA
ATOM     13  C   UNL     1      10.858   4.138  -1.403  0.00  0.00    +0.000 A 
ATOM     14  C   UNL     1      10.331   2.923  -1.003  0.00  0.00    +0.000 A 
ENDBRANCH   8   9
ENDBRANCH   5   8
ENDBRANCH   1   2
BRANCH   1  15
ATOM     15  N   UNL     1       2.672   0.081  -0.133  0.00  0.00    +0.000 N 
ATOM     16  C   UNL     1       1.405   0.079  -0.652  0.00  0.00    +0.000 C 
ATOM     17  O   UNL     1       0.554   0.876  -0.259  0.00  0.00    +0.000 OA
ATOM     18  H   UNL     1       3.357  -0.602  -0.442  0.00  0.00    +0.000 HD
BRANCH  16  19
ATOM     19  C   UNL     1       1.098  -0.906  -1.702  0.00  0.00    +0.000 A 
ATOM     20  C   UNL     1      -0.136  -0.852  -2.340  0.00  0.00    +0.000 A 
ATOM     21  S   UNL     1      -0.353  -2.048  -3.533  0.00  0.00    +0.000 S 
ATOM     22  C   UNL     1       1.190  -2.698  -3.234  0.00  0.00    +0.000 A 
ATOM     23  N   UNL     1       1.633  -3.780  -3.934  0.00  0.00    +0.000 NA
ATOM     24  C   UNL     1       2.812  -4.184  -3.600  0.00  0.00    +0.000 A 
ATOM     25  N   UNL     1       3.590  -3.605  -2.634  0.00  0.00    +0.000 N 
ATOM     26  C   UNL     1       3.187  -2.506  -1.907  0.00  0.00    +0.000 A 
ATOM     27  O   UNL     1       3.914  -2.016  -1.053  0.00  0.00    +0.000 OA
ATOM     28  C   UNL     1       1.866  -2.009  -2.241  0.00  0.00    +0.000 A 
ATOM     29  H   UNL     1       4.508  -3.968  -2.421  0.00  0.00    +0.000 HD
ENDBRANCH  16  19
ENDBRANCH   1  15
BRANCH   1  30
ATOM     30  C   UNL     1       2.561   0.485   2.321  0.00  0.00    +0.000 C 
BRANCH  30  31
ATOM     31  N   UNL     1       2.776   1.436   3.420  0.00  0.00    +0.000 NA
ATOM     32  H   UNL     1       2.267   1.113   4.242  0.00  0.00    +0.000 HD
ATOM     33  H   UNL     1       2.359   2.333   3.170  0.00  0.00    +0.000 HD
ENDBRANCH  30  31
ENDBRANCH   1  30
TORSDOF 7
