REMARK  Name = 
REMARK  6 active torsions:
REMARK  status: ('A' for Active; 'I' for Inactive)
REMARK    1  A    between atoms: C_1  and  O_2
REMARK    2  A    between atoms: O_2  and  C_3
REMARK    3  A    between atoms: C_5  and  C_6
REMARK    4  A    between atoms: C_6  and  N_7
REMARK    5  A    between atoms: C_12  and  C_13
REMARK    6  A    between atoms: C_21  and  O_22
REMARK                            x       y       z     vdW  Elec       q    Type
REMARK                         _______ _______ _______ _____ _____    ______ ____
ROOT
ATOM      1  N   UNL     1       1.070   4.886   0.101  0.00  0.00    +0.000 N 
ATOM      2  C   UNL     1       0.365   4.789   1.278  0.00  0.00    +0.000 A 
ATOM      3  C   UNL     1      -0.976   4.889   0.984  0.00  0.00    +0.000 A 
ATOM      4  C   UNL     1      -1.098   5.054  -0.420  0.00  0.00    +0.000 A 
ATOM      5  C   UNL     1      -2.192   5.228  -1.278  0.00  0.00    +0.000 A 
ATOM      6  C   UNL     1      -1.903   5.370  -2.630  0.00  0.00    +0.000 A 
ATOM      7  N   UNL     1      -0.649   5.344  -3.163  0.00  0.00    +0.000 NA
ATOM      8  C   UNL     1       0.406   5.184  -2.331  0.00  0.00    +0.000 A 
ATOM      9  C   UNL     1       0.192   5.042  -0.960  0.00  0.00    +0.000 A 
ENDROOT
BRANCH   6  10
ATOM     10  C   UNL     1      -3.036   5.592  -3.590  0.00  0.00    +0.000 C 
ATOM     11  N   UNL     1      -2.689   5.735  -4.908  0.00  0.00    +0.000 N 
ATOM     12  O   UNL     1      -4.206   5.652  -3.233  0.00  0.00    +0.000 OA
ATOM     13  H   UNL     1      -1.713   5.701  -5.180  0.00  0.00    +0.000 HD
ATOM     14  H   UNL     1      -3.408   5.907  -5.590  0.00  0.00    +0.000 HD
ENDBRANCH   6  10
BRANCH   1  15
ATOM     15  C   UNL     1       2.531   4.954   0.035  0.00  0.00    +0.000 C 
BRANCH  15  18
ATOM     16  C   UNL     1       3.528   1.442  -1.128  0.00  0.00    +0.000 A 
ATOM     17  C   UNL     1       2.943   2.713  -1.083  0.00  0.00    +0.000 A 
ATOM     18  C   UNL     1       3.185   3.593  -0.014  0.00  0.00    +0.000 A 
ATOM     19  C   UNL     1       4.079   3.197   0.992  0.00  0.00    +0.000 A 
ATOM     20  C   UNL     1       4.686   1.939   0.950  0.00  0.00    +0.000 A 
ATOM     21  C   UNL     1       4.399   1.067  -0.099  0.00  0.00    +0.000 A 
BRANCH  16  23
ATOM     22  C   UNL     1       2.399   0.873  -3.149  0.00  0.00    +0.000 C 
ATOM     23  O   UNL     1       3.306   0.517  -2.114  0.00  0.00    +0.000 OA
ENDBRANCH  16  23
BRANCH  21  24
ATOM     24  O   UNL     1       4.975  -0.176  -0.128  0.00  0.00    +0.000 OA
ATOM     25  H   UNL     1       5.492  -0.307   0.682  0.00  0.00    +0.000 HD
ENDBRANCH  21  24
ENDBRANCH  15  18
ENDBRANCH   1  15
TORSDOF 5
