REMARK  Name = 
REMARK  7 active torsions:
REMARK  status: ('A' for Active; 'I' for Inactive)
REMARK    1  A    between atoms: C_1  and  O_2
REMARK    2  A    between atoms: O_2  and  C_3
REMARK    3  A    between atoms: C_6  and  C_7
REMARK    4  A    between atoms: C_11  and  C_12
REMARK    5  A    between atoms: C_12  and  O_13
REMARK    6  A    between atoms: O_13  and  C_14
REMARK    7  A    between atoms: C_17  and  C_18
REMARK                            x       y       z     vdW  Elec       q    Type
REMARK                         _______ _______ _______ _____ _____    ______ ____
ROOT
ATOM      1  C   UNL     1       5.358  -4.745   0.675  0.00  0.00    +0.000 A 
ATOM      2  C   UNL     1       5.844  -5.501  -0.407  0.00  0.00    +0.000 A 
ATOM      3  C   UNL     1       6.661  -6.617  -0.211  0.00  0.00    +0.000 A 
ATOM      4  C   UNL     1       7.015  -7.008   1.077  0.00  0.00    +0.000 A 
ATOM      5  C   UNL     1       6.561  -6.279   2.180  0.00  0.00    +0.000 A 
ATOM      6  C   UNL     1       5.723  -5.169   1.968  0.00  0.00    +0.000 A 
ENDROOT
BRANCH   1  10
ATOM      7  C   UNL     1       2.949  -1.200   0.072  0.00  0.00    +0.000 A 
ATOM      8  C   UNL     1       2.741  -2.012   1.183  0.00  0.00    +0.000 A 
ATOM      9  C   UNL     1       3.513  -3.168   1.369  0.00  0.00    +0.000 A 
ATOM     10  C   UNL     1       4.523  -3.538   0.463  0.00  0.00    +0.000 A 
ATOM     11  C   UNL     1       4.718  -2.698  -0.647  0.00  0.00    +0.000 A 
ATOM     12  C   UNL     1       3.940  -1.551  -0.843  0.00  0.00    +0.000 A 
BRANCH   7  14
ATOM     13  C   UNL     1       1.220   0.314   0.659  0.00  0.00    +0.000 C 
ATOM     14  O   UNL     1       2.266  -0.055  -0.230  0.00  0.00    +0.000 OA
ENDBRANCH   7  14
ENDBRANCH   1  10
BRANCH   5  15
ATOM     15  C   UNL     1       6.975  -6.664   3.579  0.00  0.00    +0.000 C 
BRANCH  15  16
ATOM     16  O   UNL     1       6.042  -7.606   4.107  0.00  0.00    +0.000 OA
BRANCH  16  17
ATOM     17  C   UNL     1       6.242  -8.002   5.398  0.00  0.00    +0.000 A 
ATOM     18  C   UNL     1       7.297  -7.619   6.227  0.00  0.00    +0.000 A 
ATOM     19  C   UNL     1       7.357  -8.099   7.536  0.00  0.00    +0.000 A 
ATOM     20  C   UNL     1       6.355  -8.955   7.975  0.00  0.00    +0.000 A 
ATOM     21  N   UNL     1       5.315  -9.362   7.195  0.00  0.00    +0.000 NA
ATOM     22  C   UNL     1       5.295  -8.873   5.930  0.00  0.00    +0.000 A 
BRANCH  20  23
ATOM     23  C   UNL     1       6.384  -9.467   9.380  0.00  0.00    +0.000 C 
ATOM     24  N   UNL     1       5.354 -10.299   9.722  0.00  0.00    +0.000 N 
ATOM     25  O   UNL     1       7.262  -9.164  10.178  0.00  0.00    +0.000 OA
ATOM     26  H   UNL     1       4.642 -10.521   9.038  0.00  0.00    +0.000 HD
ATOM     27  H   UNL     1       5.300 -10.673  10.658  0.00  0.00    +0.000 HD
ENDBRANCH  20  23
ENDBRANCH  16  17
ENDBRANCH  15  16
ENDBRANCH   5  15
TORSDOF 6
