REMARK  Name = 
REMARK  8 active torsions:
REMARK  status: ('A' for Active; 'I' for Inactive)
REMARK    1  A    between atoms: C_1  and  N_2
REMARK    2  A    between atoms: C_3  and  C_5
REMARK    3  A    between atoms: C_8  and  O_9
REMARK    4  A    between atoms: O_9  and  C_10
REMARK    5  A    between atoms: C_10  and  C_11
REMARK    6  A    between atoms: C_11  and  C_12
REMARK    7  A    between atoms: C_11  and  C_14
REMARK    8  A    between atoms: C_18  and  C_19
REMARK                            x       y       z     vdW  Elec       q    Type
REMARK                         _______ _______ _______ _____ _____    ______ ____
ROOT
ATOM      1  C   UNL     1      10.944   0.826  -0.813  0.00  0.00    +0.000 C 
ATOM      2  C   UNL     1      11.309   2.146  -1.493  0.00  0.00    +0.000 C 
ATOM      3  F   UNL     1      11.282   0.988   0.513  0.00  0.00    +0.000 F 
ENDROOT
BRANCH   1   4
ATOM      4  C   UNL     1      11.717  -0.342  -1.432  0.00  0.00    +0.000 A 
ATOM      5  C   UNL     1      12.675  -1.027  -0.676  0.00  0.00    +0.000 A 
ATOM      6  C   UNL     1      13.337  -2.144  -1.196  0.00  0.00    +0.000 A 
ATOM      7  C   UNL     1      13.047  -2.596  -2.484  0.00  0.00    +0.000 A 
ATOM      8  C   UNL     1      12.102  -1.920  -3.262  0.00  0.00    +0.000 A 
ATOM      9  C   UNL     1      11.452  -0.794  -2.738  0.00  0.00    +0.000 A 
BRANCH   8  10
ATOM     10  C   UNL     1      11.709  -2.383  -4.620  0.00  0.00    +0.000 C 
ATOM     11  N   UNL     1      12.604  -3.146  -5.315  0.00  0.00    +0.000 N 
ATOM     12  O   UNL     1      10.633  -2.072  -5.115  0.00  0.00    +0.000 OA
ATOM     13  H   UNL     1      13.573  -3.237  -5.050  0.00  0.00    +0.000 HD
ATOM     14  H   UNL     1      12.349  -3.380  -6.266  0.00  0.00    +0.000 HD
ENDBRANCH   8  10
ENDBRANCH   1   4
BRANCH   1  15
ATOM     15  C   UNL     1       9.429   0.534  -0.850  0.00  0.00    +0.000 C 
BRANCH  15  16
ATOM     16  O   UNL     1       8.656   1.642  -0.362  0.00  0.00    +0.000 OA
BRANCH  16  20
ATOM     17  C   UNL     1       4.628   0.783  -0.180  0.00  0.00    +0.000 A 
ATOM     18  C   UNL     1       5.052   2.115  -0.179  0.00  0.00    +0.000 A 
ATOM     19  C   UNL     1       6.419   2.395  -0.234  0.00  0.00    +0.000 A 
ATOM     20  C   UNL     1       7.309   1.335  -0.310  0.00  0.00    +0.000 A 
ATOM     21  N   UNL     1       6.926   0.041  -0.311  0.00  0.00    +0.000 NA
ATOM     22  C   UNL     1       5.597  -0.208  -0.229  0.00  0.00    +0.000 A 
BRANCH  17  25
ATOM     23  C   UNL     1       0.880   0.892  -0.615  0.00  0.00    +0.000 C 
ATOM     24  N   UNL     1       2.279   1.238  -0.625  0.00  0.00    +0.000 N 
ATOM     25  C   UNL     1       3.210   0.373  -0.090  0.00  0.00    +0.000 C 
ATOM     26  O   UNL     1       2.918  -0.705   0.415  0.00  0.00    +0.000 OA
ATOM     27  H   UNL     1       2.578   2.018  -1.193  0.00  0.00    +0.000 HD
ENDBRANCH  17  25
ENDBRANCH  16  20
ENDBRANCH  15  16
ENDBRANCH   1  15
TORSDOF 6
