REMARK  Name = 
REMARK  8 active torsions:
REMARK  status: ('A' for Active; 'I' for Inactive)
REMARK    1  A    between atoms: C_1  and  C_2
REMARK    2  A    between atoms: C_2  and  C_3
REMARK    3  A    between atoms: C_2  and  C_4
REMARK    4  A    between atoms: C_2  and  C_5
REMARK    5  A    between atoms: N_14  and  C_15
REMARK    6  A    between atoms: C_15  and  C_16
REMARK    7  A    between atoms: C_19  and  C_20
REMARK    8  A    between atoms: C_20  and  N_21
REMARK                            x       y       z     vdW  Elec       q    Type
REMARK                         _______ _______ _______ _____ _____    ______ ____
ROOT
ATOM      1  C   UNL     1       2.957   0.431  -1.292  0.00  0.00    +0.000 A 
ATOM      2  C   UNL     1       2.805   1.759  -1.715  0.00  0.00    +0.000 A 
ATOM      3  N   UNL     1       3.124   2.282  -2.928  0.00  0.00    +0.000 NA
ATOM      4  C   UNL     1       3.633   1.373  -3.782  0.00  0.00    +0.000 A 
ATOM      5  C   UNL     1       3.835   0.016  -3.524  0.00  0.00    +0.000 A 
ATOM      6  C   UNL     1       3.490  -0.458  -2.238  0.00  0.00    +0.000 A 
ATOM      7  C   UNL     1       4.373  -0.540  -4.707  0.00  0.00    +0.000 A 
ATOM      8  I   UNL     1       4.877  -2.482  -5.004  0.00  0.00    +0.000 I 
ATOM      9  C   UNL     1       4.520   0.461  -5.640  0.00  0.00    +0.000 A 
ATOM     10  N   UNL     1       4.068   1.628  -5.069  0.00  0.00    +0.000 N 
ENDROOT
BRANCH   1  12
ATOM     11  C   UNL     1       0.987   0.243   0.234  0.00  0.00    +0.000 C 
ATOM     12  C   UNL     1       2.506  -0.004   0.110  0.00  0.00    +0.000 C 
ATOM     13  C   UNL     1       3.233   0.801   1.211  0.00  0.00    +0.000 C 
ATOM     14  C   UNL     1       2.771  -1.498   0.403  0.00  0.00    +0.000 C 
ENDBRANCH   1  12
BRANCH  10  15
ATOM     15  C   UNL     1       4.153   2.937  -5.707  0.00  0.00    +0.000 C 
BRANCH  15  16
ATOM     16  C   UNL     1       2.921   3.238  -6.528  0.00  0.00    +0.000 A 
ATOM     17  C   UNL     1       1.854   3.943  -5.957  0.00  0.00    +0.000 A 
ATOM     18  C   UNL     1       0.625   4.039  -6.619  0.00  0.00    +0.000 A 
ATOM     19  C   UNL     1       0.444   3.445  -7.875  0.00  0.00    +0.000 A 
ATOM     20  C   UNL     1       1.541   2.820  -8.484  0.00  0.00    +0.000 A 
ATOM     21  C   UNL     1       2.770   2.726  -7.825  0.00  0.00    +0.000 A 
BRANCH  19  22
ATOM     22  C   UNL     1      -0.921   3.369  -8.517  0.00  0.00    +0.000 C 
BRANCH  22  23
ATOM     23  N   UNL     1      -0.970   4.012  -9.825  0.00  0.00    +0.000 NA
ATOM     24  H   UNL     1      -0.832   5.013  -9.702  0.00  0.00    +0.000 HD
ATOM     25  H   UNL     1      -1.907   3.900 -10.208  0.00  0.00    +0.000 HD
ENDBRANCH  22  23
ENDBRANCH  19  22
ENDBRANCH  15  16
ENDBRANCH  10  15
TORSDOF 5
