REMARK  Name = 
REMARK  5 active torsions:
REMARK  status: ('A' for Active; 'I' for Inactive)
REMARK    1  A    between atoms: C_2  and  C_4
REMARK    2  A    between atoms: C_7  and  N_8
REMARK    3  A    between atoms: N_8  and  C_9
REMARK    4  A    between atoms: C_9  and  C_10
REMARK    5  A    between atoms: C_12  and  C_13
REMARK                            x       y       z     vdW  Elec       q    Type
REMARK                         _______ _______ _______ _____ _____    ______ ____
ROOT
ATOM      1  C   UNL     1       4.959   1.345   5.903  0.00  0.00    +0.000 C 
ATOM      2  C   UNL     1       4.913  -0.024   6.567  0.00  0.00    +0.000 C 
ATOM      3  C   UNL     1       3.650   0.755   6.398  0.00  0.00    +0.000 C 
ENDROOT
BRANCH   1   4
ATOM      4  C   UNL     1       5.541   2.541   6.662  0.00  0.00    +0.000 A 
ATOM      5  C   UNL     1       6.801   2.418   7.239  0.00  0.00    +0.000 A 
ATOM      6  C   UNL     1       7.500   3.533   7.713  0.00  0.00    +0.000 A 
ATOM      7  C   UNL     1       6.840   4.761   7.666  0.00  0.00    +0.000 A 
ATOM      8  C   UNL     1       5.561   4.811   7.134  0.00  0.00    +0.000 A 
ATOM      9  N   UNL     1       4.908   3.742   6.626  0.00  0.00    +0.000 NA
BRANCH   6  10
ATOM     10  C   UNL     1       8.886   3.396   8.186  0.00  0.00    +0.000 A 
ATOM     11  C   UNL     1       9.749   2.421   7.673  0.00  0.00    +0.000 A 
ATOM     12  C   UNL     1      11.034   2.300   8.185  0.00  0.00    +0.000 A 
ATOM     13  C   UNL     1      11.439   3.164   9.191  0.00  0.00    +0.000 A 
ATOM     14  C   UNL     1      10.540   4.120   9.630  0.00  0.00    +0.000 A 
ATOM     15  N   UNL     1       9.283   4.260   9.152  0.00  0.00    +0.000 NA
ENDBRANCH   6  10
ENDBRANCH   1   4
BRANCH   1  16
ATOM     16  N   UNL     1       5.217   1.429   4.447  0.00  0.00    +0.000 N 
ATOM     17  H   UNL     1       4.438   1.236   3.837  0.00  0.00    +0.000 HD
BRANCH  16  21
ATOM     18  C   UNL     1       8.797   0.278   2.762  0.00  0.00    +0.000 A 
ATOM     19  C   UNL     1       8.507  -0.037   4.078  0.00  0.00    +0.000 A 
ATOM     20  N   UNL     1       7.345   0.332   4.679  0.00  0.00    +0.000 NA
ATOM     21  C   UNL     1       6.454   1.006   3.915  0.00  0.00    +0.000 A 
ATOM     22  C   UNL     1       6.782   1.342   2.595  0.00  0.00    +0.000 A 
ATOM     23  N   UNL     1       7.943   0.991   1.979  0.00  0.00    +0.000 NA
BRANCH  18  25
ATOM     24  N   UNL     1      10.310   0.225   0.871  0.00  0.00    +0.000 N 
ATOM     25  C   UNL     1      10.081  -0.173   2.161  0.00  0.00    +0.000 C 
ATOM     26  O   UNL     1      10.887  -0.857   2.779  0.00  0.00    +0.000 OA
ATOM     27  H   UNL     1      11.171  -0.038   0.414  0.00  0.00    +0.000 HD
ATOM     28  H   UNL     1       9.637   0.815   0.394  0.00  0.00    +0.000 HD
ENDBRANCH  18  25
ENDBRANCH  16  21
ENDBRANCH   1  16
TORSDOF 5
