REMARK  Name = 
REMARK  5 active torsions:
REMARK  status: ('A' for Active; 'I' for Inactive)
REMARK    1  A    between atoms: C_2  and  C_3
REMARK    2  A    between atoms: C_6  and  N_7
REMARK    3  A    between atoms: N_7  and  C_8
REMARK    4  A    between atoms: C_8  and  C_9
REMARK    5  A    between atoms: C_13  and  C_14
REMARK                            x       y       z     vdW  Elec       q    Type
REMARK                         _______ _______ _______ _____ _____    ______ ____
ROOT
ATOM      1  C   UNL     1       8.755  -0.903  -0.543  0.00  0.00    +0.000 C 
ATOM      2  C   UNL     1       8.519  -1.720  -1.804  0.00  0.00    +0.000 C 
ATOM      3  C   UNL     1       9.118  -2.369  -0.601  0.00  0.00    +0.000 C 
ENDROOT
BRANCH   1   4
ATOM      4  C   UNL     1       9.833   0.164  -0.540  0.00  0.00    +0.000 A 
ATOM      5  C   UNL     1       9.850   1.180  -1.509  0.00  0.00    +0.000 A 
ATOM      6  C   UNL     1      10.622   2.325  -1.335  0.00  0.00    +0.000 A 
ATOM      7  C   UNL     1      11.421   2.461  -0.198  0.00  0.00    +0.000 A 
ATOM      8  C   UNL     1      11.504   1.439   0.761  0.00  0.00    +0.000 A 
ATOM      9  C   UNL     1      10.706   0.296   0.555  0.00  0.00    +0.000 A 
BRANCH   8  10
ATOM     10  C   UNL     1      12.350   1.567   1.969  0.00  0.00    +0.000 A 
ATOM     11  C   UNL     1      12.514   2.801   2.626  0.00  0.00    +0.000 A 
ATOM     12  C   UNL     1      13.318   2.921   3.766  0.00  0.00    +0.000 A 
ATOM     13  C   UNL     1      13.964   1.802   4.283  0.00  0.00    +0.000 A 
ATOM     14  C   UNL     1      13.805   0.571   3.658  0.00  0.00    +0.000 A 
ATOM     15 CL   UNL     1      14.589  -0.821   4.299  0.00  0.00    +0.000 Cl
ATOM     16  C   UNL     1      13.013   0.452   2.514  0.00  0.00    +0.000 A 
ENDBRANCH   8  10
ENDBRANCH   1   4
BRANCH   1  17
ATOM     17  N   UNL     1       7.534  -0.410   0.076  0.00  0.00    +0.000 N 
ATOM     18  H   UNL     1       7.011   0.330  -0.379  0.00  0.00    +0.000 HD
BRANCH  17  22
ATOM     19  C   UNL     1       5.890  -0.954   3.769  0.00  0.00    +0.000 A 
ATOM     20  C   UNL     1       5.318  -0.150   2.800  0.00  0.00    +0.000 A 
ATOM     21  N   UNL     1       5.903   0.062   1.600  0.00  0.00    +0.000 NA
ATOM     22  C   UNL     1       7.076  -0.569   1.367  0.00  0.00    +0.000 A 
ATOM     23  C   UNL     1       7.657  -1.352   2.364  0.00  0.00    +0.000 A 
ATOM     24  N   UNL     1       7.085  -1.564   3.583  0.00  0.00    +0.000 NA
BRANCH  19  26
ATOM     25  N   UNL     1       4.585  -1.354   5.978  0.00  0.00    +0.000 NA
ATOM     26  C   UNL     1       5.202  -1.191   4.999  0.00  0.00    +0.000 C 
ENDBRANCH  19  26
ENDBRANCH  17  22
ENDBRANCH   1  17
TORSDOF 5
