REMARK  Name = 
REMARK  6 active torsions:
REMARK  status: ('A' for Active; 'I' for Inactive)
REMARK    1  A    between atoms: C_2  and  C_19
REMARK    2  A    between atoms: N_3  and  C_4
REMARK    3  A    between atoms: C_4  and  C_5
REMARK    4  A    between atoms: C_8  and  C_9
REMARK    5  A    between atoms: C_9  and  N_10
REMARK    6  A    between atoms: N_10  and  C_11
REMARK                            x       y       z     vdW  Elec       q    Type
REMARK                         _______ _______ _______ _____ _____    ______ ____
ROOT
ATOM      1  C   UNL     1       2.161  -2.197   1.151  0.00  0.00    +0.000 C 
ENDROOT
BRANCH   1   2
ATOM      2  C   UNL     1       3.093  -3.237   1.718  0.00  0.00    +0.000 A 
ATOM      3  C   UNL     1       4.212  -2.849   2.465  0.00  0.00    +0.000 A 
ATOM      4  C   UNL     1       5.064  -3.808   3.021  0.00  0.00    +0.000 A 
ATOM      5  C   UNL     1       4.831  -5.176   2.821  0.00  0.00    +0.000 A 
ATOM      6  C   UNL     1       3.712  -5.564   2.071  0.00  0.00    +0.000 A 
ATOM      7  C   UNL     1       2.860  -4.604   1.514  0.00  0.00    +0.000 A 
BRANCH   5   8
ATOM      8  C   UNL     1       5.786  -6.206   3.378  0.00  0.00    +0.000 C 
BRANCH   8   9
ATOM      9  N   UNL     1       5.373  -6.637   4.710  0.00  0.00    +0.000 N 
ATOM     10  H   UNL     1       4.376  -6.826   4.757  0.00  0.00    +0.000 HD
BRANCH   9  11
ATOM     11  C   UNL     1       6.139  -7.623   5.351  0.00  0.00    +0.000 A 
ATOM     12  C   UNL     1       7.513  -7.778   5.153  0.00  0.00    +0.000 A 
ATOM     13  C   UNL     1       8.209  -8.725   5.892  0.00  0.00    +0.000 A 
ATOM     14  N   UNL     1       7.644  -9.518   6.825  0.00  0.00    +0.000 NA
ATOM     15  C   UNL     1       6.326  -9.329   7.038  0.00  0.00    +0.000 A 
ATOM     16  C   UNL     1       5.551  -8.405   6.354  0.00  0.00    +0.000 A 
ENDBRANCH   9  11
ENDBRANCH   8   9
ENDBRANCH   5   8
ENDBRANCH   1   2
BRANCH   1  19
ATOM     17  O   UNL     1       3.670   0.130   0.637  0.00  0.00    +0.000 OA
ATOM     18  C   UNL     1       3.356  -0.597  -0.301  0.00  0.00    +0.000 C 
ATOM     19  N   UNL     1       2.594  -1.724  -0.139  0.00  0.00    +0.000 N 
ATOM     20  H   UNL     1       2.481  -2.367  -0.914  0.00  0.00    +0.000 HD
BRANCH  18  21
ATOM     21  C   UNL     1       3.743  -0.271  -1.680  0.00  0.00    +0.000 A 
ATOM     22  C   UNL     1       4.050   1.039  -2.022  0.00  0.00    +0.000 A 
ATOM     23  S   UNL     1       4.508   1.229  -3.655  0.00  0.00    +0.000 S 
ATOM     24  C   UNL     1       4.344  -0.438  -3.952  0.00  0.00    +0.000 A 
ATOM     25  N   UNL     1       4.639  -0.965  -5.171  0.00  0.00    +0.000 NA
ATOM     26  C   UNL     1       4.517  -2.249  -5.241  0.00  0.00    +0.000 A 
ATOM     27  N   UNL     1       4.104  -3.051  -4.209  0.00  0.00    +0.000 N 
ATOM     28  C   UNL     1       3.703  -2.552  -2.994  0.00  0.00    +0.000 A 
ATOM     29  O   UNL     1       3.175  -3.276  -2.156  0.00  0.00    +0.000 OA
ATOM     30  C   UNL     1       3.900  -1.123  -2.835  0.00  0.00    +0.000 A 
ATOM     31  H   UNL     1       3.979  -4.043  -4.345  0.00  0.00    +0.000 HD
ENDBRANCH  18  21
ENDBRANCH   1  19
TORSDOF 6
