REMARK  Name = 
REMARK  7 active torsions:
REMARK  status: ('A' for Active; 'I' for Inactive)
REMARK    1  A    between atoms: C_1  and  O_2
REMARK    2  A    between atoms: O_2  and  C_3
REMARK    3  A    between atoms: C_5  and  O_6
REMARK    4  A    between atoms: O_6  and  C_7
REMARK    5  A    between atoms: C_10  and  C_11
REMARK    6  A    between atoms: C_11  and  N_12
REMARK    7  A    between atoms: C_13  and  C_15
REMARK                            x       y       z     vdW  Elec       q    Type
REMARK                         _______ _______ _______ _____ _____    ______ ____
ROOT
ATOM      1  C   UNL     1      -1.376  -3.292  -5.650  0.00  0.00    +0.000 C 
ENDROOT
BRANCH   1   5
ATOM      2  C   UNL     1       1.904  -4.004  -2.939  0.00  0.00    +0.000 A 
ATOM      3  C   UNL     1       2.011  -3.021  -3.924  0.00  0.00    +0.000 A 
ATOM      4  C   UNL     1       0.947  -2.784  -4.798  0.00  0.00    +0.000 A 
ATOM      5  C   UNL     1      -0.217  -3.561  -4.728  0.00  0.00    +0.000 A 
ATOM      6  C   UNL     1      -0.262  -4.629  -3.821  0.00  0.00    +0.000 A 
ATOM      7  C   UNL     1       0.789  -4.843  -2.926  0.00  0.00    +0.000 A 
BRANCH   2   8
ATOM      8  O   UNL     1       2.864  -4.262  -1.986  0.00  0.00    +0.000 OA
BRANCH   8  11
ATOM      9  C   UNL     1       4.138  -0.999  -0.856  0.00  0.00    +0.000 A 
ATOM     10  C   UNL     1       3.219  -1.920  -1.330  0.00  0.00    +0.000 A 
ATOM     11  C   UNL     1       3.638  -3.239  -1.484  0.00  0.00    +0.000 A 
ATOM     12  C   UNL     1       4.914  -3.602  -1.064  0.00  0.00    +0.000 A 
ATOM     13  C   UNL     1       5.744  -2.615  -0.566  0.00  0.00    +0.000 A 
ATOM     14  N   UNL     1       5.391  -1.317  -0.469  0.00  0.00    +0.000 NA
BRANCH   9  16
ATOM     15  C   UNL     1       4.735   1.208  -0.365  0.00  0.00    +0.000 C 
ATOM     16  O   UNL     1       3.724   0.319  -0.828  0.00  0.00    +0.000 OA
ENDBRANCH   9  16
ENDBRANCH   8  11
ENDBRANCH   2   8
ENDBRANCH   1   5
BRANCH   1  17
ATOM     17  N   UNL     1      -1.221  -4.014  -6.883  0.00  0.00    +0.000 N 
ATOM     18  C   UNL     1      -2.098  -3.864  -7.922  0.00  0.00    +0.000 C 
ATOM     19  O   UNL     1      -3.039  -3.076  -7.879  0.00  0.00    +0.000 OA
ATOM     20  H   UNL     1      -0.618  -4.830  -6.853  0.00  0.00    +0.000 HD
BRANCH  18  21
ATOM     21  C   UNL     1      -1.806  -4.651  -9.126  0.00  0.00    +0.000 A 
ATOM     22  C   UNL     1      -2.300  -4.244 -10.358  0.00  0.00    +0.000 A 
ATOM     23  S   UNL     1      -1.777  -5.217 -11.657  0.00  0.00    +0.000 S 
ATOM     24  C   UNL     1      -0.921  -6.252 -10.612  0.00  0.00    +0.000 A 
ATOM     25  N   UNL     1      -0.233  -7.323 -11.093  0.00  0.00    +0.000 NA
ATOM     26  C   UNL     1       0.343  -8.039 -10.185  0.00  0.00    +0.000 A 
ATOM     27  N   UNL     1       0.291  -7.783  -8.839  0.00  0.00    +0.000 N 
ATOM     28  C   UNL     1      -0.374  -6.706  -8.313  0.00  0.00    +0.000 A 
ATOM     29  O   UNL     1      -0.385  -6.494  -7.104  0.00  0.00    +0.000 OA
ATOM     30  C   UNL     1      -1.033  -5.861  -9.292  0.00  0.00    +0.000 A 
ATOM     31  H   UNL     1       0.759  -8.384  -8.178  0.00  0.00    +0.000 HD
ENDBRANCH  18  21
ENDBRANCH   1  17
TORSDOF 6
