REMARK  Name = 
REMARK  9 active torsions:
REMARK  status: ('A' for Active; 'I' for Inactive)
REMARK    1  A    between atoms: C_1  and  O_2
REMARK    2  A    between atoms: O_2  and  C_3
REMARK    3  A    between atoms: C_10  and  C_11
REMARK    4  A    between atoms: N_13  and  C_14
REMARK    5  A    between atoms: C_14  and  C_15
REMARK    6  A    between atoms: C_18  and  N_19
REMARK    7  A    between atoms: N_19  and  C_20
REMARK    8  A    between atoms: N_19  and  C_21
REMARK    9  A    between atoms: C_21  and  C_22
REMARK                            x       y       z     vdW  Elec       q    Type
REMARK                         _______ _______ _______ _____ _____    ______ ____
ROOT
ATOM      1  C   UNL     1       3.311  -3.444  -0.178  0.00  0.00    +0.000 C 
ENDROOT
BRANCH   1   2
ATOM      2  C   UNL     1       2.363  -3.320   0.984  0.00  0.00    +0.000 A 
ATOM      3  C   UNL     1       1.615  -4.411   1.423  0.00  0.00    +0.000 A 
ATOM      4  C   UNL     1       0.659  -4.260   2.441  0.00  0.00    +0.000 A 
ATOM      5  C   UNL     1       0.402  -3.025   3.069  0.00  0.00    +0.000 A 
ATOM      6  C   UNL     1       1.178  -1.949   2.611  0.00  0.00    +0.000 A 
ATOM      7  C   UNL     1       2.143  -2.088   1.599  0.00  0.00    +0.000 A 
BRANCH   5   8
ATOM      8  N   UNL     1      -0.602  -2.897   4.038  0.00  0.00    +0.000 N 
ATOM      9  C   UNL     1      -0.748  -3.989   5.011  0.00  0.00    +0.000 C 
BRANCH   8  10
ATOM     10  C   UNL     1      -1.001  -1.578   4.572  0.00  0.00    +0.000 C 
BRANCH  10  11
ATOM     11  C   UNL     1      -2.230  -0.990   3.839  0.00  0.00    +0.000 C 
ATOM     12  C   UNL     1      -2.535   0.429   4.358  0.00  0.00    +0.000 C 
ATOM     13  C   UNL     1      -3.093   0.419   5.786  0.00  0.00    +0.000 C 
ATOM     14  N   UNL     1      -4.259  -0.453   5.938  0.00  0.00    +0.000 NA
ATOM     15  C   UNL     1      -4.003  -1.813   5.460  0.00  0.00    +0.000 C 
ATOM     16  C   UNL     1      -3.511  -1.824   4.012  0.00  0.00    +0.000 C 
ATOM     17  H   UNL     1      -5.038  -0.061   5.409  0.00  0.00    +0.000 HD
ENDBRANCH  10  11
ENDBRANCH   8  10
ENDBRANCH   5   8
ENDBRANCH   1   2
BRANCH   1  20
ATOM     18  C   UNL     1       3.323  -3.112  -2.608  0.00  0.00    +0.000 C 
ATOM     19  O   UNL     1       4.536  -3.301  -2.659  0.00  0.00    +0.000 OA
ATOM     20  N   UNL     1       2.637  -3.154  -1.423  0.00  0.00    +0.000 N 
ATOM     21  H   UNL     1       1.628  -3.080  -1.417  0.00  0.00    +0.000 HD
BRANCH  18  29
ATOM     22  C   UNL     1       0.045  -3.505  -3.465  0.00  0.00    +0.000 A 
ATOM     23  N   UNL     1      -1.183  -3.482  -4.026  0.00  0.00    +0.000 NA
ATOM     24  C   UNL     1      -1.323  -2.895  -5.220  0.00  0.00    +0.000 A 
ATOM     25  N   UNL     1      -0.367  -2.329  -5.951  0.00  0.00    +0.000 NA
ATOM     26  C   UNL     1       0.837  -2.367  -5.357  0.00  0.00    +0.000 A 
ATOM     27  S   UNL     1       2.190  -1.725  -6.155  0.00  0.00    +0.000 S 
ATOM     28  C   UNL     1       3.217  -2.151  -4.868  0.00  0.00    +0.000 A 
ATOM     29  C   UNL     1       2.550  -2.754  -3.806  0.00  0.00    +0.000 A 
ATOM     30  C   UNL     1       1.139  -2.917  -4.116  0.00  0.00    +0.000 A 
BRANCH  22  32
ATOM     31  C   UNL     1      -1.001  -4.685  -1.731  0.00  0.00    +0.000 C 
ATOM     32  O   UNL     1       0.208  -4.128  -2.244  0.00  0.00    +0.000 OA
ENDBRANCH  22  32
ENDBRANCH  18  29
ENDBRANCH   1  20
TORSDOF 7
