REMARK  Name = 
REMARK  8 active torsions:
REMARK  status: ('A' for Active; 'I' for Inactive)
REMARK    1  A    between atoms: C_1  and  C_2
REMARK    2  A    between atoms: C_2  and  N_3
REMARK    3  A    between atoms: C_2  and  C_25
REMARK    4  A    between atoms: N_3  and  C_4
REMARK    5  A    between atoms: C_4  and  C_5
REMARK    6  A    between atoms: C_8  and  C_9
REMARK    7  A    between atoms: C_9  and  N_10
REMARK    8  A    between atoms: C_11  and  C_13
REMARK                            x       y       z     vdW  Elec       q    Type
REMARK                         _______ _______ _______ _____ _____    ______ ____
ROOT
ATOM      1  C   UNL     1      -1.017  -0.871  -1.169  0.00  0.00    +0.000 A 
ATOM      2  C   UNL     1      -1.626  -1.615  -2.190  0.00  0.00    +0.000 A 
ATOM      3  C   UNL     1      -3.004  -1.847  -2.180  0.00  0.00    +0.000 A 
ATOM      4  C   UNL     1      -3.802  -1.328  -1.152  0.00  0.00    +0.000 A 
ATOM      5  C   UNL     1      -3.188  -0.612  -0.115  0.00  0.00    +0.000 A 
ATOM      6  C   UNL     1      -1.811  -0.380  -0.126  0.00  0.00    +0.000 A 
ENDROOT
BRANCH   1   7
ATOM      7  C   UNL     1       0.484  -0.723  -1.128  0.00  0.00    +0.000 C 
BRANCH   7   8
ATOM      8  N   UNL     1       1.038  -0.129  -2.348  0.00  0.00    +0.000 NA
ATOM      9  H   UNL     1       0.677   0.821  -2.443  0.00  0.00    +0.000 HD
BRANCH   8  11
ATOM     10  C   UNL     1       3.125  -1.478  -2.158  0.00  0.00    +0.000 C 
ATOM     11  C   UNL     1       2.510  -0.076  -2.327  0.00  0.00    +0.000 C 
BRANCH  11  12
ATOM     12  C   UNL     1       3.060   0.569  -3.598  0.00  0.00    +0.000 A 
ATOM     13  C   UNL     1       3.798   1.763  -3.541  0.00  0.00    +0.000 A 
ATOM     14  C   UNL     1       4.413   2.281  -4.690  0.00  0.00    +0.000 A 
ATOM     15  C   UNL     1       4.297   1.614  -5.907  0.00  0.00    +0.000 A 
ATOM     16  C   UNL     1       3.532   0.454  -5.989  0.00  0.00    +0.000 A 
ATOM     17  C   UNL     1       2.905  -0.054  -4.849  0.00  0.00    +0.000 A 
ENDBRANCH  11  12
ENDBRANCH   8  11
ENDBRANCH   7   8
ENDBRANCH   1   7
BRANCH   4  18
ATOM     18  C   UNL     1      -5.290  -1.558  -1.133  0.00  0.00    +0.000 C 
BRANCH  18  19
ATOM     19  N   UNL     1      -5.624  -2.766  -0.428  0.00  0.00    +0.000 N 
ATOM     20  C   UNL     1      -6.926  -3.187  -0.305  0.00  0.00    +0.000 C 
ATOM     21  O   UNL     1      -7.860  -2.576  -0.819  0.00  0.00    +0.000 OA
ATOM     22  H   UNL     1      -4.922  -3.142   0.200  0.00  0.00    +0.000 HD
BRANCH  20  23
ATOM     23  C   UNL     1      -7.128  -4.452   0.404  0.00  0.00    +0.000 A 
ATOM     24  C   UNL     1      -8.250  -5.225   0.141  0.00  0.00    +0.000 A 
ATOM     25  S   UNL     1      -8.283  -6.698   1.001  0.00  0.00    +0.000 S 
ATOM     26  C   UNL     1      -6.834  -6.323   1.808  0.00  0.00    +0.000 A 
ATOM     27  N   UNL     1      -6.303  -7.175   2.729  0.00  0.00    +0.000 NA
ATOM     28  C   UNL     1      -5.216  -6.749   3.286  0.00  0.00    +0.000 A 
ATOM     29  N   UNL     1      -4.617  -5.549   3.005  0.00  0.00    +0.000 N 
ATOM     30  C   UNL     1      -5.098  -4.670   2.065  0.00  0.00    +0.000 A 
ATOM     31  O   UNL     1      -4.513  -3.626   1.814  0.00  0.00    +0.000 OA
ATOM     32  C   UNL     1      -6.321  -5.100   1.416  0.00  0.00    +0.000 A 
ATOM     33  H   UNL     1      -3.765  -5.276   3.475  0.00  0.00    +0.000 HD
ENDBRANCH  20  23
ENDBRANCH  18  19
ENDBRANCH   4  18
TORSDOF 7
