REMARK  Name = 
REMARK  5 active torsions:
REMARK  status: ('A' for Active; 'I' for Inactive)
REMARK    1  A    between atoms: N_1  and  C_2
REMARK    2  A    between atoms: C_2  and  C_3
REMARK    3  A    between atoms: C_6  and  O_7
REMARK    4  A    between atoms: O_7  and  C_8
REMARK    5  A    between atoms: C_8  and  C_9
REMARK                            x       y       z     vdW  Elec       q    Type
REMARK                         _______ _______ _______ _____ _____    ______ ____
ROOT
ATOM      1  C   UNL     1       2.989   1.317   0.237  0.00  0.00    +0.000 A 
ATOM      2  C   UNL     1       2.376   2.417  -0.383  0.00  0.00    +0.000 A 
ATOM      3  C   UNL     1       2.798   3.720  -0.101  0.00  0.00    +0.000 A 
ATOM      4  C   UNL     1       3.830   3.942   0.810  0.00  0.00    +0.000 A 
ATOM      5  C   UNL     1       4.489   2.849   1.377  0.00  0.00    +0.000 A 
ATOM      6  C   UNL     1       4.063   1.549   1.105  0.00  0.00    +0.000 A 
ENDROOT
BRANCH   1   7
ATOM      7  C   UNL     1       2.494  -0.084  -0.001  0.00  0.00    +0.000 C 
BRANCH   7   8
ATOM      8  N   UNL     1       2.674  -0.489  -1.388  0.00  0.00    +0.000 NA
ATOM      9  H   UNL     1       2.416  -1.469  -1.483  0.00  0.00    +0.000 HD
ATOM     10  H   UNL     1       3.664  -0.427  -1.621  0.00  0.00    +0.000 HD
ENDBRANCH   7   8
ENDBRANCH   1   7
BRANCH   4  11
ATOM     11  O   UNL     1       4.110   5.256   1.093  0.00  0.00    +0.000 OA
BRANCH  11  12
ATOM     12  C   UNL     1       4.756   5.460   2.352  0.00  0.00    +0.000 C 
BRANCH  12  13
ATOM     13  C   UNL     1       4.572   6.870   2.862  0.00  0.00    +0.000 A 
ATOM     14  C   UNL     1       4.461   7.084   4.246  0.00  0.00    +0.000 A 
ATOM     15  C   UNL     1       4.335   8.373   4.760  0.00  0.00    +0.000 A 
ATOM     16  C   UNL     1       4.325   9.463   3.893  0.00  0.00    +0.000 A 
ATOM     17 CL   UNL     1       4.167  11.054   4.527  0.00  0.00    +0.000 Cl
ATOM     18  C   UNL     1       4.447   9.270   2.518  0.00  0.00    +0.000 A 
ATOM     19  C   UNL     1       4.575   7.977   2.003  0.00  0.00    +0.000 A 
ENDBRANCH  12  13
ENDBRANCH  11  12
ENDBRANCH   4  11
TORSDOF 5
