REMARK  Name = 
REMARK  5 active torsions:
REMARK  status: ('A' for Active; 'I' for Inactive)
REMARK    1  A    between atoms: C_2  and  C_4
REMARK    2  A    between atoms: C_7  and  N_8
REMARK    3  A    between atoms: N_8  and  C_9
REMARK    4  A    between atoms: C_9  and  C_10
REMARK    5  A    between atoms: C_12  and  C_13
REMARK                            x       y       z     vdW  Elec       q    Type
REMARK                         _______ _______ _______ _____ _____    ______ ____
ROOT
ATOM      1  C   UNL     1       5.043   4.329   4.184  0.00  0.00    +0.000 C 
ENDROOT
BRANCH   1   2
ATOM      2  C   UNL     1       5.966   5.412   4.703  0.00  0.00    +0.000 A 
ATOM      3  C   UNL     1       6.005   6.650   4.058  0.00  0.00    +0.000 A 
ATOM      4  C   UNL     1       6.802   7.685   4.565  0.00  0.00    +0.000 A 
ATOM      5  C   UNL     1       7.542   7.402   5.721  0.00  0.00    +0.000 A 
ATOM      6  C   UNL     1       7.446   6.149   6.303  0.00  0.00    +0.000 A 
ATOM      7  N   UNL     1       6.678   5.151   5.825  0.00  0.00    +0.000 NA
BRANCH   4   8
ATOM      8  C   UNL     1       6.832   9.019   3.927  0.00  0.00    +0.000 A 
ATOM      9  C   UNL     1       6.629   9.179   2.541  0.00  0.00    +0.000 A 
ATOM     10  C   UNL     1       6.613  10.444   1.944  0.00  0.00    +0.000 A 
ATOM     11  C   UNL     1       6.812  11.579   2.721  0.00  0.00    +0.000 A 
ATOM     12  C   UNL     1       7.029  11.439   4.083  0.00  0.00    +0.000 A 
ATOM     13  F   UNL     1       7.222  12.528   4.838  0.00  0.00    +0.000 F 
ATOM     14  C   UNL     1       7.040  10.184   4.685  0.00  0.00    +0.000 A 
ENDBRANCH   4   8
ENDBRANCH   1   2
BRANCH   1  15
ATOM     15  N   UNL     1       5.397   3.964   2.811  0.00  0.00    +0.000 N 
ATOM     16  H   UNL     1       6.257   3.420   2.790  0.00  0.00    +0.000 HD
BRANCH  15  20
ATOM     17  C   UNL     1       2.569   2.712  -0.062  0.00  0.00    +0.000 A 
ATOM     18  C   UNL     1       2.157   3.486   1.021  0.00  0.00    +0.000 A 
ATOM     19  C   UNL     1       3.080   3.878   1.995  0.00  0.00    +0.000 A 
ATOM     20  C   UNL     1       4.424   3.487   1.932  0.00  0.00    +0.000 A 
ATOM     21  C   UNL     1       4.821   2.711   0.834  0.00  0.00    +0.000 A 
ATOM     22  C   UNL     1       3.905   2.309  -0.146  0.00  0.00    +0.000 A 
BRANCH  17  24
ATOM     23  N   UNL     1       0.559   3.133  -1.363  0.00  0.00    +0.000 N 
ATOM     24  C   UNL     1       1.619   2.301  -1.120  0.00  0.00    +0.000 C 
ATOM     25  O   UNL     1       1.786   1.282  -1.779  0.00  0.00    +0.000 OA
ATOM     26  H   UNL     1      -0.027   2.892  -2.150  0.00  0.00    +0.000 HD
ATOM     27  H   UNL     1       0.545   4.092  -1.043  0.00  0.00    +0.000 HD
ENDBRANCH  17  24
ENDBRANCH  15  20
ENDBRANCH   1  15
TORSDOF 5
