REMARK  Name = 
REMARK  6 active torsions:
REMARK  status: ('A' for Active; 'I' for Inactive)
REMARK    1  A    between atoms: C_1  and  C_2
REMARK    2  A    between atoms: C_2  and  C_3
REMARK    3  A    between atoms: C_2  and  C_14
REMARK    4  A    between atoms: C_3  and  N_4
REMARK    5  A    between atoms: N_4  and  C_5
REMARK    6  A    between atoms: C_8  and  C_9
REMARK                            x       y       z     vdW  Elec       q    Type
REMARK                         _______ _______ _______ _____ _____    ______ ____
ROOT
ATOM      1  N   UNL     1       2.785   0.881   2.307  0.00  0.00    +0.000 N 
ATOM      2  H   UNL     1       1.777   1.031   2.326  0.00  0.00    +0.000 HD
ENDROOT
BRANCH   1   3
ATOM      3  C   UNL     1       3.310   0.809   3.604  0.00  0.00    +0.000 A 
ATOM      4  C   UNL     1       2.614   1.407   4.660  0.00  0.00    +0.000 A 
ATOM      5  C   UNL     1       3.130   1.373   5.957  0.00  0.00    +0.000 A 
ATOM      6  C   UNL     1       4.358   0.765   6.155  0.00  0.00    +0.000 A 
ATOM      7  N   UNL     1       5.106   0.223   5.157  0.00  0.00    +0.000 NA
ATOM      8  C   UNL     1       4.567   0.284   3.915  0.00  0.00    +0.000 A 
BRANCH   6   9
ATOM      9  C   UNL     1       4.933   0.669   7.536  0.00  0.00    +0.000 C 
ATOM     10  N   UNL     1       6.143   0.032   7.614  0.00  0.00    +0.000 N 
ATOM     11  O   UNL     1       4.366   1.111   8.525  0.00  0.00    +0.000 OA
ATOM     12  H   UNL     1       6.570  -0.326   6.768  0.00  0.00    +0.000 HD
ATOM     13  H   UNL     1       6.587  -0.093   8.511  0.00  0.00    +0.000 HD
ENDBRANCH   6   9
ENDBRANCH   1   3
BRANCH   1  14
ATOM     14  C   UNL     1       3.132  -0.199   1.385  0.00  0.00    +0.000 C 
BRANCH  14  16
ATOM     15  C   UNL     1       2.780   1.126  -0.787  0.00  0.00    +0.000 C 
ATOM     16  C   UNL     1       2.350   0.022   0.127  0.00  0.00    +0.000 C 
BRANCH  16  17
ATOM     17  C   UNL     1       0.975  -0.493   0.049  0.00  0.00    +0.000 A 
ATOM     18  C   UNL     1       0.695  -1.851   0.243  0.00  0.00    +0.000 A 
ATOM     19  C   UNL     1      -0.623  -2.314   0.205  0.00  0.00    +0.000 A 
ATOM     20  C   UNL     1      -1.671  -1.422  -0.021  0.00  0.00    +0.000 A 
ATOM     21  C   UNL     1      -1.401  -0.071  -0.223  0.00  0.00    +0.000 A 
ATOM     22  C   UNL     1      -0.086   0.387  -0.197  0.00  0.00    +0.000 A 
ENDBRANCH  16  17
ENDBRANCH  14  16
ENDBRANCH   1  14
TORSDOF 5
