REMARK  Name = 
REMARK  5 active torsions:
REMARK  status: ('A' for Active; 'I' for Inactive)
REMARK    1  A    between atoms: C_1  and  C_2
REMARK    2  A    between atoms: C_5  and  O_6
REMARK    3  A    between atoms: O_6  and  C_7
REMARK    4  A    between atoms: C_7  and  C_8
REMARK    5  A    between atoms: C_11  and  C_12
REMARK                            x       y       z     vdW  Elec       q    Type
REMARK                         _______ _______ _______ _____ _____    ______ ____
ROOT
ATOM      1  C   UNL     1      -2.971   2.502  -0.339  0.00  0.00    +0.000 A 
ATOM      2  C   UNL     1      -1.572   2.504  -0.266  0.00  0.00    +0.000 A 
ATOM      3  C   UNL     1      -0.861   3.712  -0.256  0.00  0.00    +0.000 A 
ATOM      4  C   UNL     1      -1.538   4.943  -0.322  0.00  0.00    +0.000 A 
ATOM      5  C   UNL     1      -2.923   4.935  -0.463  0.00  0.00    +0.000 A 
ATOM      6  F   UNL     1      -3.624   6.076  -0.556  0.00  0.00    +0.000 F 
ATOM      7  C   UNL     1      -3.632   3.734  -0.477  0.00  0.00    +0.000 A 
ENDROOT
BRANCH   4   8
ATOM      8  C   UNL     1      -0.751   6.196  -0.179  0.00  0.00    +0.000 C 
ATOM      9  N   UNL     1      -1.419   7.387  -0.148  0.00  0.00    +0.000 N 
ATOM     10  O   UNL     1       0.466   6.165  -0.059  0.00  0.00    +0.000 OA
ATOM     11  H   UNL     1      -2.427   7.458  -0.222  0.00  0.00    +0.000 HD
ATOM     12  H   UNL     1      -0.882   8.226   0.015  0.00  0.00    +0.000 HD
ENDBRANCH   4   8
BRANCH   1  13
ATOM     13  C   UNL     1      -3.817   1.253  -0.185  0.00  0.00    +0.000 C 
BRANCH  13  14
ATOM     14  O   UNL     1      -3.061   0.047  -0.052  0.00  0.00    +0.000 OA
BRANCH  14  19
ATOM     15  C   UNL     1      -5.493  -4.368   2.590  0.00  0.00    +0.000 C 
ATOM     16  C   UNL     1      -4.885  -3.226   1.830  0.00  0.00    +0.000 A 
ATOM     17  C   UNL     1      -5.689  -2.183   1.357  0.00  0.00    +0.000 A 
ATOM     18  C   UNL     1      -5.118  -1.090   0.693  0.00  0.00    +0.000 A 
ATOM     19  C   UNL     1      -3.737  -1.017   0.499  0.00  0.00    +0.000 A 
ATOM     20  C   UNL     1      -2.946  -2.096   0.899  0.00  0.00    +0.000 A 
ATOM     21  C   UNL     1      -3.515  -3.196   1.554  0.00  0.00    +0.000 A 
ENDBRANCH  14  19
ENDBRANCH  13  14
ENDBRANCH   1  13
TORSDOF 4
