REMARK  Name = 
REMARK  7 active torsions:
REMARK  status: ('A' for Active; 'I' for Inactive)
REMARK    1  A    between atoms: C_1  and  O_2
REMARK    2  A    between atoms: O_2  and  C_3
REMARK    3  A    between atoms: C_7  and  C_8
REMARK    4  A    between atoms: C_12  and  C_13
REMARK    5  A    between atoms: C_13  and  N_14
REMARK    6  A    between atoms: N_14  and  C_15
REMARK    7  A    between atoms: C_18  and  C_19
REMARK                            x       y       z     vdW  Elec       q    Type
REMARK                         _______ _______ _______ _____ _____    ______ ____
ROOT
ATOM      1  C   UNL     1       2.222  -7.171  -3.707  0.00  0.00    +0.000 C 
ATOM      2  C   UNL     1       2.309  -8.073  -2.436  0.00  0.00    +0.000 C 
ATOM      3  C   UNL     1       3.530  -7.510  -2.932  0.00  0.00    +0.000 C 
ENDROOT
BRANCH   1   8
ATOM      4  C   UNL     1       2.914  -3.468  -3.199  0.00  0.00    +0.000 A 
ATOM      5  C   UNL     1       3.207  -3.062  -4.506  0.00  0.00    +0.000 A 
ATOM      6  C   UNL     1       3.038  -3.939  -5.578  0.00  0.00    +0.000 A 
ATOM      7  C   UNL     1       2.649  -5.255  -5.332  0.00  0.00    +0.000 A 
ATOM      8  C   UNL     1       2.364  -5.696  -4.027  0.00  0.00    +0.000 A 
ATOM      9  C   UNL     1       2.396  -4.754  -3.006  0.00  0.00    +0.000 A 
BRANCH   4  14
ATOM     10  C   UNL     1       2.902  -2.190   0.345  0.00  0.00    +0.000 A 
ATOM     11  C   UNL     1       4.121  -1.525   0.333  0.00  0.00    +0.000 A 
ATOM     12  N   UNL     1       4.914  -1.414  -0.759  0.00  0.00    +0.000 NA
ATOM     13  C   UNL     1       4.478  -2.012  -1.892  0.00  0.00    +0.000 A 
ATOM     14  C   UNL     1       3.269  -2.693  -2.005  0.00  0.00    +0.000 A 
ATOM     15  C   UNL     1       2.475  -2.757  -0.848  0.00  0.00    +0.000 A 
BRANCH  10  17
ATOM     16  C   UNL     1       1.052  -3.049   1.558  0.00  0.00    +0.000 C 
ATOM     17  O   UNL     1       2.231  -2.247   1.535  0.00  0.00    +0.000 OA
ENDBRANCH  10  17
ENDBRANCH   4  14
ENDBRANCH   1   8
BRANCH   1  18
ATOM     18  N   UNL     1       1.016  -7.699  -4.326  0.00  0.00    +0.000 N 
ATOM     19  H   UNL     1       0.162  -7.162  -4.204  0.00  0.00    +0.000 HD
BRANCH  18  20
ATOM     20  C   UNL     1       0.903  -8.800  -5.166  0.00  0.00    +0.000 A 
ATOM     21  C   UNL     1       2.012  -9.375  -5.778  0.00  0.00    +0.000 A 
ATOM     22  C   UNL     1       1.875 -10.522  -6.550  0.00  0.00    +0.000 A 
ATOM     23  C   UNL     1       0.625 -11.139  -6.674  0.00  0.00    +0.000 A 
ATOM     24  C   UNL     1      -0.497 -10.583  -6.057  0.00  0.00    +0.000 A 
ATOM     25  C   UNL     1      -0.352  -9.417  -5.309  0.00  0.00    +0.000 A 
BRANCH  23  26
ATOM     26  C   UNL     1       0.541 -12.380  -7.489  0.00  0.00    +0.000 C 
ATOM     27  N   UNL     1      -0.440 -13.276  -7.178  0.00  0.00    +0.000 N 
ATOM     28  O   UNL     1       1.352 -12.624  -8.345  0.00  0.00    +0.000 OA
ATOM     29  H   UNL     1      -0.961 -13.238  -6.312  0.00  0.00    +0.000 HD
ATOM     30  H   UNL     1      -0.389 -14.160  -7.664  0.00  0.00    +0.000 HD
ENDBRANCH  23  26
ENDBRANCH  18  20
ENDBRANCH   1  18
TORSDOF 6
