REMARK  Name = 
REMARK  6 active torsions:
REMARK  status: ('A' for Active; 'I' for Inactive)
REMARK    1  A    between atoms: C_2  and  C_3
REMARK    2  A    between atoms: N_10  and  C_11
REMARK    3  A    between atoms: C_11  and  C_12
REMARK    4  A    between atoms: C_15  and  C_16
REMARK    5  A    between atoms: C_16  and  N_17
REMARK    6  A    between atoms: C_18  and  C_20
REMARK                            x       y       z     vdW  Elec       q    Type
REMARK                         _______ _______ _______ _____ _____    ______ ____
ROOT
ATOM      1  C   UNL     1       0.552  -4.194  -0.084  0.00  0.00    +0.000 A 
ATOM      2  C   UNL     1      -0.172  -5.393  -0.048  0.00  0.00    +0.000 A 
ATOM      3  C   UNL     1      -1.572  -5.379  -0.018  0.00  0.00    +0.000 A 
ATOM      4  C   UNL     1      -2.280  -4.168  -0.046  0.00  0.00    +0.000 A 
ATOM      5  C   UNL     1      -1.555  -2.970  -0.079  0.00  0.00    +0.000 A 
ATOM      6  C   UNL     1      -0.160  -2.993  -0.106  0.00  0.00    +0.000 A 
ATOM      7  F   UNL     1       0.503  -1.828  -0.149  0.00  0.00    +0.000 F 
ENDROOT
BRANCH   1   8
ATOM      8  C   UNL     1       2.054  -4.202  -0.105  0.00  0.00    +0.000 C 
BRANCH   8  16
ATOM      9  C   UNL     1       4.800  -5.712  -3.797  0.00  0.00    +0.000 A 
ATOM     10  C   UNL     1       4.896  -5.318  -5.120  0.00  0.00    +0.000 A 
ATOM     11  C   UNL     1       3.743  -4.564  -5.426  0.00  0.00    +0.000 A 
ATOM     12  C   UNL     1       2.986  -4.495  -4.279  0.00  0.00    +0.000 A 
ATOM     13  N   UNL     1       3.628  -5.204  -3.267  0.00  0.00    +0.000 N 
ATOM     14  C   UNL     1       3.147  -5.398  -1.956  0.00  0.00    +0.000 C 
ATOM     15  O   UNL     1       3.321  -6.466  -1.395  0.00  0.00    +0.000 OA
ATOM     16  N   UNL     1       2.562  -4.261  -1.458  0.00  0.00    +0.000 N 
ATOM     17  H   UNL     1       2.672  -3.381  -1.947  0.00  0.00    +0.000 HD
BRANCH   9  19
ATOM     18  N   UNL     1       6.633  -6.979  -2.493  0.00  0.00    +0.000 NA
ATOM     19  C   UNL     1       5.787  -6.434  -3.059  0.00  0.00    +0.000 C 
ENDBRANCH   9  19
ENDBRANCH   8  16
ENDBRANCH   1   8
BRANCH   4  20
ATOM     20  C   UNL     1      -3.787  -4.153   0.008  0.00  0.00    +0.000 C 
BRANCH  20  21
ATOM     21  N   UNL     1      -4.258  -4.042   1.366  0.00  0.00    +0.000 N 
ATOM     22  C   UNL     1      -5.597  -3.993   1.656  0.00  0.00    +0.000 C 
ATOM     23  O   UNL     1      -6.454  -3.907   0.780  0.00  0.00    +0.000 OA
ATOM     24  H   UNL     1      -3.601  -4.285   2.101  0.00  0.00    +0.000 HD
BRANCH  22  25
ATOM     25  C   UNL     1      -5.962  -4.041   3.078  0.00  0.00    +0.000 A 
ATOM     26  C   UNL     1      -7.153  -3.476   3.516  0.00  0.00    +0.000 A 
ATOM     27  S   UNL     1      -7.452  -3.720   5.179  0.00  0.00    +0.000 S 
ATOM     28  C   UNL     1      -6.044  -4.662   5.347  0.00  0.00    +0.000 A 
ATOM     29  N   UNL     1      -5.768  -5.313   6.509  0.00  0.00    +0.000 NA
ATOM     30  C   UNL     1      -4.665  -5.986   6.493  0.00  0.00    +0.000 A 
ATOM     31  N   UNL     1      -3.791  -6.027   5.439  0.00  0.00    +0.000 N 
ATOM     32  C   UNL     1      -4.019  -5.368   4.255  0.00  0.00    +0.000 A 
ATOM     33  O   UNL     1      -3.184  -5.365   3.356  0.00  0.00    +0.000 OA
ATOM     34  C   UNL     1      -5.289  -4.671   4.189  0.00  0.00    +0.000 A 
ATOM     35  H   UNL     1      -2.914  -6.522   5.512  0.00  0.00    +0.000 HD
ENDBRANCH  22  25
ENDBRANCH  20  21
ENDBRANCH   4  20
TORSDOF 6
