REMARK  Name = 
REMARK  9 active torsions:
REMARK  status: ('A' for Active; 'I' for Inactive)
REMARK    1  A    between atoms: C_1  and  C_2
REMARK    2  A    between atoms: C_2  and  O_3
REMARK    3  A    between atoms: O_3  and  C_4
REMARK    4  A    between atoms: C_4  and  C_5
REMARK    5  A    between atoms: C_8  and  C_9
REMARK    6  A    between atoms: C_9  and  C_10
REMARK    7  A    between atoms: C_13  and  C_14
REMARK    8  A    between atoms: C_14  and  N_15
REMARK    9  A    between atoms: C_16  and  C_18
REMARK                            x       y       z     vdW  Elec       q    Type
REMARK                         _______ _______ _______ _____ _____    ______ ____
ROOT
ATOM      1  C   UNL     1       6.431  -3.357  -6.679  0.00  0.00    +0.000 A 
ATOM      2  C   UNL     1       7.673  -2.760  -6.481  0.00  0.00    +0.000 A 
ATOM      3  C   UNL     1       8.168  -1.900  -7.459  0.00  0.00    +0.000 A 
ATOM      4  C   UNL     1       7.407  -1.637  -8.599  0.00  0.00    +0.000 A 
ATOM      5  C   UNL     1       6.215  -2.334  -8.744  0.00  0.00    +0.000 A 
ATOM      6  N   UNL     1       5.716  -3.185  -7.819  0.00  0.00    +0.000 NA
ENDROOT
BRANCH   1   7
ATOM      7  C   UNL     1       5.752  -4.113  -5.557  0.00  0.00    +0.000 C 
BRANCH   7  11
ATOM      8  C   UNL     1       3.282  -1.463  -3.294  0.00  0.00    +0.000 A 
ATOM      9  C   UNL     1       4.329  -2.112  -2.640  0.00  0.00    +0.000 A 
ATOM     10  C   UNL     1       5.130  -2.999  -3.357  0.00  0.00    +0.000 A 
ATOM     11  C   UNL     1       4.876  -3.220  -4.711  0.00  0.00    +0.000 A 
ATOM     12  C   UNL     1       3.790  -2.551  -5.271  0.00  0.00    +0.000 A 
ATOM     13  N   UNL     1       2.989  -1.694  -4.596  0.00  0.00    +0.000 NA
BRANCH   8  14
ATOM     14  C   UNL     1       2.453  -0.440  -2.558  0.00  0.00    +0.000 C 
BRANCH  14  15
ATOM     15  O   UNL     1       3.314   0.603  -2.095  0.00  0.00    +0.000 OA
BRANCH  15  17
ATOM     16  C   UNL     1       3.594   2.705  -1.027  0.00  0.00    +0.000 C 
ATOM     17  C   UNL     1       2.598   1.634  -1.427  0.00  0.00    +0.000 C 
ENDBRANCH  15  17
ENDBRANCH  14  15
ENDBRANCH   8  14
ENDBRANCH   7  11
ENDBRANCH   1   7
BRANCH   4  18
ATOM     18  C   UNL     1       7.848  -0.649  -9.637  0.00  0.00    +0.000 C 
BRANCH  18  19
ATOM     19  N   UNL     1       8.642  -1.280 -10.655  0.00  0.00    +0.000 N 
ATOM     20  C   UNL     1       9.228  -0.544 -11.653  0.00  0.00    +0.000 C 
ATOM     21  O   UNL     1       9.163   0.682 -11.683  0.00  0.00    +0.000 OA
ATOM     22  H   UNL     1       8.521  -2.280 -10.783  0.00  0.00    +0.000 HD
BRANCH  20  23
ATOM     23  C   UNL     1       9.992  -1.298 -12.653  0.00  0.00    +0.000 A 
ATOM     24  C   UNL     1      10.985  -0.660 -13.384  0.00  0.00    +0.000 A 
ATOM     25  S   UNL     1      11.812  -1.694 -14.459  0.00  0.00    +0.000 S 
ATOM     26  C   UNL     1      10.836  -3.018 -14.023  0.00  0.00    +0.000 A 
ATOM     27  N   UNL     1      11.010  -4.236 -14.603  0.00  0.00    +0.000 NA
ATOM     28  C   UNL     1      10.181  -5.141 -14.203  0.00  0.00    +0.000 A 
ATOM     29  N   UNL     1       9.197  -4.941 -13.270  0.00  0.00    +0.000 N 
ATOM     30  C   UNL     1       9.006  -3.739 -12.633  0.00  0.00    +0.000 A 
ATOM     31  O   UNL     1       8.148  -3.605 -11.767  0.00  0.00    +0.000 OA
ATOM     32  C   UNL     1       9.904  -2.681 -13.059  0.00  0.00    +0.000 A 
ATOM     33  H   UNL     1       8.587  -5.696 -12.993  0.00  0.00    +0.000 HD
ENDBRANCH  20  23
ENDBRANCH  18  19
ENDBRANCH   4  18
TORSDOF 8
