REMARK  Name = 
REMARK  8 active torsions:
REMARK  status: ('A' for Active; 'I' for Inactive)
REMARK    1  A    between atoms: C_1  and  C_2
REMARK    2  A    between atoms: C_7  and  C_8
REMARK    3  A    between atoms: N_10  and  C_11
REMARK    4  A    between atoms: C_11  and  C_12
REMARK    5  A    between atoms: C_15  and  C_16
REMARK    6  A    between atoms: C_16  and  N_17
REMARK    7  A    between atoms: N_17  and  C_18
REMARK    8  A    between atoms: C_18  and  C_19
REMARK                            x       y       z     vdW  Elec       q    Type
REMARK                         _______ _______ _______ _____ _____    ______ ____
ROOT
ATOM      1  C   UNL     1       9.224   1.494   1.593  0.00  0.00    +0.000 C 
ATOM      2  O   UNL     1       9.517   0.738   0.669  0.00  0.00    +0.000 OA
ATOM      3  N   UNL     1       8.735   2.751   1.357  0.00  0.00    +0.000 N 
ATOM      4  H   UNL     1       8.494   3.374   2.123  0.00  0.00    +0.000 HD
ENDROOT
BRANCH   1  11
ATOM      5  C   UNL     1       8.590   3.085   8.238  0.00  0.00    +0.000 C 
ATOM      6  C   UNL     1       8.802   2.542   6.856  0.00  0.00    +0.000 A 
ATOM      7  N   UNL     1       9.272   1.350   6.665  0.00  0.00    +0.000 NA
ATOM      8  C   UNL     1       9.411   0.996   5.360  0.00  0.00    +0.000 A 
ATOM      9  S   UNL     1      10.016  -0.537   4.938  0.00  0.00    +0.000 S 
ATOM     10  C   UNL     1       9.881  -0.192   3.275  0.00  0.00    +0.000 A 
ATOM     11  C   UNL     1       9.383   1.077   2.999  0.00  0.00    +0.000 A 
ATOM     12  C   UNL     1       9.110   1.762   4.246  0.00  0.00    +0.000 A 
ATOM     13  C   UNL     1       8.587   3.088   4.511  0.00  0.00    +0.000 A 
ATOM     14  O   UNL     1       8.266   3.894   3.644  0.00  0.00    +0.000 OA
ATOM     15  N   UNL     1       8.461   3.403   5.842  0.00  0.00    +0.000 N 
ATOM     16  H   UNL     1       8.099   4.323   6.040  0.00  0.00    +0.000 HD
ENDBRANCH   1  11
BRANCH   3  17
ATOM     17  C   UNL     1       8.543   3.243   0.016  0.00  0.00    +0.000 C 
BRANCH  17  18
ATOM     18  C   UNL     1       7.966   4.635   0.015  0.00  0.00    +0.000 A 
ATOM     19  C   UNL     1       8.803   5.758   0.036  0.00  0.00    +0.000 A 
ATOM     20  C   UNL     1       8.261   7.048   0.039  0.00  0.00    +0.000 A 
ATOM     21  C   UNL     1       6.873   7.242   0.027  0.00  0.00    +0.000 A 
ATOM     22  C   UNL     1       6.038   6.117   0.029  0.00  0.00    +0.000 A 
ATOM     23  C   UNL     1       6.579   4.827   0.028  0.00  0.00    +0.000 A 
BRANCH  21  24
ATOM     24  C   UNL     1       6.286   8.634   0.037  0.00  0.00    +0.000 C 
BRANCH  24  25
ATOM     25  N   UNL     1       6.693   9.395  -1.146  0.00  0.00    +0.000 NA
ATOM     26  H   UNL     1       6.396   8.880  -1.979  0.00  0.00    +0.000 HD
BRANCH  25  27
ATOM     27  C   UNL     1       6.057  10.715  -1.153  0.00  0.00    +0.000 C 
BRANCH  27  28
ATOM     28  C   UNL     1       6.502  11.457  -2.376  0.00  0.00    +0.000 C 
ATOM     29  C   UNL     1       7.749  12.203  -2.462  0.00  0.00    +0.000 C 
ATOM     30  N   UNL     1       7.817  12.725  -3.726  0.00  0.00    +0.000 NA
ATOM     31  C   UNL     1       6.724  12.304  -4.295  0.00  0.00    +0.000 C 
ATOM     32  N   UNL     1       5.883  11.520  -3.522  0.00  0.00    +0.000 NA
ENDBRANCH  27  28
ENDBRANCH  25  27
ENDBRANCH  24  25
ENDBRANCH  21  24
ENDBRANCH  17  18
ENDBRANCH   3  17
TORSDOF 7
