REMARK  Name = 
REMARK  8 active torsions:
REMARK  status: ('A' for Active; 'I' for Inactive)
REMARK    1  A    between atoms: C_1  and  O_2
REMARK    2  A    between atoms: O_2  and  C_3
REMARK    3  A    between atoms: C_10  and  C_11
REMARK    4  A    between atoms: N_13  and  C_14
REMARK    5  A    between atoms: C_14  and  C_15
REMARK    6  A    between atoms: C_18  and  N_19
REMARK    7  A    between atoms: N_19  and  C_20
REMARK    8  A    between atoms: C_20  and  C_21
REMARK                            x       y       z     vdW  Elec       q    Type
REMARK                         _______ _______ _______ _____ _____    ______ ____
ROOT
ATOM      1  C   UNL     1       3.035   3.138   1.371  0.00  0.00    +0.000 C 
ENDROOT
BRANCH   1   2
ATOM      2  C   UNL     1       1.783   3.366   0.563  0.00  0.00    +0.000 A 
ATOM      3  C   UNL     1       0.928   2.295   0.291  0.00  0.00    +0.000 A 
ATOM      4  C   UNL     1      -0.233   2.474  -0.472  0.00  0.00    +0.000 A 
ATOM      5  C   UNL     1      -0.570   3.719  -1.012  0.00  0.00    +0.000 A 
ATOM      6  C   UNL     1       0.273   4.798  -0.706  0.00  0.00    +0.000 A 
ATOM      7  C   UNL     1       1.439   4.627   0.063  0.00  0.00    +0.000 A 
BRANCH   5   8
ATOM      8  N   UNL     1      -1.737   3.952  -1.757  0.00  0.00    +0.000 N 
ATOM      9  H   UNL     1      -1.536   4.516  -2.581  0.00  0.00    +0.000 HD
BRANCH   8  10
ATOM     10  C   UNL     1      -2.665   2.846  -2.001  0.00  0.00    +0.000 C 
BRANCH  10  11
ATOM     11  C   UNL     1      -3.904   3.292  -2.800  0.00  0.00    +0.000 C 
ATOM     12  C   UNL     1      -4.712   4.365  -2.056  0.00  0.00    +0.000 C 
ATOM     13  C   UNL     1      -6.035   4.649  -2.755  0.00  0.00    +0.000 C 
ATOM     14  O   UNL     1      -6.794   3.451  -2.911  0.00  0.00    +0.000 OA
ATOM     15  C   UNL     1      -6.123   2.500  -3.733  0.00  0.00    +0.000 C 
ATOM     16  C   UNL     1      -4.805   2.077  -3.096  0.00  0.00    +0.000 C 
ENDBRANCH  10  11
ENDBRANCH   8  10
ENDBRANCH   5   8
ENDBRANCH   1   2
BRANCH   1  19
ATOM     17  C   UNL     1       5.350   2.376   1.116  0.00  0.00    +0.000 C 
ATOM     18  O   UNL     1       5.513   2.446   2.333  0.00  0.00    +0.000 OA
ATOM     19  N   UNL     1       4.150   2.708   0.549  0.00  0.00    +0.000 N 
ATOM     20  H   UNL     1       4.001   2.602  -0.446  0.00  0.00    +0.000 HD
BRANCH  17  28
ATOM     21  C   UNL     1       5.641   1.867  -2.295  0.00  0.00    +0.000 A 
ATOM     22  N   UNL     1       6.043   1.611  -3.558  0.00  0.00    +0.000 NA
ATOM     23  C   UNL     1       7.312   1.250  -3.761  0.00  0.00    +0.000 A 
ATOM     24  N   UNL     1       8.252   1.099  -2.835  0.00  0.00    +0.000 NA
ATOM     25  C   UNL     1       7.810   1.351  -1.591  0.00  0.00    +0.000 A 
ATOM     26  S   UNL     1       8.885   1.198  -0.287  0.00  0.00    +0.000 S 
ATOM     27  C   UNL     1       7.681   1.653   0.818  0.00  0.00    +0.000 A 
ATOM     28  C   UNL     1       6.453   1.940   0.233  0.00  0.00    +0.000 A 
ATOM     29  C   UNL     1       6.530   1.742  -1.212  0.00  0.00    +0.000 A 
BRANCH  21  31
ATOM     30  C   UNL     1       3.752   2.811  -3.269  0.00  0.00    +0.000 C 
ATOM     31  O   UNL     1       4.323   2.226  -2.098  0.00  0.00    +0.000 OA
ENDBRANCH  21  31
ENDBRANCH  17  28
ENDBRANCH   1  19
TORSDOF 7
