REMARK  Name = 
REMARK  10 active torsions:
REMARK  status: ('A' for Active; 'I' for Inactive)
REMARK    1  A    between atoms: N_1  and  C_2
REMARK    2  A    between atoms: C_2  and  C_3
REMARK    3  A    between atoms: C_3  and  C_4
REMARK    4  A    between atoms: C_4  and  N_5
REMARK    5  A    between atoms: C_4  and  C_27
REMARK    6  A    between atoms: N_5  and  C_6
REMARK    7  A    between atoms: C_6  and  C_7
REMARK    8  A    between atoms: C_10  and  C_11
REMARK    9  A    between atoms: C_11  and  N_12
REMARK   10  A    between atoms: C_13  and  C_15
REMARK                            x       y       z     vdW  Elec       q    Type
REMARK                         _______ _______ _______ _____ _____    ______ ____
ROOT
ATOM      1  C   UNL     1       5.160  -2.913  -0.008  0.00  0.00    +0.000 A 
ATOM      2  C   UNL     1       6.485  -3.175   0.369  0.00  0.00    +0.000 A 
ATOM      3  C   UNL     1       6.967  -4.489   0.410  0.00  0.00    +0.000 A 
ATOM      4  C   UNL     1       6.132  -5.564   0.077  0.00  0.00    +0.000 A 
ATOM      5  C   UNL     1       4.803  -5.305  -0.275  0.00  0.00    +0.000 A 
ATOM      6  C   UNL     1       4.325  -3.995  -0.324  0.00  0.00    +0.000 A 
ENDROOT
BRANCH   1   7
ATOM      7  C   UNL     1       4.586  -1.512   0.019  0.00  0.00    +0.000 C 
BRANCH   7   8
ATOM      8  N   UNL     1       5.309  -0.581  -0.848  0.00  0.00    +0.000 NA
ATOM      9  H   UNL     1       6.286  -0.543  -0.569  0.00  0.00    +0.000 HD
BRANCH   8  10
ATOM     10  C   UNL     1       4.761   0.795  -0.802  0.00  0.00    +0.000 C 
BRANCH  10  11
ATOM     11  C   UNL     1       3.323   0.874  -1.337  0.00  0.00    +0.000 A 
ATOM     12  C   UNL     1       3.086   0.905  -2.710  0.00  0.00    +0.000 A 
ATOM     13  C   UNL     1       1.771   0.980  -3.165  0.00  0.00    +0.000 A 
ATOM     14  C   UNL     1       0.729   1.001  -2.246  0.00  0.00    +0.000 A 
ATOM     15  C   UNL     1       1.044   0.935  -0.902  0.00  0.00    +0.000 A 
ATOM     16  N   UNL     1       2.306   0.870  -0.431  0.00  0.00    +0.000 NA
ENDBRANCH  10  11
BRANCH  10  17
ATOM     17  C   UNL     1       4.845   1.499   0.579  0.00  0.00    +0.000 C 
BRANCH  17  18
ATOM     18  C   UNL     1       6.234   1.615   1.199  0.00  0.00    +0.000 C 
BRANCH  18  19
ATOM     19  N   UNL     1       7.138   2.428   0.396  0.00  0.00    +0.000 NA
ATOM     20  H   UNL     1       8.004   2.575   0.916  0.00  0.00    +0.000 HD
ATOM     21  H   UNL     1       6.736   3.357   0.266  0.00  0.00    +0.000 HD
ENDBRANCH  18  19
ENDBRANCH  17  18
ENDBRANCH  10  17
ENDBRANCH   8  10
ENDBRANCH   7   8
ENDBRANCH   1   7
BRANCH   4  22
ATOM     22  C   UNL     1       6.622  -6.983   0.168  0.00  0.00    +0.000 C 
BRANCH  22  23
ATOM     23  N   UNL     1       6.394  -7.510   1.489  0.00  0.00    +0.000 N 
ATOM     24  C   UNL     1       6.831  -8.757   1.848  0.00  0.00    +0.000 C 
ATOM     25  O   UNL     1       7.463  -9.472   1.076  0.00  0.00    +0.000 OA
ATOM     26  H   UNL     1       5.696  -7.039   2.056  0.00  0.00    +0.000 HD
BRANCH  24  27
ATOM     27  C   UNL     1       6.562  -9.168   3.231  0.00  0.00    +0.000 A 
ATOM     28  C   UNL     1       7.343 -10.158   3.812  0.00  0.00    +0.000 A 
ATOM     29  S   UNL     1       6.946 -10.477   5.439  0.00  0.00    +0.000 S 
ATOM     30  C   UNL     1       5.682  -9.337   5.411  0.00  0.00    +0.000 A 
ATOM     31  N   UNL     1       4.908  -9.125   6.509  0.00  0.00    +0.000 NA
ATOM     32  C   UNL     1       3.974  -8.249   6.343  0.00  0.00    +0.000 A 
ATOM     33  N   UNL     1       3.740  -7.570   5.175  0.00  0.00    +0.000 N 
ATOM     34  C   UNL     1       4.505  -7.739   4.046  0.00  0.00    +0.000 A 
ATOM     35  O   UNL     1       4.286  -7.094   3.027  0.00  0.00    +0.000 OA
ATOM     36  C   UNL     1       5.573  -8.712   4.181  0.00  0.00    +0.000 A 
ATOM     37  H   UNL     1       2.990  -6.897   5.111  0.00  0.00    +0.000 HD
ENDBRANCH  24  27
ENDBRANCH  22  23
ENDBRANCH   4  22
TORSDOF 10
