REMARK  Name = 
REMARK  6 active torsions:
REMARK  status: ('A' for Active; 'I' for Inactive)
REMARK    1  A    between atoms: C_1  and  S_2
REMARK    2  A    between atoms: S_2  and  C_3
REMARK    3  A    between atoms: C_6  and  C_7
REMARK    4  A    between atoms: C_7  and  O_8
REMARK    5  A    between atoms: O_8  and  C_9
REMARK    6  A    between atoms: C_12  and  C_13
REMARK                            x       y       z     vdW  Elec       q    Type
REMARK                         _______ _______ _______ _____ _____    ______ ____
ROOT
ATOM      1  C   UNL     1       5.135   0.839   7.648  0.00  0.00    +0.000 A 
ATOM      2  C   UNL     1       5.406  -0.265   8.454  0.00  0.00    +0.000 A 
ATOM      3  C   UNL     1       5.892  -0.070   9.748  0.00  0.00    +0.000 A 
ATOM      4  C   UNL     1       6.092   1.230  10.192  0.00  0.00    +0.000 A 
ATOM      5  N   UNL     1       5.837   2.334   9.438  0.00  0.00    +0.000 NA
ATOM      6  C   UNL     1       5.364   2.102   8.189  0.00  0.00    +0.000 A 
ENDROOT
BRANCH   4   7
ATOM      7  C   UNL     1       6.620   1.464  11.573  0.00  0.00    +0.000 C 
ATOM      8  N   UNL     1       6.789   2.777  11.922  0.00  0.00    +0.000 N 
ATOM      9  O   UNL     1       6.889   0.550  12.342  0.00  0.00    +0.000 OA
ATOM     10  H   UNL     1       6.559   3.504  11.255  0.00  0.00    +0.000 HD
ATOM     11  H   UNL     1       7.148   3.008  12.836  0.00  0.00    +0.000 HD
ENDBRANCH   4   7
BRANCH   1  12
ATOM     12  O   UNL     1       4.659   0.809   6.369  0.00  0.00    +0.000 OA
BRANCH  12  13
ATOM     13  C   UNL     1       4.483  -0.482   5.781  0.00  0.00    +0.000 C 
BRANCH  13  17
ATOM     14  C   UNL     1       3.237  -0.269   1.640  0.00  0.00    +0.000 A 
ATOM     15  C   UNL     1       3.972   0.776   2.202  0.00  0.00    +0.000 A 
ATOM     16  C   UNL     1       4.367   0.724   3.542  0.00  0.00    +0.000 A 
ATOM     17  C   UNL     1       4.010  -0.364   4.349  0.00  0.00    +0.000 A 
ATOM     18  C   UNL     1       3.258  -1.404   3.781  0.00  0.00    +0.000 A 
ATOM     19  C   UNL     1       2.867  -1.352   2.440  0.00  0.00    +0.000 A 
BRANCH  14  21
ATOM     20  C   UNL     1       4.415  -0.208  -0.831  0.00  0.00    +0.000 C 
ATOM     21  S   UNL     1       2.765  -0.246  -0.079  0.00  0.00    +0.000 S 
ENDBRANCH  14  21
ENDBRANCH  13  17
ENDBRANCH  12  13
ENDBRANCH   1  12
TORSDOF 5
