REMARK  Name = 
REMARK  7 active torsions:
REMARK  status: ('A' for Active; 'I' for Inactive)
REMARK    1  A    between atoms: C_1  and  C_2
REMARK    2  A    between atoms: C_2  and  C_3
REMARK    3  A    between atoms: C_2  and  N_4
REMARK    4  A    between atoms: C_5  and  C_7
REMARK    5  A    between atoms: N_11  and  C_12
REMARK    6  A    between atoms: C_12  and  C_13
REMARK    7  A    between atoms: C_13  and  C_16
REMARK                            x       y       z     vdW  Elec       q    Type
REMARK                         _______ _______ _______ _____ _____    ______ ____
ROOT
ATOM      1  C   UNL     1       4.872  -2.980  -0.860  0.00  0.00    +0.000 A 
ATOM      2  C   UNL     1       4.296  -3.688  -1.911  0.00  0.00    +0.000 A 
ATOM      3  C   UNL     1       4.786  -4.958  -2.226  0.00  0.00    +0.000 A 
ATOM      4  C   UNL     1       5.871  -5.480  -1.524  0.00  0.00    +0.000 A 
ATOM      5  N   UNL     1       6.347  -6.739  -1.903  0.00  0.00    +0.000 N 
ATOM      6  N   UNL     1       6.452  -4.798  -0.519  0.00  0.00    +0.000 NA
ATOM      7  C   UNL     1       5.943  -3.575  -0.205  0.00  0.00    +0.000 A 
ATOM      8  H   UNL     1       5.651  -7.452  -1.690  0.00  0.00    +0.000 HD
ENDROOT
BRANCH   1  10
ATOM      9  N   UNL     1       3.144  -1.262  -0.774  0.00  0.00    +0.000 N 
ATOM     10  C   UNL     1       4.438  -1.621  -0.454  0.00  0.00    +0.000 C 
ATOM     11  O   UNL     1       5.215  -0.887   0.146  0.00  0.00    +0.000 OA
ATOM     12  H   UNL     1       2.490  -1.981  -1.054  0.00  0.00    +0.000 HD
BRANCH   9  14
ATOM     13  C   UNL     1       1.485   0.429  -1.383  0.00  0.00    +0.000 C 
ATOM     14  C   UNL     1       2.590   0.038  -0.406  0.00  0.00    +0.000 C 
ATOM     15  C   UNL     1       2.059   0.022   1.026  0.00  0.00    +0.000 C 
ENDBRANCH   9  14
ENDBRANCH   1  10
BRANCH   5  16
ATOM     16  C   UNL     1       7.698  -7.093  -1.422  0.00  0.00    +0.000 C 
BRANCH  16  17
ATOM     17  C   UNL     1       8.065  -8.568  -1.741  0.00  0.00    +0.000 C 
ATOM     18  F   UNL     1       7.223  -9.368  -1.014  0.00  0.00    +0.000 F 
ATOM     19  F   UNL     1       7.754  -8.832  -3.046  0.00  0.00    +0.000 F 
BRANCH  17  20
ATOM     20  C   UNL     1       9.516  -8.865  -1.451  0.00  0.00    +0.000 A 
ATOM     21  C   UNL     1       9.946  -9.320  -0.199  0.00  0.00    +0.000 A 
ATOM     22  C   UNL     1      11.297  -9.581   0.013  0.00  0.00    +0.000 A 
ATOM     23  C   UNL     1      12.176  -9.376  -1.038  0.00  0.00    +0.000 A 
ATOM     24  N   UNL     1      11.798  -8.935  -2.257  0.00  0.00    +0.000 NA
ATOM     25  C   UNL     1      10.479  -8.695  -2.437  0.00  0.00    +0.000 A 
ENDBRANCH  17  20
ENDBRANCH  16  17
ENDBRANCH   5  16
TORSDOF 5
