REMARK  Name = 
REMARK  10 active torsions:
REMARK  status: ('A' for Active; 'I' for Inactive)
REMARK    1  A    between atoms: C_1  and  S_2
REMARK    2  A    between atoms: S_2  and  N_5
REMARK    3  A    between atoms: N_5  and  C_6
REMARK    4  A    between atoms: C_11  and  C_12
REMARK    5  A    between atoms: C_12  and  C_14
REMARK    6  A    between atoms: C_14  and  O_15
REMARK    7  A    between atoms: O_15  and  C_16
REMARK    8  A    between atoms: C_19  and  C_20
REMARK    9  A    between atoms: C_20  and  N_21
REMARK   10  A    between atoms: C_22  and  C_24
REMARK                            x       y       z     vdW  Elec       q    Type
REMARK                         _______ _______ _______ _____ _____    ______ ____
ROOT
ATOM      1  C   UNL     1       1.263   5.017  -0.759  0.00  0.00    +0.000 A 
ATOM      2  C   UNL     1       0.885   4.346   0.392  0.00  0.00    +0.000 A 
ATOM      3  C   UNL     1      -0.419   4.506   0.850  0.00  0.00    +0.000 A 
ATOM      4  C   UNL     1      -1.298   5.344   0.160  0.00  0.00    +0.000 A 
ATOM      5  C   UNL     1      -0.803   5.998  -0.966  0.00  0.00    +0.000 A 
ATOM      6  N   UNL     1       0.455   5.857  -1.444  0.00  0.00    +0.000 NA
ENDROOT
BRANCH   1   7
ATOM      7  O   UNL     1       2.550   4.797  -1.201  0.00  0.00    +0.000 OA
BRANCH   7   8
ATOM      8  C   UNL     1       2.683   5.070  -2.595  0.00  0.00    +0.000 C 
BRANCH   8   9
ATOM      9  C   UNL     1       3.889   4.336  -3.155  0.00  0.00    +0.000 C 
ATOM     10  O   UNL     1       4.392   3.366  -2.580  0.00  0.00    +0.000 OA
BRANCH   9  16
ATOM     11  C   UNL     1       3.896   5.595  -5.411  0.00  0.00    +0.000 A 
ATOM     12  C   UNL     1       4.597   5.919  -6.586  0.00  0.00    +0.000 A 
ATOM     13  C   UNL     1       5.926   5.533  -6.758  0.00  0.00    +0.000 A 
ATOM     14  C   UNL     1       6.567   4.807  -5.763  0.00  0.00    +0.000 A 
ATOM     15  C   UNL     1       5.864   4.434  -4.617  0.00  0.00    +0.000 A 
ATOM     16  C   UNL     1       4.517   4.805  -4.429  0.00  0.00    +0.000 A 
BRANCH  11  17
ATOM     17  N   UNL     1       2.562   6.127  -5.285  0.00  0.00    +0.000 N 
ATOM     18  H   UNL     1       2.526   7.076  -5.667  0.00  0.00    +0.000 HD
BRANCH  17  20
ATOM     19  C   UNL     1      -0.089   6.165  -5.508  0.00  0.00    +0.000 C 
ATOM     20  S   UNL     1       1.328   5.218  -6.034  0.00  0.00    +0.000 S 
ATOM     21  O   UNL     1       1.275   3.910  -5.431  0.00  0.00    +0.000 OA
ATOM     22  O   UNL     1       1.479   5.395  -7.463  0.00  0.00    +0.000 OA
ENDBRANCH  17  20
ENDBRANCH  11  17
ENDBRANCH   9  16
ENDBRANCH   8   9
ENDBRANCH   7   8
ENDBRANCH   1   7
BRANCH   4  23
ATOM     23  C   UNL     1      -2.713   5.548   0.613  0.00  0.00    +0.000 C 
BRANCH  23  24
ATOM     24  N   UNL     1      -3.660   5.136  -0.395  0.00  0.00    +0.000 N 
ATOM     25  C   UNL     1      -5.000   5.404  -0.256  0.00  0.00    +0.000 C 
ATOM     26  O   UNL     1      -5.431   6.060   0.690  0.00  0.00    +0.000 OA
ATOM     27  H   UNL     1      -3.374   4.389  -1.022  0.00  0.00    +0.000 HD
BRANCH  25  28
ATOM     28  C   UNL     1      -5.885   4.926  -1.325  0.00  0.00    +0.000 A 
ATOM     29  C   UNL     1      -7.122   5.530  -1.509  0.00  0.00    +0.000 A 
ATOM     30  S   UNL     1      -8.017   4.880  -2.807  0.00  0.00    +0.000 S 
ATOM     31  C   UNL     1      -6.803   3.736  -3.141  0.00  0.00    +0.000 A 
ATOM     32  N   UNL     1      -6.958   2.825  -4.139  0.00  0.00    +0.000 NA
ATOM     33  C   UNL     1      -5.975   1.997  -4.264  0.00  0.00    +0.000 A 
ATOM     34  N   UNL     1      -4.844   2.005  -3.489  0.00  0.00    +0.000 N 
ATOM     35  C   UNL     1      -4.627   2.931  -2.494  0.00  0.00    +0.000 A 
ATOM     36  O   UNL     1      -3.578   2.956  -1.859  0.00  0.00    +0.000 OA
ATOM     37  C   UNL     1      -5.718   3.868  -2.294  0.00  0.00    +0.000 A 
ATOM     38  H   UNL     1      -4.104   1.339  -3.648  0.00  0.00    +0.000 HD
ENDBRANCH  25  28
ENDBRANCH  23  24
ENDBRANCH   4  23
TORSDOF 9
