REMARK  Name = 
REMARK  6 active torsions:
REMARK  status: ('A' for Active; 'I' for Inactive)
REMARK    1  A    between atoms: C_1  and  O_2
REMARK    2  A    between atoms: O_2  and  C_3
REMARK    3  A    between atoms: N_9  and  C_10
REMARK    4  A    between atoms: C_10  and  C_11
REMARK    5  A    between atoms: C_15  and  C_16
REMARK    6  A    between atoms: C_16  and  N_17
REMARK                            x       y       z     vdW  Elec       q    Type
REMARK                         _______ _______ _______ _____ _____    ______ ____
ROOT
ATOM      1  C   UNL     1       3.072   0.244  -1.217  0.00  0.00    +0.000 A 
ATOM      2  C   UNL     1       2.653   1.151  -2.188  0.00  0.00    +0.000 A 
ATOM      3  C   UNL     1       3.344   1.266  -3.400  0.00  0.00    +0.000 A 
ATOM      4  C   UNL     1       4.464   0.450  -3.646  0.00  0.00    +0.000 A 
ATOM      5  C   UNL     1       5.352   0.323  -4.743  0.00  0.00    +0.000 A 
ATOM      6  C   UNL     1       6.255  -0.664  -4.440  0.00  0.00    +0.000 A 
ATOM      7  N   UNL     1       5.955  -1.148  -3.186  0.00  0.00    +0.000 N 
ATOM      8  C   UNL     1       4.873  -0.461  -2.665  0.00  0.00    +0.000 A 
ATOM      9  C   UNL     1       4.202  -0.557  -1.433  0.00  0.00    +0.000 A 
ENDROOT
BRANCH   1  11
ATOM     10  C   UNL     1       1.071   0.355   0.033  0.00  0.00    +0.000 C 
ATOM     11  O   UNL     1       2.467   0.077   0.003  0.00  0.00    +0.000 OA
ENDBRANCH   1  11
BRANCH   7  12
ATOM     12  C   UNL     1       6.620  -2.301  -2.584  0.00  0.00    +0.000 C 
BRANCH  12  13
ATOM     13  C   UNL     1       7.865  -1.909  -1.830  0.00  0.00    +0.000 A 
ATOM     14  C   UNL     1       7.825  -1.725  -0.443  0.00  0.00    +0.000 A 
ATOM     15  C   UNL     1       8.962  -1.312   0.247  0.00  0.00    +0.000 A 
ATOM     16  C   UNL     1      10.154  -1.077  -0.441  0.00  0.00    +0.000 A 
ATOM     17  C   UNL     1      10.232  -1.274  -1.826  0.00  0.00    +0.000 A 
ATOM     18  C   UNL     1       9.076  -1.688  -2.509  0.00  0.00    +0.000 A 
BRANCH  17  19
ATOM     19  C   UNL     1      11.507  -0.935  -2.561  0.00  0.00    +0.000 C 
BRANCH  19  20
ATOM     20  N   UNL     1      11.798  -1.848  -3.664  0.00  0.00    +0.000 NA
ATOM     21  H   UNL     1      11.932  -2.783  -3.281  0.00  0.00    +0.000 HD
ATOM     22  H   UNL     1      12.687  -1.581  -4.084  0.00  0.00    +0.000 HD
ENDBRANCH  19  20
ENDBRANCH  17  19
ENDBRANCH  12  13
ENDBRANCH   7  12
TORSDOF 5
