REMARK  Name = 
REMARK  5 active torsions:
REMARK  status: ('A' for Active; 'I' for Inactive)
REMARK    1  A    between atoms: C_2  and  C_4
REMARK    2  A    between atoms: C_7  and  N_8
REMARK    3  A    between atoms: N_8  and  C_9
REMARK    4  A    between atoms: C_9  and  C_10
REMARK    5  A    between atoms: C_12  and  N_13
REMARK                            x       y       z     vdW  Elec       q    Type
REMARK                         _______ _______ _______ _____ _____    ______ ____
ROOT
ATOM      1  C   UNL     1       5.016   1.968   5.642  0.00  0.00    +0.000 C 
ENDROOT
BRANCH   1   2
ATOM      2  C   UNL     1       5.923   2.734   6.572  0.00  0.00    +0.000 A 
ATOM      3  C   UNL     1       5.857   4.135   6.680  0.00  0.00    +0.000 A 
ATOM      4  C   UNL     1       6.580   4.852   7.649  0.00  0.00    +0.000 A 
ATOM      5  C   UNL     1       7.416   4.118   8.500  0.00  0.00    +0.000 A 
ATOM      6  C   UNL     1       7.522   2.726   8.396  0.00  0.00    +0.000 A 
ATOM      7  C   UNL     1       6.766   2.050   7.445  0.00  0.00    +0.000 A 
ATOM      8  F   UNL     1       6.842   0.713   7.394  0.00  0.00    +0.000 F 
BRANCH   4   9
ATOM      9  N   UNL     1       6.377   6.209   7.793  0.00  0.00    +0.000 N 
ATOM     10  C   UNL     1       6.493   6.861   9.100  0.00  0.00    +0.000 C 
ATOM     11  C   UNL     1       5.455   8.005   9.183  0.00  0.00    +0.000 C 
ATOM     12  N   UNL     1       5.582   8.996   8.092  0.00  0.00    +0.000 NA
ATOM     13  C   UNL     1       5.498   8.290   6.792  0.00  0.00    +0.000 C 
ATOM     14  C   UNL     1       6.495   7.114   6.639  0.00  0.00    +0.000 C 
ATOM     15  H   UNL     1       6.510   9.417   8.159  0.00  0.00    +0.000 HD
ENDBRANCH   4   9
ENDBRANCH   1   2
BRANCH   1  16
ATOM     16  N   UNL     1       4.737   2.713   4.421  0.00  0.00    +0.000 N 
ATOM     17  H   UNL     1       3.759   2.911   4.244  0.00  0.00    +0.000 HD
BRANCH  16  21
ATOM     18  C   UNL     1       7.280   2.871   1.068  0.00  0.00    +0.000 A 
ATOM     19  C   UNL     1       7.575   2.001   2.117  0.00  0.00    +0.000 A 
ATOM     20  C   UNL     1       6.733   1.936   3.230  0.00  0.00    +0.000 A 
ATOM     21  C   UNL     1       5.562   2.697   3.308  0.00  0.00    +0.000 A 
ATOM     22  C   UNL     1       5.291   3.582   2.254  0.00  0.00    +0.000 A 
ATOM     23  C   UNL     1       6.141   3.676   1.145  0.00  0.00    +0.000 A 
BRANCH  18  25
ATOM     24  N   UNL     1       8.934   1.909  -0.436  0.00  0.00    +0.000 N 
ATOM     25  C   UNL     1       8.178   2.999  -0.108  0.00  0.00    +0.000 C 
ATOM     26  O   UNL     1       8.230   4.029  -0.770  0.00  0.00    +0.000 OA
ATOM     27  H   UNL     1       9.480   1.976  -1.286  0.00  0.00    +0.000 HD
ATOM     28  H   UNL     1       8.759   0.986  -0.061  0.00  0.00    +0.000 HD
ENDBRANCH  18  25
ENDBRANCH  16  21
ENDBRANCH   1  16
TORSDOF 5
