REMARK  Name = 
REMARK  5 active torsions:
REMARK  status: ('A' for Active; 'I' for Inactive)
REMARK    1  A    between atoms: N_1  and  C_2
REMARK    2  A    between atoms: C_2  and  C_3
REMARK    3  A    between atoms: C_3  and  C_4
REMARK    4  A    between atoms: C_7  and  C_8
REMARK    5  A    between atoms: C_8  and  N_9
REMARK                            x       y       z     vdW  Elec       q    Type
REMARK                         _______ _______ _______ _____ _____    ______ ____
ROOT
ATOM      1  C   UNL     1       4.486   1.331   0.094  0.00  0.00    +0.000 A 
ATOM      2  C   UNL     1       5.139   2.562   0.230  0.00  0.00    +0.000 A 
ATOM      3  C   UNL     1       6.534   2.622   0.310  0.00  0.00    +0.000 A 
ATOM      4  C   UNL     1       7.305   1.453   0.247  0.00  0.00    +0.000 A 
ATOM      5  C   UNL     1       6.649   0.225   0.085  0.00  0.00    +0.000 A 
ATOM      6  C   UNL     1       5.254   0.165   0.004  0.00  0.00    +0.000 A 
ENDROOT
BRANCH   1   7
ATOM      7  C   UNL     1       2.977   1.262   0.070  0.00  0.00    +0.000 C 
BRANCH   7   8
ATOM      8  C   UNL     1       2.394   1.402  -1.339  0.00  0.00    +0.000 C 
BRANCH   8   9
ATOM      9  N   UNL     1       0.933   1.368  -1.301  0.00  0.00    +0.000 NA
ATOM     10  H   UNL     1       0.565   1.497  -2.243  0.00  0.00    +0.000 HD
ATOM     11  H   UNL     1       0.584   2.154  -0.751  0.00  0.00    +0.000 HD
ENDBRANCH   8   9
ENDBRANCH   7   8
ENDBRANCH   1   7
BRANCH   4  12
ATOM     12  C   UNL     1       8.808   1.513   0.352  0.00  0.00    +0.000 C 
BRANCH  12  13
ATOM     13  N   UNL     1       9.281   1.387   1.727  0.00  0.00    +0.000 N 
ATOM     14  C   UNL     1       9.552   0.186   2.344  0.00  0.00    +0.000 A 
ATOM     15  C   UNL     1      10.111   0.450   3.574  0.00  0.00    +0.000 A 
ATOM     16  C   UNL     1      10.193   1.855   3.708  0.00  0.00    +0.000 A 
ATOM     17  N   UNL     1      10.698   2.576   4.739  0.00  0.00    +0.000 NA
ATOM     18  C   UNL     1      10.649   3.913   4.573  0.00  0.00    +0.000 A 
ATOM     19  C   UNL     1      10.129   4.568   3.466  0.00  0.00    +0.000 A 
ATOM     20  C   UNL     1       9.612   3.821   2.411  0.00  0.00    +0.000 A 
ATOM     21  C   UNL     1       9.661   2.429   2.553  0.00  0.00    +0.000 A 
ENDBRANCH  12  13
ENDBRANCH   4  12
TORSDOF 5
