REMARK  Name = 
REMARK  7 active torsions:
REMARK  status: ('A' for Active; 'I' for Inactive)
REMARK    1  A    between atoms: C_2  and  C_3
REMARK    2  A    between atoms: C_3  and  N_4
REMARK    3  A    between atoms: C_3  and  C_17
REMARK    4  A    between atoms: C_5  and  C_7
REMARK    5  A    between atoms: C_20  and  C_21
REMARK    6  A    between atoms: C_21  and  N_22
REMARK    7  A    between atoms: C_23  and  C_25
REMARK                            x       y       z     vdW  Elec       q    Type
REMARK                         _______ _______ _______ _____ _____    ______ ____
ROOT
ATOM      1  C   UNL     1      10.646 -12.240  -1.289  0.00  0.00    +0.000 C 
ENDROOT
BRANCH   1   2
ATOM      2  C   UNL     1      10.462 -11.015  -2.180  0.00  0.00    +0.000 A 
ATOM      3  C   UNL     1      11.582 -10.464  -2.821  0.00  0.00    +0.000 A 
ATOM      4  C   UNL     1      11.444  -9.403  -3.717  0.00  0.00    +0.000 A 
ATOM      5  C   UNL     1      10.188  -8.843  -3.998  0.00  0.00    +0.000 A 
ATOM      6  C   UNL     1       9.080  -9.327  -3.287  0.00  0.00    +0.000 A 
ATOM      7 CL   UNL     1       7.504  -8.648  -3.491  0.00  0.00    +0.000 Cl
ATOM      8  C   UNL     1       9.216 -10.400  -2.390  0.00  0.00    +0.000 A 
BRANCH   5   9
ATOM      9  C   UNL     1      10.095  -7.776  -5.062  0.00  0.00    +0.000 C 
BRANCH   9  10
ATOM     10  N   UNL     1      10.336  -6.446  -4.546  0.00  0.00    +0.000 N 
ATOM     11  C   UNL     1      11.601  -5.901  -4.506  0.00  0.00    +0.000 C 
ATOM     12  O   UNL     1      12.592  -6.499  -4.915  0.00  0.00    +0.000 OA
ATOM     13  H   UNL     1       9.537  -5.904  -4.246  0.00  0.00    +0.000 HD
BRANCH  11  14
ATOM     14  C   UNL     1      11.648  -4.479  -3.972  0.00  0.00    +0.000 C 
ATOM     15  C   UNL     1      11.039  -4.344  -2.584  0.00  0.00    +0.000 C 
ATOM     16  C   UNL     1      11.808  -3.192  -1.975  0.00  0.00    +0.000 C 
ATOM     17  N   UNL     1      13.178  -3.375  -2.450  0.00  0.00    +0.000 NA
ATOM     18  C   UNL     1      13.074  -3.946  -3.807  0.00  0.00    +0.000 C 
ATOM     19  H   UNL     1      13.644  -4.064  -1.857  0.00  0.00    +0.000 HD
ENDBRANCH  11  14
ENDBRANCH   9  10
ENDBRANCH   5   9
ENDBRANCH   1   2
BRANCH   1  20
ATOM     20  N   UNL     1      10.877 -11.828   0.084  0.00  0.00    +0.000 N 
ATOM     21  C   UNL     1      11.632 -12.600   0.930  0.00  0.00    +0.000 C 
ATOM     22  O   UNL     1      12.149 -13.642   0.536  0.00  0.00    +0.000 OA
ATOM     23  H   UNL     1      10.365 -11.024   0.430  0.00  0.00    +0.000 HD
BRANCH  21  24
ATOM     24  C   UNL     1      11.824 -12.124   2.307  0.00  0.00    +0.000 A 
ATOM     25  C   UNL     1      12.599 -12.880   3.179  0.00  0.00    +0.000 A 
ATOM     26  S   UNL     1      12.776 -12.187   4.726  0.00  0.00    +0.000 S 
ATOM     27  C   UNL     1      11.809 -10.856   4.297  0.00  0.00    +0.000 A 
ATOM     28  N   UNL     1      11.557  -9.865   5.194  0.00  0.00    +0.000 NA
ATOM     29  C   UNL     1      10.807  -8.916   4.746  0.00  0.00    +0.000 A 
ATOM     30  N   UNL     1      10.287  -8.867   3.479  0.00  0.00    +0.000 N 
ATOM     31  C   UNL     1      10.507  -9.848   2.541  0.00  0.00    +0.000 A 
ATOM     32  O   UNL     1      10.004  -9.785   1.423  0.00  0.00    +0.000 OA
ATOM     33  C   UNL     1      11.353 -10.939   2.992  0.00  0.00    +0.000 A 
ATOM     34  H   UNL     1       9.697  -8.099   3.196  0.00  0.00    +0.000 HD
ENDBRANCH  21  24
ENDBRANCH   1  20
BRANCH   1  36
ATOM     35  N   UNL     1       8.646 -13.964  -1.490  0.00  0.00    +0.000 NA
ATOM     36  C   UNL     1       9.532 -13.216  -1.397  0.00  0.00    +0.000 C 
ENDBRANCH   1  36
TORSDOF 7
