REMARK  Name = 
REMARK  6 active torsions:
REMARK  status: ('A' for Active; 'I' for Inactive)
REMARK    1  A    between atoms: C_2  and  C_25
REMARK    2  A    between atoms: N_3  and  C_4
REMARK    3  A    between atoms: C_4  and  C_5
REMARK    4  A    between atoms: C_8  and  C_9
REMARK    5  A    between atoms: C_9  and  N_10
REMARK    6  A    between atoms: C_11  and  C_13
REMARK                            x       y       z     vdW  Elec       q    Type
REMARK                         _______ _______ _______ _____ _____    ______ ____
ROOT
ATOM      1  C   UNL     1       3.115  -2.417   2.758  0.00  0.00    +0.000 A 
ATOM      2  C   UNL     1       4.020  -1.737   3.586  0.00  0.00    +0.000 A 
ATOM      3  C   UNL     1       4.854  -2.442   4.461  0.00  0.00    +0.000 A 
ATOM      4  C   UNL     1       4.815  -3.841   4.511  0.00  0.00    +0.000 A 
ATOM      5  C   UNL     1       3.911  -4.520   3.684  0.00  0.00    +0.000 A 
ATOM      6  C   UNL     1       3.078  -3.816   2.809  0.00  0.00    +0.000 A 
ENDROOT
BRANCH   1   7
ATOM      7  C   UNL     1       2.185  -1.661   1.848  0.00  0.00    +0.000 C 
BRANCH   7  10
ATOM      8  O   UNL     1       0.904  -0.277  -0.211  0.00  0.00    +0.000 OA
ATOM      9  C   UNL     1       2.046  -0.686  -0.393  0.00  0.00    +0.000 C 
ATOM     10  N   UNL     1       2.756  -1.397   0.552  0.00  0.00    +0.000 N 
ATOM     11  H   UNL     1       3.699  -1.696   0.319  0.00  0.00    +0.000 HD
BRANCH   9  12
ATOM     12  C   UNL     1       2.763  -0.420  -1.682  0.00  0.00    +0.000 A 
ATOM     13  C   UNL     1       2.124   0.316  -2.679  0.00  0.00    +0.000 A 
ATOM     14  C   UNL     1       2.815   0.578  -3.861  0.00  0.00    +0.000 A 
ATOM     15  C   UNL     1       4.108   0.096  -3.998  0.00  0.00    +0.000 A 
ATOM     16  F   UNL     1       4.800   0.335  -5.118  0.00  0.00    +0.000 F 
ATOM     17  C   UNL     1       4.670  -0.633  -2.961  0.00  0.00    +0.000 A 
ATOM     18  N   UNL     1       4.032  -0.908  -1.795  0.00  0.00    +0.000 NA
ENDBRANCH   9  12
ENDBRANCH   7  10
ENDBRANCH   1   7
BRANCH   4  19
ATOM     19  C   UNL     1       5.691  -4.610   5.468  0.00  0.00    +0.000 C 
BRANCH  19  20
ATOM     20  N   UNL     1       5.021  -4.831   6.725  0.00  0.00    +0.000 N 
ATOM     21  C   UNL     1       5.661  -5.438   7.775  0.00  0.00    +0.000 C 
ATOM     22  O   UNL     1       6.842  -5.771   7.711  0.00  0.00    +0.000 OA
ATOM     23  H   UNL     1       4.007  -4.775   6.722  0.00  0.00    +0.000 HD
BRANCH  21  24
ATOM     24  C   UNL     1       4.880  -5.621   9.006  0.00  0.00    +0.000 A 
ATOM     25  C   UNL     1       5.537  -5.770  10.220  0.00  0.00    +0.000 A 
ATOM     26  S   UNL     1       4.487  -5.916  11.555  0.00  0.00    +0.000 S 
ATOM     27  C   UNL     1       3.113  -5.838  10.553  0.00  0.00    +0.000 A 
ATOM     28  N   UNL     1       1.862  -5.930  11.074  0.00  0.00    +0.000 NA
ATOM     29  C   UNL     1       0.914  -5.890  10.198  0.00  0.00    +0.000 A 
ATOM     30  N   UNL     1       1.105  -5.763   8.848  0.00  0.00    +0.000 N 
ATOM     31  C   UNL     1       2.350  -5.638   8.278  0.00  0.00    +0.000 A 
ATOM     32  O   UNL     1       2.485  -5.485   7.069  0.00  0.00    +0.000 OA
ATOM     33  C   UNL     1       3.453  -5.686   9.219  0.00  0.00    +0.000 A 
ATOM     34  H   UNL     1       0.320  -5.733   8.213  0.00  0.00    +0.000 HD
ENDBRANCH  21  24
ENDBRANCH  19  20
ENDBRANCH   4  19
TORSDOF 6
