REMARK  Name = 
REMARK  8 active torsions:
REMARK  status: ('A' for Active; 'I' for Inactive)
REMARK    1  A    between atoms: C_1  and  O_2
REMARK    2  A    between atoms: O_2  and  C_3
REMARK    3  A    between atoms: C_3  and  C_4
REMARK    4  A    between atoms: C_3  and  C_18
REMARK    5  A    between atoms: C_4  and  N_5
REMARK    6  A    between atoms: C_6  and  C_8
REMARK    7  A    between atoms: C_21  and  O_22
REMARK    8  A    between atoms: O_22  and  C_23
REMARK                            x       y       z     vdW  Elec       q    Type
REMARK                         _______ _______ _______ _____ _____    ______ ____
ROOT
ATOM      1  C   UNL     1       2.788   0.820   1.049  0.00  0.00    +0.000 C 
ENDROOT
BRANCH   1   2
ATOM      2  C   UNL     1       4.313   0.909   1.010  0.00  0.00    +0.000 A 
ATOM      3  C   UNL     1       4.976   0.736  -0.218  0.00  0.00    +0.000 A 
ATOM      4  C   UNL     1       6.368   0.777  -0.306  0.00  0.00    +0.000 A 
ATOM      5  C   UNL     1       7.133   1.058   0.823  0.00  0.00    +0.000 A 
ATOM      6  C   UNL     1       6.497   1.242   2.050  0.00  0.00    +0.000 A 
ATOM      7  C   UNL     1       5.100   1.184   2.140  0.00  0.00    +0.000 A 
BRANCH   5   8
ATOM      8  O   UNL     1       8.509   1.093   0.825  0.00  0.00    +0.000 OA
BRANCH   8   9
ATOM      9  C   UNL     1       9.153   1.630  -0.285  0.00  0.00    +0.000 A 
ATOM     10  C   UNL     1      10.444   1.186  -0.529  0.00  0.00    +0.000 A 
ATOM     11  C   UNL     1      11.110   1.686  -1.645  0.00  0.00    +0.000 A 
ATOM     12  C   UNL     1      10.470   2.607  -2.468  0.00  0.00    +0.000 A 
ATOM     13  C   UNL     1       9.190   3.011  -2.128  0.00  0.00    +0.000 A 
ATOM     14  N   UNL     1       8.526   2.556  -1.047  0.00  0.00    +0.000 NA
ENDBRANCH   8   9
ENDBRANCH   5   8
ENDBRANCH   1   2
BRANCH   1  16
ATOM     15  C   UNL     1       1.019  -0.151  -0.267  0.00  0.00    +0.000 C 
ATOM     16  O   UNL     1       2.400  -0.153   0.055  0.00  0.00    +0.000 OA
ENDBRANCH   1  16
BRANCH   1  17
ATOM     17  C   UNL     1       2.168   0.464   2.423  0.00  0.00    +0.000 C 
BRANCH  17  18
ATOM     18  N   UNL     1       2.528  -0.866   2.884  0.00  0.00    +0.000 N 
ATOM     19  C   UNL     1       2.062  -1.376   4.069  0.00  0.00    +0.000 C 
ATOM     20  O   UNL     1       1.258  -0.769   4.771  0.00  0.00    +0.000 OA
ATOM     21  H   UNL     1       3.273  -1.338   2.382  0.00  0.00    +0.000 HD
BRANCH  19  22
ATOM     22  C   UNL     1       2.510  -2.732   4.401  0.00  0.00    +0.000 A 
ATOM     23  C   UNL     1       1.696  -3.580   5.136  0.00  0.00    +0.000 A 
ATOM     24  S   UNL     1       2.344  -5.149   5.321  0.00  0.00    +0.000 S 
ATOM     25  C   UNL     1       3.759  -4.726   4.471  0.00  0.00    +0.000 A 
ATOM     26  N   UNL     1       4.748  -5.632   4.248  0.00  0.00    +0.000 NA
ATOM     27  C   UNL     1       5.771  -5.160   3.608  0.00  0.00    +0.000 A 
ATOM     28  N   UNL     1       5.895  -3.860   3.192  0.00  0.00    +0.000 N 
ATOM     29  C   UNL     1       4.941  -2.904   3.439  0.00  0.00    +0.000 A 
ATOM     30  O   UNL     1       5.117  -1.731   3.138  0.00  0.00    +0.000 OA
ATOM     31  C   UNL     1       3.745  -3.401   4.084  0.00  0.00    +0.000 A 
ATOM     32  H   UNL     1       6.732  -3.538   2.729  0.00  0.00    +0.000 HD
ENDBRANCH  19  22
ENDBRANCH  17  18
ENDBRANCH   1  17
TORSDOF 7
