REMARK  Name = 
REMARK  9 active torsions:
REMARK  status: ('A' for Active; 'I' for Inactive)
REMARK    1  A    between atoms: C_1  and  C_2
REMARK    2  A    between atoms: C_2  and  N_3
REMARK    3  A    between atoms: C_2  and  C_19
REMARK    4  A    between atoms: N_3  and  C_4
REMARK    5  A    between atoms: C_4  and  C_5
REMARK    6  A    between atoms: C_8  and  C_9
REMARK    7  A    between atoms: C_9  and  O_10
REMARK    8  A    between atoms: O_10  and  C_11
REMARK    9  A    between atoms: C_11  and  C_12
REMARK                            x       y       z     vdW  Elec       q    Type
REMARK                         _______ _______ _______ _____ _____    ______ ____
ROOT
ATOM      1  N   UNL     1       1.117  -0.464  -2.226  0.00  0.00    +0.000 NA
ATOM      2  H   UNL     1       0.824   0.497  -2.393  0.00  0.00    +0.000 HD
ENDROOT
BRANCH   1   4
ATOM      3  C   UNL     1       0.777  -2.380  -0.659  0.00  0.00    +0.000 C 
ATOM      4  C   UNL     1       0.532  -0.897  -0.950  0.00  0.00    +0.000 C 
BRANCH   4   5
ATOM      5  C   UNL     1      -0.961  -0.610  -1.037  0.00  0.00    +0.000 A 
ATOM      6  C   UNL     1      -1.727  -0.753  -2.187  0.00  0.00    +0.000 A 
ATOM      7  S   UNL     1      -3.358  -0.300  -1.979  0.00  0.00    +0.000 S 
ATOM      8  C   UNL     1      -3.110   0.053  -0.332  0.00  0.00    +0.000 A 
ATOM      9  N   UNL     1      -4.129   0.492   0.453  0.00  0.00    +0.000 NA
ATOM     10  C   UNL     1      -3.798   0.690   1.687  0.00  0.00    +0.000 A 
ATOM     11  N   UNL     1      -2.544   0.490   2.205  0.00  0.00    +0.000 N 
ATOM     12  C   UNL     1      -1.477   0.056   1.447  0.00  0.00    +0.000 A 
ATOM     13  O   UNL     1      -0.368  -0.117   1.938  0.00  0.00    +0.000 OA
ATOM     14  C   UNL     1      -1.801  -0.173   0.051  0.00  0.00    +0.000 A 
ATOM     15  H   UNL     1      -2.357   0.652   3.183  0.00  0.00    +0.000 HD
ENDBRANCH   4   5
ENDBRANCH   1   4
BRANCH   1  16
ATOM     16  C   UNL     1       2.576  -0.504  -2.271  0.00  0.00    +0.000 C 
BRANCH  16  17
ATOM     17  C   UNL     1       3.075   0.042  -3.594  0.00  0.00    +0.000 A 
ATOM     18  C   UNL     1       2.886   1.390  -3.933  0.00  0.00    +0.000 A 
ATOM     19  C   UNL     1       3.297   1.878  -5.177  0.00  0.00    +0.000 A 
ATOM     20  C   UNL     1       3.919   1.032  -6.105  0.00  0.00    +0.000 A 
ATOM     21  C   UNL     1       4.133  -0.307  -5.758  0.00  0.00    +0.000 A 
ATOM     22  C   UNL     1       3.711  -0.798  -4.518  0.00  0.00    +0.000 A 
BRANCH  20  23
ATOM     23  C   UNL     1       4.318   1.548  -7.463  0.00  0.00    +0.000 C 
BRANCH  23  24
ATOM     24  O   UNL     1       5.234   2.625  -7.294  0.00  0.00    +0.000 OA
BRANCH  24  25
ATOM     25  C   UNL     1       5.679   3.141  -8.540  0.00  0.00    +0.000 C 
BRANCH  25  26
ATOM     26  C   UNL     1       6.637   4.284  -8.335  0.00  0.00    +0.000 C 
ATOM     27  C   UNL     1       7.083   4.740  -7.006  0.00  0.00    +0.000 C 
ATOM     28  C   UNL     1       7.981   5.808  -7.304  0.00  0.00    +0.000 C 
ATOM     29  C   UNL     1       7.998   5.898  -8.641  0.00  0.00    +0.000 C 
ATOM     30  N   UNL     1       7.189   4.985  -9.298  0.00  0.00    +0.000 NA
ENDBRANCH  25  26
ENDBRANCH  24  25
ENDBRANCH  23  24
ENDBRANCH  20  23
ENDBRANCH  16  17
ENDBRANCH   1  16
TORSDOF 8
