REMARK  Name = 
REMARK  6 active torsions:
REMARK  status: ('A' for Active; 'I' for Inactive)
REMARK    1  A    between atoms: N_1  and  C_2
REMARK    2  A    between atoms: C_2  and  C_3
REMARK    3  A    between atoms: C_6  and  O_7
REMARK    4  A    between atoms: O_7  and  C_8
REMARK    5  A    between atoms: C_8  and  C_9
REMARK    6  A    between atoms: C_14  and  O_15
REMARK                            x       y       z     vdW  Elec       q    Type
REMARK                         _______ _______ _______ _____ _____    ______ ____
ROOT
ATOM      1  C   UNL     1       2.965  -0.960  -1.082  0.00  0.00    +0.000 A 
ATOM      2  C   UNL     1       3.859  -0.575  -2.090  0.00  0.00    +0.000 A 
ATOM      3  C   UNL     1       4.354  -1.509  -3.010  0.00  0.00    +0.000 A 
ATOM      4  C   UNL     1       3.963  -2.843  -2.929  0.00  0.00    +0.000 A 
ATOM      5  C   UNL     1       3.053  -3.230  -1.944  0.00  0.00    +0.000 A 
ATOM      6  C   UNL     1       2.563  -2.300  -1.020  0.00  0.00    +0.000 A 
ENDROOT
BRANCH   1   7
ATOM      7  C   UNL     1       2.466   0.043  -0.070  0.00  0.00    +0.000 C 
BRANCH   7   8
ATOM      8  N   UNL     1       1.744   1.145  -0.699  0.00  0.00    +0.000 NA
ATOM      9  H   UNL     1       1.362   1.747   0.027  0.00  0.00    +0.000 HD
ATOM     10  H   UNL     1       0.949   0.764  -1.208  0.00  0.00    +0.000 HD
ENDBRANCH   7   8
ENDBRANCH   1   7
BRANCH   4  11
ATOM     11  O   UNL     1       4.357  -3.831  -3.794  0.00  0.00    +0.000 OA
BRANCH  11  12
ATOM     12  C   UNL     1       5.706  -3.730  -4.265  0.00  0.00    +0.000 C 
BRANCH  12  13
ATOM     13  C   UNL     1       6.061  -4.964  -5.069  0.00  0.00    +0.000 A 
ATOM     14  N   UNL     1       6.614  -6.010  -4.390  0.00  0.00    +0.000 NA
ATOM     15  C   UNL     1       6.922  -7.121  -5.094  0.00  0.00    +0.000 A 
ATOM     16  C   UNL     1       6.712  -7.253  -6.456  0.00  0.00    +0.000 A 
ATOM     17  C   UNL     1       6.153  -6.182  -7.144  0.00  0.00    +0.000 A 
ATOM     18  C   UNL     1       5.823  -5.023  -6.444  0.00  0.00    +0.000 A 
BRANCH  18  19
ATOM     19  O   UNL     1       5.295  -3.952  -7.103  0.00  0.00    +0.000 OA
ATOM     20  H   UNL     1       5.145  -4.195  -8.032  0.00  0.00    +0.000 HD
ENDBRANCH  18  19
ENDBRANCH  12  13
ENDBRANCH  11  12
ENDBRANCH   4  11
TORSDOF 6
