REMARK  Name = 
REMARK  6 active torsions:
REMARK  status: ('A' for Active; 'I' for Inactive)
REMARK    1  A    between atoms: N_1  and  C_2
REMARK    2  A    between atoms: C_2  and  C_3
REMARK    3  A    between atoms: C_6  and  O_7
REMARK    4  A    between atoms: O_7  and  C_8
REMARK    5  A    between atoms: C_8  and  C_9
REMARK    6  A    between atoms: C_9  and  C_12
REMARK                            x       y       z     vdW  Elec       q    Type
REMARK                         _______ _______ _______ _____ _____    ______ ____
ROOT
ATOM      1  O   UNL     1       4.090  -5.195  -1.017  0.00  0.00    +0.000 OA
ENDROOT
BRANCH   1   5
ATOM      2  C   UNL     1       2.995  -1.297  -0.227  0.00  0.00    +0.000 A 
ATOM      3  C   UNL     1       4.154  -1.493  -0.971  0.00  0.00    +0.000 A 
ATOM      4  C   UNL     1       4.568  -2.793  -1.257  0.00  0.00    +0.000 A 
ATOM      5  C   UNL     1       3.814  -3.874  -0.806  0.00  0.00    +0.000 A 
ATOM      6  C   UNL     1       2.668  -3.585  -0.077  0.00  0.00    +0.000 A 
ATOM      7  N   UNL     1       2.237  -2.331   0.220  0.00  0.00    +0.000 NA
BRANCH   2   8
ATOM      8  C   UNL     1       2.502   0.104   0.062  0.00  0.00    +0.000 C 
BRANCH   8   9
ATOM      9  N   UNL     1       1.627   0.610  -1.000  0.00  0.00    +0.000 NA
ATOM     10  H   UNL     1       1.127   1.421  -0.646  0.00  0.00    +0.000 HD
ATOM     11  H   UNL     1       0.912  -0.103  -1.166  0.00  0.00    +0.000 HD
ENDBRANCH   8   9
ENDBRANCH   2   8
ENDBRANCH   1   5
BRANCH   1  12
ATOM     12  C   UNL     1       5.262  -5.476  -1.793  0.00  0.00    +0.000 C 
BRANCH  12  13
ATOM     13  C   UNL     1       5.472  -6.982  -2.017  0.00  0.00    +0.000 C 
ATOM     14  F   UNL     1       4.393  -7.476  -2.695  0.00  0.00    +0.000 F 
ATOM     15  F   UNL     1       6.515  -7.099  -2.903  0.00  0.00    +0.000 F 
BRANCH  13  16
ATOM     16  C   UNL     1       5.754  -7.741  -0.739  0.00  0.00    +0.000 A 
ATOM     17  C   UNL     1       4.716  -8.327  -0.000  0.00  0.00    +0.000 A 
ATOM     18  C   UNL     1       4.995  -9.058   1.156  0.00  0.00    +0.000 A 
ATOM     19  C   UNL     1       6.312  -9.207   1.589  0.00  0.00    +0.000 A 
ATOM     20  C   UNL     1       7.352  -8.618   0.872  0.00  0.00    +0.000 A 
ATOM     21  C   UNL     1       7.075  -7.888  -0.283  0.00  0.00    +0.000 A 
ENDBRANCH  13  16
ENDBRANCH  12  13
ENDBRANCH   1  12
TORSDOF 6
