REMARK  Name = 
REMARK  5 active torsions:
REMARK  status: ('A' for Active; 'I' for Inactive)
REMARK    1  A    between atoms: C_2  and  C_4
REMARK    2  A    between atoms: N_8  and  C_9
REMARK    3  A    between atoms: C_9  and  C_10
REMARK    4  A    between atoms: C_12  and  C_13
REMARK    5  A    between atoms: C_18  and  C_19
REMARK                            x       y       z     vdW  Elec       q    Type
REMARK                         _______ _______ _______ _____ _____    ______ ____
ROOT
ATOM      1  C   UNL     1       5.084  -6.025  -0.639  0.00  0.00    +0.000 C 
ENDROOT
BRANCH   1   6
ATOM      2  C   UNL     1       2.161  -2.384   1.137  0.00  0.00    +0.000 A 
ATOM      3  C   UNL     1       3.155  -2.555   2.094  0.00  0.00    +0.000 A 
ATOM      4  C   UNL     1       4.192  -3.452   1.835  0.00  0.00    +0.000 A 
ATOM      5  C   UNL     1       4.204  -4.183   0.650  0.00  0.00    +0.000 A 
ATOM      6  N   UNL     1       5.228  -5.121   0.486  0.00  0.00    +0.000 N 
ATOM      7  N   UNL     1       3.239  -4.037  -0.277  0.00  0.00    +0.000 NA
ATOM      8  C   UNL     1       2.242  -3.146  -0.020  0.00  0.00    +0.000 A 
ATOM      9  H   UNL     1       6.130  -4.654   0.499  0.00  0.00    +0.000 HD
BRANCH   2  11
ATOM     10  N   UNL     1       1.179  -0.420   2.182  0.00  0.00    +0.000 N 
ATOM     11  C   UNL     1       1.020  -1.464   1.315  0.00  0.00    +0.000 C 
ATOM     12  O   UNL     1      -0.024  -1.609   0.696  0.00  0.00    +0.000 OA
ATOM     13  H   UNL     1       0.426   0.254   2.230  0.00  0.00    +0.000 HD
ATOM     14  H   UNL     1       2.079  -0.131   2.537  0.00  0.00    +0.000 HD
ENDBRANCH   2  11
ENDBRANCH   1   6
BRANCH   1  15
ATOM     15  C   UNL     1       6.052  -7.173  -0.436  0.00  0.00    +0.000 A 
ATOM     16  C   UNL     1       5.709  -8.230   0.424  0.00  0.00    +0.000 A 
ATOM     17  C   UNL     1       6.577  -9.313   0.629  0.00  0.00    +0.000 A 
ATOM     18  C   UNL     1       7.821  -9.315  -0.024  0.00  0.00    +0.000 A 
ATOM     19  C   UNL     1       8.194  -8.263  -0.878  0.00  0.00    +0.000 A 
ATOM     20  C   UNL     1       7.303  -7.191  -1.068  0.00  0.00    +0.000 A 
BRANCH  17  21
ATOM     21  C   UNL     1       6.183 -10.474   1.511  0.00  0.00    +0.000 C 
ATOM     22  F   UNL     1       4.934 -10.363   2.042  0.00  0.00    +0.000 F 
ATOM     23  F   UNL     1       6.196 -11.658   0.835  0.00  0.00    +0.000 F 
ATOM     24  F   UNL     1       7.027 -10.639   2.566  0.00  0.00    +0.000 F 
ENDBRANCH  17  21
BRANCH  19  25
ATOM     25  C   UNL     1       9.519  -8.284  -1.607  0.00  0.00    +0.000 C 
ATOM     26  F   UNL     1      10.248  -9.410  -1.380  0.00  0.00    +0.000 F 
ATOM     27  F   UNL     1       9.364  -8.201  -2.957  0.00  0.00    +0.000 F 
ATOM     28  F   UNL     1      10.320  -7.239  -1.258  0.00  0.00    +0.000 F 
ENDBRANCH  19  25
ENDBRANCH   1  15
TORSDOF 5
