REMARK  Name = 
REMARK  3 active torsions:
REMARK  status: ('A' for Active; 'I' for Inactive)
REMARK    1  A    between atoms: C_2  and  C_4
REMARK    2  A    between atoms: C_7  and  C_8
REMARK    3  A    between atoms: C_8  and  N_9
REMARK                            x       y       z     vdW  Elec       q    Type
REMARK                         _______ _______ _______ _____ _____    ______ ____
ROOT
ATOM      1  C   UNL     1       3.055   0.405  -1.167  0.00  0.00    +0.000 A 
ATOM      2  C   UNL     1       2.684  -0.069  -2.430  0.00  0.00    +0.000 A 
ATOM      3  C   UNL     1       3.418   0.304  -3.562  0.00  0.00    +0.000 A 
ATOM      4  C   UNL     1       4.529   1.154  -3.448  0.00  0.00    +0.000 A 
ATOM      5  C   UNL     1       4.884   1.635  -2.179  0.00  0.00    +0.000 A 
ATOM      6  C   UNL     1       4.150   1.267  -1.048  0.00  0.00    +0.000 A 
ENDROOT
BRANCH   1   8
ATOM      7  N   UNL     1       1.643  -1.156   0.062  0.00  0.00    +0.000 N 
ATOM      8  C   UNL     1       2.304   0.041   0.063  0.00  0.00    +0.000 C 
ATOM      9  O   UNL     1       2.305   0.759   1.055  0.00  0.00    +0.000 OA
ATOM     10  H   UNL     1       1.230  -1.436   0.942  0.00  0.00    +0.000 HD
ATOM     11  H   UNL     1       1.828  -1.877  -0.620  0.00  0.00    +0.000 HD
ENDBRANCH   1   8
BRANCH   4  12
ATOM     12  C   UNL     1       5.328   1.549  -4.665  0.00  0.00    +0.000 C 
BRANCH  12  13
ATOM     13  N   UNL     1       4.834   2.773  -5.286  0.00  0.00    +0.000 N 
ATOM     14  C   UNL     1       5.254   4.039  -4.940  0.00  0.00    +0.000 A 
ATOM     15  C   UNL     1       4.686   4.934  -5.818  0.00  0.00    +0.000 A 
ATOM     16  C   UNL     1       3.905   4.191  -6.733  0.00  0.00    +0.000 A 
ATOM     17  N   UNL     1       3.186   4.642  -7.789  0.00  0.00    +0.000 NA
ATOM     18  C   UNL     1       2.550   3.683  -8.491  0.00  0.00    +0.000 A 
ATOM     19  C   UNL     1       2.576   2.326  -8.210  0.00  0.00    +0.000 A 
ATOM     20  C   UNL     1       3.318   1.870  -7.123  0.00  0.00    +0.000 A 
ATOM     21  C   UNL     1       3.998   2.842  -6.382  0.00  0.00    +0.000 A 
ENDBRANCH  12  13
ENDBRANCH   4  12
TORSDOF 3
