REMARK  Name = 
REMARK  8 active torsions:
REMARK  status: ('A' for Active; 'I' for Inactive)
REMARK    1  A    between atoms: N_1  and  C_2
REMARK    2  A    between atoms: C_2  and  C_3
REMARK    3  A    between atoms: C_3  and  N_4
REMARK    4  A    between atoms: N_4  and  C_5
REMARK    5  A    between atoms: C_5  and  C_6
REMARK    6  A    between atoms: C_10  and  C_11
REMARK    7  A    between atoms: C_11  and  N_12
REMARK    8  A    between atoms: C_13  and  C_15
REMARK                            x       y       z     vdW  Elec       q    Type
REMARK                         _______ _______ _______ _____ _____    ______ ____
ROOT
ATOM      1  C   UNL     1       9.359  -0.857   0.232  0.00  0.00    +0.000 C 
ENDROOT
BRANCH   1   6
ATOM      2  C   UNL     1       6.399  -0.898   2.648  0.00  0.00    +0.000 A 
ATOM      3  C   UNL     1       7.045  -1.222   3.848  0.00  0.00    +0.000 A 
ATOM      4  C   UNL     1       8.434  -1.336   3.897  0.00  0.00    +0.000 A 
ATOM      5  C   UNL     1       9.187  -1.176   2.735  0.00  0.00    +0.000 A 
ATOM      6  C   UNL     1       8.560  -0.920   1.508  0.00  0.00    +0.000 A 
ATOM      7  C   UNL     1       7.168  -0.744   1.482  0.00  0.00    +0.000 A 
BRANCH   2   8
ATOM      8  C   UNL     1       4.893  -0.845   2.578  0.00  0.00    +0.000 C 
BRANCH   8   9
ATOM      9  N   UNL     1       4.309   0.127   3.507  0.00  0.00    +0.000 NA
ATOM     10  H   UNL     1       4.559  -0.164   4.454  0.00  0.00    +0.000 HD
BRANCH   9  11
ATOM     11  C   UNL     1       2.838   0.102   3.442  0.00  0.00    +0.000 C 
BRANCH  11  12
ATOM     12  C   UNL     1       2.214  -1.244   3.872  0.00  0.00    +0.000 C 
BRANCH  12  13
ATOM     13  N   UNL     1       2.670  -1.648   5.205  0.00  0.00    +0.000 NA
ATOM     14  H   UNL     1       2.253  -2.548   5.441  0.00  0.00    +0.000 HD
ATOM     15  H   UNL     1       2.314  -0.983   5.891  0.00  0.00    +0.000 HD
ENDBRANCH  12  13
ENDBRANCH  11  12
ENDBRANCH   9  11
ENDBRANCH   8   9
ENDBRANCH   2   8
ENDBRANCH   1   6
BRANCH   1  16
ATOM     16  N   UNL     1       9.819   0.473  -0.052  0.00  0.00    +0.000 N 
ATOM     17  C   UNL     1      10.463   0.758  -1.232  0.00  0.00    +0.000 C 
ATOM     18  O   UNL     1      10.639  -0.088  -2.102  0.00  0.00    +0.000 OA
ATOM     19  H   UNL     1       9.924   1.101   0.736  0.00  0.00    +0.000 HD
BRANCH  17  20
ATOM     20  C   UNL     1      10.861   2.157  -1.433  0.00  0.00    +0.000 A 
ATOM     21  C   UNL     1      11.021   2.653  -2.720  0.00  0.00    +0.000 A 
ATOM     22  S   UNL     1      11.425   4.309  -2.765  0.00  0.00    +0.000 S 
ATOM     23  C   UNL     1      11.454   4.406  -1.068  0.00  0.00    +0.000 A 
ATOM     24  N   UNL     1      11.773   5.570  -0.440  0.00  0.00    +0.000 NA
ATOM     25  C   UNL     1      11.775   5.489   0.853  0.00  0.00    +0.000 A 
ATOM     26  N   UNL     1      11.497   4.359   1.568  0.00  0.00    +0.000 N 
ATOM     27  C   UNL     1      11.160   3.165   0.980  0.00  0.00    +0.000 A 
ATOM     28  O   UNL     1      10.895   2.172   1.649  0.00  0.00    +0.000 OA
ATOM     29  C   UNL     1      11.142   3.195  -0.477  0.00  0.00    +0.000 A 
ATOM     30  H   UNL     1      11.515   4.360   2.577  0.00  0.00    +0.000 HD
ENDBRANCH  17  20
ENDBRANCH   1  16
TORSDOF 8
