REMARK  Name = 
REMARK  7 active torsions:
REMARK  status: ('A' for Active; 'I' for Inactive)
REMARK    1  A    between atoms: C_2  and  C_19
REMARK    2  A    between atoms: N_3  and  C_4
REMARK    3  A    between atoms: C_4  and  C_5
REMARK    4  A    between atoms: C_8  and  C_9
REMARK    5  A    between atoms: C_9  and  N_10
REMARK    6  A    between atoms: C_13  and  C_14
REMARK    7  A    between atoms: C_14  and  O_15
REMARK                            x       y       z     vdW  Elec       q    Type
REMARK                         _______ _______ _______ _____ _____    ______ ____
ROOT
ATOM      1  C   UNL     1       2.332   1.276  -2.158  0.00  0.00    +0.000 C 
ENDROOT
BRANCH   1   2
ATOM      2  C   UNL     1       3.300   1.962  -3.087  0.00  0.00    +0.000 A 
ATOM      3  C   UNL     1       3.254   3.350  -3.256  0.00  0.00    +0.000 A 
ATOM      4  C   UNL     1       4.155   3.996  -4.109  0.00  0.00    +0.000 A 
ATOM      5  C   UNL     1       5.118   3.270  -4.823  0.00  0.00    +0.000 A 
ATOM      6  C   UNL     1       5.133   1.874  -4.680  0.00  0.00    +0.000 A 
ATOM      7  C   UNL     1       4.235   1.226  -3.824  0.00  0.00    +0.000 A 
BRANCH   5   8
ATOM      8  C   UNL     1       6.076   3.964  -5.776  0.00  0.00    +0.000 C 
BRANCH   8   9
ATOM      9  N   UNL     1       7.367   4.405  -5.246  0.00  0.00    +0.000 NA
ATOM     10  C   UNL     1       8.240   3.379  -4.686  0.00  0.00    +0.000 C 
ATOM     11  C   UNL     1       8.526   3.813  -3.259  0.00  0.00    +0.000 C 
ATOM     12  C   UNL     1       8.406   5.333  -3.299  0.00  0.00    +0.000 C 
ATOM     13  C   UNL     1       7.334   5.568  -4.362  0.00  0.00    +0.000 C 
BRANCH  12  14
ATOM     14  C   UNL     1       9.730   6.019  -3.641  0.00  0.00    +0.000 C 
BRANCH  14  15
ATOM     15  O   UNL     1      10.698   5.765  -2.626  0.00  0.00    +0.000 OA
ATOM     16  H   UNL     1      10.318   6.049  -1.777  0.00  0.00    +0.000 HD
ENDBRANCH  14  15
ENDBRANCH  12  14
ENDBRANCH   8   9
ENDBRANCH   5   8
ENDBRANCH   1   2
BRANCH   1  19
ATOM     17  O   UNL     1      -0.086   2.727  -2.257  0.00  0.00    +0.000 OA
ATOM     18  C   UNL     1       0.009   1.677  -2.890  0.00  0.00    +0.000 C 
ATOM     19  N   UNL     1       1.128   0.889  -2.846  0.00  0.00    +0.000 N 
ATOM     20  H   UNL     1       1.225   0.133  -3.516  0.00  0.00    +0.000 HD
BRANCH  18  21
ATOM     21  C   UNL     1      -1.108   1.167  -3.696  0.00  0.00    +0.000 A 
ATOM     22  C   UNL     1      -2.402   1.596  -3.432  0.00  0.00    +0.000 A 
ATOM     23  S   UNL     1      -3.577   0.893  -4.447  0.00  0.00    +0.000 S 
ATOM     24  C   UNL     1      -2.394   0.023  -5.306  0.00  0.00    +0.000 A 
ATOM     25  N   UNL     1      -2.736  -0.777  -6.351  0.00  0.00    +0.000 NA
ATOM     26  C   UNL     1      -1.736  -1.342  -6.940  0.00  0.00    +0.000 A 
ATOM     27  N   UNL     1      -0.425  -1.190  -6.571  0.00  0.00    +0.000 N 
ATOM     28  C   UNL     1      -0.040  -0.459  -5.474  0.00  0.00    +0.000 A 
ATOM     29  O   UNL     1       1.125  -0.460  -5.089  0.00  0.00    +0.000 OA
ATOM     30  C   UNL     1      -1.122   0.243  -4.807  0.00  0.00    +0.000 A 
ATOM     31  H   UNL     1       0.309  -1.686  -7.054  0.00  0.00    +0.000 HD
ENDBRANCH  18  21
ENDBRANCH   1  19
TORSDOF 7
