REMARK  Name = 
REMARK  8 active torsions:
REMARK  status: ('A' for Active; 'I' for Inactive)
REMARK    1  A    between atoms: C_1  and  C_2
REMARK    2  A    between atoms: C_2  and  N_3
REMARK    3  A    between atoms: C_2  and  C_12
REMARK    4  A    between atoms: N_3  and  C_4
REMARK    5  A    between atoms: C_4  and  C_5
REMARK    6  A    between atoms: C_15  and  C_16
REMARK    7  A    between atoms: C_16  and  N_17
REMARK    8  A    between atoms: C_18  and  C_20
REMARK                            x       y       z     vdW  Elec       q    Type
REMARK                         _______ _______ _______ _____ _____    ______ ____
ROOT
ATOM      1  C   UNL     1       3.892   4.506   4.600  0.00  0.00    +0.000 A 
ATOM      2  C   UNL     1       5.028   3.711   4.438  0.00  0.00    +0.000 A 
ATOM      3  C   UNL     1       5.900   3.524   5.510  0.00  0.00    +0.000 A 
ATOM      4  C   UNL     1       5.603   4.110   6.738  0.00  0.00    +0.000 A 
ATOM      5  C   UNL     1       4.458   4.885   6.824  0.00  0.00    +0.000 A 
ATOM      6  N   UNL     1       3.638   5.116   5.782  0.00  0.00    +0.000 NA
ENDROOT
BRANCH   1   8
ATOM      7  C   UNL     1       3.356   4.165   2.132  0.00  0.00    +0.000 C 
ATOM      8  C   UNL     1       2.888   4.766   3.470  0.00  0.00    +0.000 C 
BRANCH   8   9
ATOM      9  N   UNL     1       1.512   4.255   3.735  0.00  0.00    +0.000 NA
ATOM     10  H   UNL     1       1.577   3.261   3.937  0.00  0.00    +0.000 HD
BRANCH   9  11
ATOM     11  C   UNL     1       0.876   4.907   4.900  0.00  0.00    +0.000 C 
BRANCH  11  12
ATOM     12  C   UNL     1      -0.595   4.480   5.151  0.00  0.00    +0.000 C 
ATOM     13  C   UNL     1      -1.476   4.853   3.951  0.00  0.00    +0.000 C 
ATOM     14  C   UNL     1      -2.934   4.510   4.218  0.00  0.00    +0.000 C 
ATOM     15  C   UNL     1      -3.066   3.041   4.588  0.00  0.00    +0.000 C 
ATOM     16  F   UNL     1      -4.350   2.801   4.970  0.00  0.00    +0.000 F 
ATOM     17  C   UNL     1      -2.117   2.675   5.732  0.00  0.00    +0.000 C 
ATOM     18  N   UNL     1      -0.712   3.039   5.475  0.00  0.00    +0.000 NA
ATOM     19  H   UNL     1      -0.360   2.499   4.686  0.00  0.00    +0.000 HD
ENDBRANCH  11  12
ENDBRANCH   9  11
ENDBRANCH   8   9
ENDBRANCH   1   8
BRANCH   4  20
ATOM     20  C   UNL     1       6.520   3.994   7.916  0.00  0.00    +0.000 C 
BRANCH  20  21
ATOM     21  N   UNL     1       7.444   5.099   7.935  0.00  0.00    +0.000 N 
ATOM     22  C   UNL     1       8.431   5.182   8.877  0.00  0.00    +0.000 C 
ATOM     23  O   UNL     1       8.597   4.306   9.725  0.00  0.00    +0.000 OA
ATOM     24  H   UNL     1       7.176   5.939   7.427  0.00  0.00    +0.000 HD
BRANCH  22  25
ATOM     25  C   UNL     1       9.326   6.340   8.780  0.00  0.00    +0.000 A 
ATOM     26  C   UNL     1      10.613   6.257   9.293  0.00  0.00    +0.000 A 
ATOM     27  S   UNL     1      11.527   7.679   9.076  0.00  0.00    +0.000 S 
ATOM     28  C   UNL     1      10.219   8.471   8.334  0.00  0.00    +0.000 A 
ATOM     29  N   UNL     1      10.323   9.769   7.928  0.00  0.00    +0.000 NA
ATOM     30  C   UNL     1       9.247  10.253   7.405  0.00  0.00    +0.000 A 
ATOM     31  N   UNL     1       8.078   9.560   7.237  0.00  0.00    +0.000 N 
ATOM     32  C   UNL     1       7.939   8.237   7.599  0.00  0.00    +0.000 A 
ATOM     33  O   UNL     1       6.896   7.621   7.383  0.00  0.00    +0.000 OA
ATOM     34  C   UNL     1       9.109   7.652   8.218  0.00  0.00    +0.000 A 
ATOM     35  H   UNL     1       7.275   9.992   6.811  0.00  0.00    +0.000 HD
ENDBRANCH  22  25
ENDBRANCH  20  21
ENDBRANCH   4  20
TORSDOF 7
