REMARK  Name = 
REMARK  7 active torsions:
REMARK  status: ('A' for Active; 'I' for Inactive)
REMARK    1  A    between atoms: N_1  and  C_2
REMARK    2  A    between atoms: C_2  and  C_3
REMARK    3  A    between atoms: C_6  and  C_7
REMARK    4  A    between atoms: C_7  and  O_8
REMARK    5  A    between atoms: O_8  and  C_9
REMARK    6  A    between atoms: CA_12  and  C_13
REMARK    7  A    between atoms: C_13  and  OXT_15
REMARK                            x       y       z     vdW  Elec       q    Type
REMARK                         _______ _______ _______ _____ _____    ______ ____
ROOT
ATOM      1  C   UNL     1       3.664  -4.647   3.189  0.00  0.00    +0.000 C 
ENDROOT
BRANCH   1   5
ATOM      2  C   UNL     1       2.756  -1.163   0.776  0.00  0.00    +0.000 A 
ATOM      3  C   UNL     1       4.027  -1.314   1.344  0.00  0.00    +0.000 A 
ATOM      4  C   UNL     1       4.331  -2.437   2.118  0.00  0.00    +0.000 A 
ATOM      5  C   UNL     1       3.366  -3.430   2.344  0.00  0.00    +0.000 A 
ATOM      6  C   UNL     1       2.106  -3.290   1.747  0.00  0.00    +0.000 A 
ATOM      7  C   UNL     1       1.804  -2.171   0.971  0.00  0.00    +0.000 A 
BRANCH   2   8
ATOM      8  C   UNL     1       2.398   0.084   0.011  0.00  0.00    +0.000 C 
BRANCH   8   9
ATOM      9  N   UNL     1       3.294   0.275  -1.122  0.00  0.00    +0.000 NA
ATOM     10  H   UNL     1       2.942   1.035  -1.699  0.00  0.00    +0.000 HD
ATOM     11  H   UNL     1       3.274  -0.567  -1.697  0.00  0.00    +0.000 HD
ENDBRANCH   8   9
ENDBRANCH   2   8
ENDBRANCH   1   5
BRANCH   1  12
ATOM     12  O   UNL     1       4.015  -4.236   4.511  0.00  0.00    +0.000 OA
BRANCH  12  13
ATOM     13  C   UNL     1       4.328  -5.212   5.415  0.00  0.00    +0.000 A 
ATOM     14  C   UNL     1       4.324  -6.584   5.204  0.00  0.00    +0.000 A 
ATOM     15  C   UNL     1       4.731  -7.448   6.241  0.00  0.00    +0.000 A 
ATOM     16  CA  UNL     1       5.132  -6.899   7.469  0.00  0.00    +0.000 A 
ATOM     17  N   UNL     1       5.132  -5.559   7.704  0.00  0.00    +0.000 NA
ATOM     18  C   UNL     1       4.729  -4.765   6.673  0.00  0.00    +0.000 A 
BRANCH  16  19
ATOM     19  C   UNL     1       5.608  -7.754   8.626  0.00  0.00    +0.000 C 
ATOM     20  O   UNL     1       5.675  -8.957   8.561  0.00  0.00    +0.000 OA
BRANCH  19  21
ATOM     21  OXT UNL     1       5.958  -7.066   9.744  0.00  0.00    +0.000 OA
ATOM     22  HXT UNL     1       5.841  -6.098   9.698  0.00  0.00    +0.000 HD
ENDBRANCH  19  21
ENDBRANCH  16  19
ENDBRANCH  12  13
ENDBRANCH   1  12
TORSDOF 7
