REMARK  Name = 
REMARK  7 active torsions:
REMARK  status: ('A' for Active; 'I' for Inactive)
REMARK    1  A    between atoms: C_2  and  C_4
REMARK    2  A    between atoms: N_8  and  C_9
REMARK    3  A    between atoms: C_9  and  C_10
REMARK    4  A    between atoms: C_10  and  C_13
REMARK    5  A    between atoms: C_17  and  O_18
REMARK    6  A    between atoms: O_18  and  C_19
REMARK    7  A    between atoms: C_21  and  N_22
REMARK                            x       y       z     vdW  Elec       q    Type
REMARK                         _______ _______ _______ _____ _____    ______ ____
ROOT
ATOM      1  C   UNL     1       6.157   4.232   5.568  0.00  0.00    +0.000 C 
ATOM      2  F   UNL     1       6.861   3.109   5.228  0.00  0.00    +0.000 F 
ATOM      3  F   UNL     1       6.954   5.281   5.207  0.00  0.00    +0.000 F 
ENDROOT
BRANCH   1   4
ATOM      4  C   UNL     1       5.816   4.266   7.048  0.00  0.00    +0.000 A 
ATOM      5  C   UNL     1       5.593   3.080   7.759  0.00  0.00    +0.000 A 
ATOM      6  C   UNL     1       5.281   3.123   9.119  0.00  0.00    +0.000 A 
ATOM      7  C   UNL     1       5.183   4.348   9.788  0.00  0.00    +0.000 A 
ATOM      8  C   UNL     1       5.385   5.536   9.089  0.00  0.00    +0.000 A 
ATOM      9  C   UNL     1       5.704   5.491   7.729  0.00  0.00    +0.000 A 
BRANCH   8  10
ATOM     10  O   UNL     1       5.341   6.795   9.637  0.00  0.00    +0.000 OA
BRANCH  10  11
ATOM     11  C   UNL     1       4.598   7.019  10.857  0.00  0.00    +0.000 C 
ATOM     12  C   UNL     1       3.055   6.931  10.762  0.00  0.00    +0.000 C 
ATOM     13  C   UNL     1       2.935   8.313  11.419  0.00  0.00    +0.000 C 
ATOM     14  C   UNL     1       4.447   8.513  11.249  0.00  0.00    +0.000 C 
BRANCH  13  15
ATOM     15  N   UNL     1       2.632   8.151  12.840  0.00  0.00    +0.000 NA
ATOM     16  H   UNL     1       3.236   7.518  13.359  0.00  0.00    +0.000 HD
ATOM     17  H   UNL     1       1.673   7.855  13.028  0.00  0.00    +0.000 HD
ENDBRANCH  13  15
ENDBRANCH  10  11
ENDBRANCH   8  10
ENDBRANCH   1   4
BRANCH   1  18
ATOM     18  C   UNL     1       4.861   4.266   4.717  0.00  0.00    +0.000 C 
BRANCH  18  23
ATOM     19  C   UNL     1       2.040   4.346   0.476  0.00  0.00    +0.000 A 
ATOM     20  C   UNL     1       1.799   4.906   1.725  0.00  0.00    +0.000 A 
ATOM     21  C   UNL     1       2.808   4.885   2.684  0.00  0.00    +0.000 A 
ATOM     22  C   UNL     1       4.037   4.299   2.393  0.00  0.00    +0.000 A 
ATOM     23  N   UNL     1       5.105   4.331   3.269  0.00  0.00    +0.000 N 
ATOM     24  N   UNL     1       4.272   3.724   1.196  0.00  0.00    +0.000 NA
ATOM     25  C   UNL     1       3.276   3.751   0.268  0.00  0.00    +0.000 A 
ATOM     26  H   UNL     1       5.855   3.741   2.912  0.00  0.00    +0.000 HD
BRANCH  19  28
ATOM     27  N   UNL     1       0.141   5.394  -0.602  0.00  0.00    +0.000 N 
ATOM     28  C   UNL     1       1.038   4.362  -0.602  0.00  0.00    +0.000 C 
ATOM     29  O   UNL     1       1.029   3.511  -1.482  0.00  0.00    +0.000 OA
ATOM     30  H   UNL     1      -0.477   5.458  -1.401  0.00  0.00    +0.000 HD
ATOM     31  H   UNL     1       0.280   6.235  -0.056  0.00  0.00    +0.000 HD
ENDBRANCH  19  28
ENDBRANCH  18  23
ENDBRANCH   1  18
TORSDOF 7
