REMARK  Name = 
REMARK  4 active torsions:
REMARK  status: ('A' for Active; 'I' for Inactive)
REMARK    1  A    between atoms: N_1  and  C_2
REMARK    2  A    between atoms: C_2  and  C_3
REMARK    3  A    between atoms: C_6  and  C_7
REMARK    4  A    between atoms: C_7  and  N_8
REMARK                            x       y       z     vdW  Elec       q    Type
REMARK                         _______ _______ _______ _____ _____    ______ ____
ROOT
ATOM      1  C   UNL     1       3.002  -0.163   1.340  0.00  0.00    +0.000 C 
ATOM      2  C   UNL     1       2.465  -1.519   1.831  0.00  0.00    +0.000 C 
ATOM      3  C   UNL     1       2.703  -1.746   3.324  0.00  0.00    +0.000 C 
ATOM      4  C   UNL     1       2.163  -0.609   4.212  0.00  0.00    +0.000 C 
ATOM      5  C   UNL     1       2.624   0.764   3.693  0.00  0.00    +0.000 C 
ATOM      6  C   UNL     1       2.398   0.963   2.195  0.00  0.00    +0.000 C 
ENDROOT
BRANCH   1   7
ATOM      7  C   UNL     1       4.545  -0.174   1.292  0.00  0.00    +0.000 C 
BRANCH   7   8
ATOM      8  N   UNL     1       5.103   1.066   0.760  0.00  0.00    +0.000 NA
ATOM      9  H   UNL     1       6.108   0.953   0.629  0.00  0.00    +0.000 HD
ATOM     10  H   UNL     1       4.997   1.811   1.448  0.00  0.00    +0.000 HD
ENDBRANCH   7   8
ENDBRANCH   1   7
BRANCH   4  11
ATOM     11  C   UNL     1       0.629  -0.665   4.395  0.00  0.00    +0.000 C 
BRANCH  11  12
ATOM     12  N   UNL     1       0.180  -1.881   5.062  0.00  0.00    +0.000 N 
ATOM     13  C   UNL     1       0.565  -2.276   6.322  0.00  0.00    +0.000 A 
ATOM     14  C   UNL     1       0.043  -3.532   6.551  0.00  0.00    +0.000 A 
ATOM     15  C   UNL     1      -0.735  -3.885   5.418  0.00  0.00    +0.000 A 
ATOM     16  C   UNL     1      -1.510  -4.998   5.049  0.00  0.00    +0.000 A 
ATOM     17  C   UNL     1      -2.161  -4.952   3.817  0.00  0.00    +0.000 A 
ATOM     18  C   UNL     1      -2.012  -3.826   3.019  0.00  0.00    +0.000 A 
ATOM     19  N   UNL     1      -1.261  -2.741   3.314  0.00  0.00    +0.000 NA
ATOM     20  C   UNL     1      -0.655  -2.825   4.516  0.00  0.00    +0.000 A 
ENDBRANCH  11  12
ENDBRANCH   4  11
TORSDOF 4
