REMARK  Name = 
REMARK  10 active torsions:
REMARK  status: ('A' for Active; 'I' for Inactive)
REMARK    1  A    between atoms: C_1  and  O_2
REMARK    2  A    between atoms: O_2  and  C_3
REMARK    3  A    between atoms: C_10  and  C_11
REMARK    4  A    between atoms: N_13  and  C_14
REMARK    5  A    between atoms: C_14  and  C_15
REMARK    6  A    between atoms: C_18  and  C_19
REMARK    7  A    between atoms: C_19  and  C_20
REMARK    8  A    between atoms: C_20  and  C_21
REMARK    9  A    between atoms: C_21  and  C_22
REMARK   10  A    between atoms: C_25  and  C_26
REMARK                            x       y       z     vdW  Elec       q    Type
REMARK                         _______ _______ _______ _____ _____    ______ ____
ROOT
ATOM      1  C   UNL     1       2.967  -2.224   2.529  0.00  0.00    +0.000 C 
ENDROOT
BRANCH   1   2
ATOM      2  C   UNL     1       1.863  -1.371   3.084  0.00  0.00    +0.000 A 
ATOM      3  C   UNL     1       0.655  -1.920   3.520  0.00  0.00    +0.000 A 
ATOM      4  C   UNL     1      -0.362  -1.085   3.985  0.00  0.00    +0.000 A 
ATOM      5  C   UNL     1      -0.155   0.292   3.997  0.00  0.00    +0.000 A 
ATOM      6  N   UNL     1       0.999   0.849   3.558  0.00  0.00    +0.000 NA
ATOM      7  C   UNL     1       1.972   0.014   3.116  0.00  0.00    +0.000 A 
BRANCH   5   8
ATOM      8  C   UNL     1      -1.240   1.235   4.464  0.00  0.00    +0.000 C 
BRANCH   8   9
ATOM      9  C   UNL     1      -2.144   1.661   3.305  0.00  0.00    +0.000 C 
BRANCH   9  10
ATOM     10  C   UNL     1      -3.229   2.650   3.744  0.00  0.00    +0.000 C 
BRANCH  10  11
ATOM     11  C   UNL     1      -4.119   3.023   2.582  0.00  0.00    +0.000 A 
ATOM     12  C   UNL     1      -3.810   4.114   1.774  0.00  0.00    +0.000 A 
ATOM     13  C   UNL     1      -4.630   4.401   0.683  0.00  0.00    +0.000 A 
ATOM     14  C   UNL     1      -5.738   3.598   0.419  0.00  0.00    +0.000 A 
ATOM     15  C   UNL     1      -6.649   3.859  -0.738  0.00  0.00    +0.000 C 
ATOM     16  C   UNL     1      -5.968   2.531   1.280  0.00  0.00    +0.000 A 
ATOM     17  N   UNL     1      -5.187   2.225   2.343  0.00  0.00    +0.000 NA
ENDBRANCH  10  11
ENDBRANCH   9  10
ENDBRANCH   8   9
ENDBRANCH   5   8
ENDBRANCH   1   2
BRANCH   1  20
ATOM     18  C   UNL     1       3.656  -3.163   0.349  0.00  0.00    +0.000 C 
ATOM     19  O   UNL     1       4.601  -3.763   0.856  0.00  0.00    +0.000 OA
ATOM     20  N   UNL     1       2.817  -2.391   1.104  0.00  0.00    +0.000 N 
ATOM     21  H   UNL     1       2.070  -1.879   0.654  0.00  0.00    +0.000 HD
BRANCH  18  29
ATOM     22  C   UNL     1       1.167  -1.875  -1.653  0.00  0.00    +0.000 A 
ATOM     23  N   UNL     1       0.343  -1.492  -2.648  0.00  0.00    +0.000 NA
ATOM     24  C   UNL     1       0.627  -1.898  -3.889  0.00  0.00    +0.000 A 
ATOM     25  N   UNL     1       1.651  -2.657  -4.268  0.00  0.00    +0.000 NA
ATOM     26  C   UNL     1       2.451  -3.011  -3.248  0.00  0.00    +0.000 A 
ATOM     27  S   UNL     1       3.808  -3.986  -3.546  0.00  0.00    +0.000 S 
ATOM     28  C   UNL     1       4.241  -3.975  -1.902  0.00  0.00    +0.000 A 
ATOM     29  C   UNL     1       3.379  -3.238  -1.097  0.00  0.00    +0.000 A 
ATOM     30  C   UNL     1       2.302  -2.666  -1.907  0.00  0.00    +0.000 A 
BRANCH  22  32
ATOM     31  C   UNL     1      -0.482  -1.100  -0.178  0.00  0.00    +0.000 C 
ATOM     32  O   UNL     1       0.891  -1.429  -0.377  0.00  0.00    +0.000 OA
ENDBRANCH  22  32
ENDBRANCH  18  29
ENDBRANCH   1  20
TORSDOF 8
