REMARK  Name = 
REMARK  4 active torsions:
REMARK  status: ('A' for Active; 'I' for Inactive)
REMARK    1  A    between atoms: C_1  and  C_2
REMARK    2  A    between atoms: C_4  and  C_5
REMARK    3  A    between atoms: N_8  and  C_9
REMARK    4  A    between atoms: C_9  and  C_10
REMARK                            x       y       z     vdW  Elec       q    Type
REMARK                         _______ _______ _______ _____ _____    ______ ____
ROOT
ATOM      1  C   UNL     1       1.115  -3.745   0.029  0.00  0.00    +0.000 C 
ATOM      2  C   UNL     1       2.246  -3.858   1.047  0.00  0.00    +0.000 C 
ATOM      3  C   UNL     1       2.543  -3.398  -0.341  0.00  0.00    +0.000 C 
ENDROOT
BRANCH   1  11
ATOM      4  C   UNL     1       0.791   0.210  -3.397  0.00  0.00    +0.000 C 
ATOM      5  C   UNL     1      -0.139  -0.429  -2.408  0.00  0.00    +0.000 A 
ATOM      6  C   UNL     1      -1.468  -0.071  -2.352  0.00  0.00    +0.000 A 
ATOM      7  C   UNL     1      -2.228  -0.684  -1.380  0.00  0.00    +0.000 A 
ATOM      8  C   UNL     1      -3.686  -0.387  -1.226  0.00  0.00    +0.000 C 
ATOM      9  N   UNL     1      -1.700  -1.571  -0.510  0.00  0.00    +0.000 NA
ATOM     10  C   UNL     1      -0.397  -1.865  -0.633  0.00  0.00    +0.000 A 
ATOM     11  N   UNL     1       0.105  -2.729   0.347  0.00  0.00    +0.000 N 
ATOM     12  N   UNL     1       0.404  -1.337  -1.569  0.00  0.00    +0.000 NA
ATOM     13  H   UNL     1      -0.726  -3.050   0.836  0.00  0.00    +0.000 HD
ENDBRANCH   1  11
BRANCH   1  14
ATOM     14  C   UNL     1       0.496  -5.023  -0.531  0.00  0.00    +0.000 A 
ATOM     15  C   UNL     1       0.081  -6.067   0.316  0.00  0.00    +0.000 A 
ATOM     16  C   UNL     1      -0.631  -7.163  -0.175  0.00  0.00    +0.000 A 
ATOM     17  C   UNL     1      -0.949  -7.242  -1.531  0.00  0.00    +0.000 A 
ATOM     18 CL   UNL     1      -1.905  -8.581  -2.056  0.00  0.00    +0.000 Cl
ATOM     19  C   UNL     1      -0.514  -6.238  -2.401  0.00  0.00    +0.000 A 
ATOM     20 CL   UNL     1      -0.870  -6.264  -4.092  0.00  0.00    +0.000 Cl
ATOM     21  C   UNL     1       0.207  -5.147  -1.902  0.00  0.00    +0.000 A 
ENDBRANCH   1  14
TORSDOF 2
