REMARK  Name = 
REMARK  10 active torsions:
REMARK  status: ('A' for Active; 'I' for Inactive)
REMARK    1  A    between atoms: N_1  and  C_2
REMARK    2  A    between atoms: C_2  and  C_3
REMARK    3  A    between atoms: C_3  and  N_4
REMARK    4  A    between atoms: N_4  and  C_5
REMARK    5  A    between atoms: C_5  and  C_6
REMARK    6  A    between atoms: C_8  and  C_9
REMARK    7  A    between atoms: C_9  and  N_10
REMARK    8  A    between atoms: C_11  and  C_13
REMARK    9  A    between atoms: C_25  and  C_26
REMARK   10  A    between atoms: C_26  and  N_27
REMARK                            x       y       z     vdW  Elec       q    Type
REMARK                         _______ _______ _______ _____ _____    ______ ____
ROOT
ATOM      1  C   UNL     1       6.296  -2.424  -1.326  0.00  0.00    +0.000 A 
ATOM      2  C   UNL     1       6.975  -3.475  -1.995  0.00  0.00    +0.000 A 
ATOM      3  C   UNL     1       8.372  -3.520  -2.101  0.00  0.00    +0.000 A 
ATOM      4  C   UNL     1       9.111  -2.472  -1.559  0.00  0.00    +0.000 A 
ATOM      5  C   UNL     1       8.473  -1.458  -0.848  0.00  0.00    +0.000 A 
ATOM      6  C   UNL     1       7.068  -1.425  -0.686  0.00  0.00    +0.000 A 
ENDROOT
BRANCH   1   7
ATOM      7  C   UNL     1       4.779  -2.528  -1.334  0.00  0.00    +0.000 C 
BRANCH   7   8
ATOM      8  N   UNL     1       4.002  -1.287  -1.408  0.00  0.00    +0.000 NA
ATOM      9  H   UNL     1       3.023  -1.568  -1.521  0.00  0.00    +0.000 HD
BRANCH   8  10
ATOM     10  C   UNL     1       4.320  -0.442  -2.566  0.00  0.00    +0.000 C 
BRANCH  10  11
ATOM     11  C   UNL     1       4.024  -1.069  -3.941  0.00  0.00    +0.000 C 
BRANCH  11  12
ATOM     12  N   UNL     1       2.644  -1.556  -4.037  0.00  0.00    +0.000 NA
ATOM     13  H   UNL     1       2.490  -1.928  -4.973  0.00  0.00    +0.000 HD
ATOM     14  H   UNL     1       2.006  -0.765  -3.940  0.00  0.00    +0.000 HD
ENDBRANCH  11  12
ENDBRANCH  10  11
ENDBRANCH   8  10
ENDBRANCH   7   8
ENDBRANCH   1   7
BRANCH   3  15
ATOM     15  C   UNL     1       9.069  -4.650  -2.805  0.00  0.00    +0.000 C 
BRANCH  15  16
ATOM     16  N   UNL     1       9.202  -4.389  -4.212  0.00  0.00    +0.000 N 
ATOM     17  C   UNL     1      10.348  -3.878  -4.775  0.00  0.00    +0.000 C 
ATOM     18  O   UNL     1      11.345  -3.627  -4.109  0.00  0.00    +0.000 OA
ATOM     19  H   UNL     1       8.345  -4.376  -4.753  0.00  0.00    +0.000 HD
BRANCH  17  20
ATOM     20  C   UNL     1      10.341  -3.737  -6.238  0.00  0.00    +0.000 A 
ATOM     21  C   UNL     1      11.545  -3.697  -6.919  0.00  0.00    +0.000 A 
ATOM     22  S   UNL     1      11.367  -3.598  -8.610  0.00  0.00    +0.000 S 
ATOM     23  C   UNL     1       9.673  -3.554  -8.482  0.00  0.00    +0.000 A 
ATOM     24  N   UNL     1       8.890  -3.455  -9.589  0.00  0.00    +0.000 NA
ATOM     25  C   UNL     1       7.622  -3.397  -9.346  0.00  0.00    +0.000 A 
ATOM     26  N   UNL     1       7.065  -3.432  -8.094  0.00  0.00    +0.000 N 
ATOM     27  C   UNL     1       7.810  -3.589  -6.953  0.00  0.00    +0.000 A 
ATOM     28  O   UNL     1       7.269  -3.715  -5.856  0.00  0.00    +0.000 OA
ATOM     29  C   UNL     1       9.247  -3.632  -7.168  0.00  0.00    +0.000 A 
ATOM     30  H   UNL     1       6.064  -3.403  -7.975  0.00  0.00    +0.000 HD
ENDBRANCH  17  20
ENDBRANCH  15  16
ENDBRANCH   3  15
BRANCH   6  31
ATOM     31  C   UNL     1       6.525  -0.323   0.211  0.00  0.00    +0.000 C 
BRANCH  31  32
ATOM     32  N   UNL     1       6.713  -0.696   1.598  0.00  0.00    +0.000 N 
ATOM     33  C   UNL     1       6.102   0.054   2.578  0.00  0.00    +0.000 A 
ATOM     34  N   UNL     1       5.711   1.318   2.343  0.00  0.00    +0.000 NA
ATOM     35  C   UNL     1       5.163   1.997   3.381  0.00  0.00    +0.000 A 
ATOM     36  C   UNL     1       5.001   1.469   4.639  0.00  0.00    +0.000 A 
ATOM     37 CL   UNL     1       4.305   2.351   5.926  0.00  0.00    +0.000 Cl
ATOM     38  C   UNL     1       5.438   0.177   4.781  0.00  0.00    +0.000 A 
ATOM     39  N   UNL     1       5.977  -0.547   3.773  0.00  0.00    +0.000 NA
ATOM     40  H   UNL     1       6.668  -1.680   1.823  0.00  0.00    +0.000 HD
ENDBRANCH  31  32
ENDBRANCH   6  31
TORSDOF 10
