REMARK  Name = 
REMARK  7 active torsions:
REMARK  status: ('A' for Active; 'I' for Inactive)
REMARK    1  A    between atoms: C_1  and  O_2
REMARK    2  A    between atoms: O_2  and  C_3
REMARK    3  A    between atoms: C_7  and  C_8
REMARK    4  A    between atoms: C_8  and  C_9
REMARK    5  A    between atoms: C_12  and  C_13
REMARK    6  A    between atoms: C_13  and  N_14
REMARK    7  A    between atoms: C_15  and  C_17
REMARK                            x       y       z     vdW  Elec       q    Type
REMARK                         _______ _______ _______ _____ _____    ______ ____
ROOT
ATOM      1  C   UNL     1       9.269   4.964   5.128  0.00  0.00    +0.000 C 
ENDROOT
BRANCH   1   5
ATOM      2  C   UNL     1       7.232   3.178   1.828  0.00  0.00    +0.000 A 
ATOM      3  C   UNL     1       7.289   2.482   3.033  0.00  0.00    +0.000 A 
ATOM      4  C   UNL     1       7.956   3.054   4.116  0.00  0.00    +0.000 A 
ATOM      5  C   UNL     1       8.563   4.303   3.980  0.00  0.00    +0.000 A 
ATOM      6  C   UNL     1       8.458   4.924   2.741  0.00  0.00    +0.000 A 
ATOM      7  N   UNL     1       7.818   4.393   1.670  0.00  0.00    +0.000 NA
BRANCH   2   8
ATOM      8  C   UNL     1       6.417   2.634   0.669  0.00  0.00    +0.000 C 
BRANCH   8  13
ATOM      9  C   UNL     1       2.617   2.503   1.123  0.00  0.00    +0.000 A 
ATOM     10  C   UNL     1       2.298   3.862   1.098  0.00  0.00    +0.000 A 
ATOM     11  C   UNL     1       3.293   4.810   0.856  0.00  0.00    +0.000 A 
ATOM     12  C   UNL     1       4.614   4.408   0.667  0.00  0.00    +0.000 A 
ATOM     13  C   UNL     1       4.962   3.052   0.737  0.00  0.00    +0.000 A 
ATOM     14  C   UNL     1       3.945   2.105   0.930  0.00  0.00    +0.000 A 
BRANCH   9  16
ATOM     15  C   UNL     1       0.393   1.847   1.639  0.00  0.00    +0.000 C 
ATOM     16  O   UNL     1       1.736   1.480   1.345  0.00  0.00    +0.000 OA
ENDBRANCH   9  16
ENDBRANCH   8  13
ENDBRANCH   2   8
ENDBRANCH   1   5
BRANCH   1  17
ATOM     17  N   UNL     1       8.373   5.773   5.918  0.00  0.00    +0.000 N 
ATOM     18  C   UNL     1       8.845   6.547   6.950  0.00  0.00    +0.000 C 
ATOM     19  O   UNL     1      10.043   6.618   7.211  0.00  0.00    +0.000 OA
ATOM     20  H   UNL     1       7.383   5.548   5.881  0.00  0.00    +0.000 HD
BRANCH  18  21
ATOM     21  C   UNL     1       7.854   7.339   7.692  0.00  0.00    +0.000 A 
ATOM     22  C   UNL     1       8.254   8.484   8.367  0.00  0.00    +0.000 A 
ATOM     23  S   UNL     1       6.974   9.299   9.151  0.00  0.00    +0.000 S 
ATOM     24  C   UNL     1       5.850   8.121   8.659  0.00  0.00    +0.000 A 
ATOM     25  N   UNL     1       4.545   8.200   9.030  0.00  0.00    +0.000 NA
ATOM     26  C   UNL     1       3.811   7.225   8.610  0.00  0.00    +0.000 A 
ATOM     27  N   UNL     1       4.260   6.185   7.841  0.00  0.00    +0.000 N 
ATOM     28  C   UNL     1       5.562   6.076   7.416  0.00  0.00    +0.000 A 
ATOM     29  O   UNL     1       5.926   5.158   6.691  0.00  0.00    +0.000 OA
ATOM     30  C   UNL     1       6.437   7.135   7.879  0.00  0.00    +0.000 A 
ATOM     31  H   UNL     1       3.629   5.460   7.527  0.00  0.00    +0.000 HD
ENDBRANCH  18  21
ENDBRANCH   1  17
TORSDOF 6
