REMARK  Name = 
REMARK  7 active torsions:
REMARK  status: ('A' for Active; 'I' for Inactive)
REMARK    1  A    between atoms: N_1  and  C_2
REMARK    2  A    between atoms: C_2  and  C_3
REMARK    3  A    between atoms: C_3  and  O_4
REMARK    4  A    between atoms: O_4  and  C_5
REMARK    5  A    between atoms: N_11  and  C_12
REMARK    6  A    between atoms: C_12  and  C_13
REMARK    7  A    between atoms: C_16  and  C_17
REMARK                            x       y       z     vdW  Elec       q    Type
REMARK                         _______ _______ _______ _____ _____    ______ ____
ROOT
ATOM      1  C   UNL     1       5.065  -1.780   1.749  0.00  0.00    +0.000 A 
ATOM      2  C   UNL     1       4.741  -3.116   1.984  0.00  0.00    +0.000 A 
ATOM      3  N   UNL     1       5.438  -3.982   2.758  0.00  0.00    +0.000 NA
ATOM      4  C   UNL     1       6.541  -3.453   3.328  0.00  0.00    +0.000 A 
ATOM      5  N   UNL     1       7.413  -4.126   4.137  0.00  0.00    +0.000 NA
ATOM      6  C   UNL     1       8.335  -3.245   4.451  0.00  0.00    +0.000 A 
ATOM      7  N   UNL     1       8.090  -2.024   3.882  0.00  0.00    +0.000 N 
ATOM      8  C   UNL     1       6.938  -2.133   3.145  0.00  0.00    +0.000 A 
ATOM      9  C   UNL     1       6.206  -1.253   2.349  0.00  0.00    +0.000 A 
ENDROOT
BRANCH   1  10
ATOM     10  O   UNL     1       4.372  -0.895   0.971  0.00  0.00    +0.000 OA
BRANCH  10  11
ATOM     11  C   UNL     1       3.227  -1.416   0.291  0.00  0.00    +0.000 C 
BRANCH  11  12
ATOM     12  C   UNL     1       2.626  -0.290  -0.553  0.00  0.00    +0.000 C 
BRANCH  12  13
ATOM     13  N   UNL     1       1.441  -0.725  -1.288  0.00  0.00    +0.000 NA
ATOM     14  H   UNL     1       1.085   0.056  -1.838  0.00  0.00    +0.000 HD
ATOM     15  H   UNL     1       0.698  -0.967  -0.632  0.00  0.00    +0.000 HD
ENDBRANCH  12  13
ENDBRANCH  11  12
ENDBRANCH  10  11
ENDBRANCH   1  10
BRANCH   7  16
ATOM     16  C   UNL     1       8.939  -0.848   3.982  0.00  0.00    +0.000 C 
BRANCH  16  17
ATOM     17  C   UNL     1       8.534   0.024   5.139  0.00  0.00    +0.000 A 
ATOM     18  C   UNL     1       7.590   1.046   4.992  0.00  0.00    +0.000 A 
ATOM     19  C   UNL     1       7.177   1.774   6.106  0.00  0.00    +0.000 A 
ATOM     20  C   UNL     1       7.741   1.472   7.339  0.00  0.00    +0.000 A 
ATOM     21  N   UNL     1       8.687   0.510   7.518  0.00  0.00    +0.000 NA
ATOM     22  C   UNL     1       9.050  -0.188   6.417  0.00  0.00    +0.000 A 
BRANCH  20  23
ATOM     23  C   UNL     1       7.292   2.219   8.559  0.00  0.00    +0.000 C 
ATOM     24  N   UNL     1       7.879   1.865   9.745  0.00  0.00    +0.000 N 
ATOM     25  O   UNL     1       6.441   3.097   8.509  0.00  0.00    +0.000 OA
ATOM     26  H   UNL     1       8.575   1.129   9.777  0.00  0.00    +0.000 HD
ATOM     27  H   UNL     1       7.587   2.326  10.591  0.00  0.00    +0.000 HD
ENDBRANCH  20  23
ENDBRANCH  16  17
ENDBRANCH   7  16
TORSDOF 7
