REMARK  Name = 
REMARK  7 active torsions:
REMARK  status: ('A' for Active; 'I' for Inactive)
REMARK    1  A    between atoms: C_2  and  C_19
REMARK    2  A    between atoms: N_3  and  C_4
REMARK    3  A    between atoms: C_4  and  C_5
REMARK    4  A    between atoms: C_9  and  C_10
REMARK    5  A    between atoms: C_10  and  N_11
REMARK    6  A    between atoms: N_11  and  C_12
REMARK    7  A    between atoms: C_12  and  C_13
REMARK                            x       y       z     vdW  Elec       q    Type
REMARK                         _______ _______ _______ _____ _____    ______ ____
ROOT
ATOM      1  C   UNL     1       6.685 -15.042  -7.885  0.00  0.00    +0.000 C 
ENDROOT
BRANCH   1   2
ATOM      2  C   UNL     1       6.145 -14.657  -6.532  0.00  0.00    +0.000 A 
ATOM      3  C   UNL     1       5.594 -15.636  -5.697  0.00  0.00    +0.000 A 
ATOM      4  C   UNL     1       5.128 -15.300  -4.428  0.00  0.00    +0.000 A 
ATOM      5  C   UNL     1       5.206 -13.982  -3.984  0.00  0.00    +0.000 A 
ATOM      6  C   UNL     1       5.741 -12.977  -4.807  0.00  0.00    +0.000 A 
ATOM      7  C   UNL     1       6.186 -13.324  -6.092  0.00  0.00    +0.000 A 
BRANCH   6   8
ATOM      8  C   UNL     1       5.912 -11.573  -4.269  0.00  0.00    +0.000 C 
BRANCH   8   9
ATOM      9  N   UNL     1       6.856 -11.603  -3.154  0.00  0.00    +0.000 NA
ATOM     10  H   UNL     1       7.718 -12.032  -3.489  0.00  0.00    +0.000 HD
BRANCH   9  11
ATOM     11  C   UNL     1       7.135 -10.288  -2.585  0.00  0.00    +0.000 C 
BRANCH  11  12
ATOM     12  C   UNL     1       8.105 -10.393  -1.371  0.00  0.00    +0.000 C 
ATOM     13  C   UNL     1       9.473 -10.988  -1.693  0.00  0.00    +0.000 C 
ATOM     14  C   UNL     1      10.238  -9.815  -2.271  0.00  0.00    +0.000 C 
ATOM     15  C   UNL     1       9.654  -8.603  -1.559  0.00  0.00    +0.000 C 
ATOM     16  N   UNL     1       8.479  -9.078  -0.825  0.00  0.00    +0.000 NA
ATOM     17  H   UNL     1       7.712  -8.411  -0.874  0.00  0.00    +0.000 HD
ENDBRANCH  11  12
ENDBRANCH   9  11
ENDBRANCH   8   9
ENDBRANCH   6   8
ENDBRANCH   1   2
BRANCH   1  20
ATOM     18  O   UNL     1       5.153 -17.167  -8.927  0.00  0.00    +0.000 OA
ATOM     19  C   UNL     1       4.938 -16.024  -9.320  0.00  0.00    +0.000 C 
ATOM     20  N   UNL     1       5.672 -14.948  -8.901  0.00  0.00    +0.000 N 
ATOM     21  H   UNL     1       5.342 -14.012  -9.107  0.00  0.00    +0.000 HD
BRANCH  19  22
ATOM     22  C   UNL     1       3.906 -15.740 -10.326  0.00  0.00    +0.000 A 
ATOM     23  C   UNL     1       3.471 -16.752 -11.173  0.00  0.00    +0.000 A 
ATOM     24  S   UNL     1       2.280 -16.244 -12.283  0.00  0.00    +0.000 S 
ATOM     25  C   UNL     1       2.275 -14.668 -11.641  0.00  0.00    +0.000 A 
ATOM     26  N   UNL     1       1.436 -13.717 -12.129  0.00  0.00    +0.000 NA
ATOM     27  C   UNL     1       1.502 -12.579 -11.520  0.00  0.00    +0.000 A 
ATOM     28  N   UNL     1       2.350 -12.300 -10.480  0.00  0.00    +0.000 N 
ATOM     29  C   UNL     1       3.277 -13.203 -10.016  0.00  0.00    +0.000 A 
ATOM     30  O   UNL     1       4.123 -12.868  -9.192  0.00  0.00    +0.000 OA
ATOM     31  C   UNL     1       3.194 -14.521 -10.619  0.00  0.00    +0.000 A 
ATOM     32  H   UNL     1       2.381 -11.375 -10.078  0.00  0.00    +0.000 HD
ENDBRANCH  19  22
ENDBRANCH   1  20
TORSDOF 7
