REMARK  Name = 
REMARK  6 active torsions:
REMARK  status: ('A' for Active; 'I' for Inactive)
REMARK    1  A    between atoms: C_1  and  C_2
REMARK    2  A    between atoms: C_2  and  C_3
REMARK    3  A    between atoms: C_2  and  C_14
REMARK    4  A    between atoms: C_3  and  N_4
REMARK    5  A    between atoms: N_4  and  C_5
REMARK    6  A    between atoms: C_8  and  C_9
REMARK                            x       y       z     vdW  Elec       q    Type
REMARK                         _______ _______ _______ _____ _____    ______ ____
ROOT
ATOM      1  N   UNL     1       2.715  -1.137  -2.189  0.00  0.00    +0.000 N 
ATOM      2  H   UNL     1       1.707  -1.296  -2.200  0.00  0.00    +0.000 HD
ENDROOT
BRANCH   1   3
ATOM      3  C   UNL     1       3.247  -1.200  -3.485  0.00  0.00    +0.000 A 
ATOM      4  C   UNL     1       2.583  -1.935  -4.472  0.00  0.00    +0.000 A 
ATOM      5  C   UNL     1       3.112  -2.031  -5.760  0.00  0.00    +0.000 A 
ATOM      6  C   UNL     1       4.326  -1.408  -6.016  0.00  0.00    +0.000 A 
ATOM      7  N   UNL     1       5.043  -0.735  -5.079  0.00  0.00    +0.000 NA
ATOM      8  C   UNL     1       4.493  -0.674  -3.844  0.00  0.00    +0.000 A 
BRANCH   6   9
ATOM      9  C   UNL     1       4.913  -1.440  -7.390  0.00  0.00    +0.000 C 
ATOM     10  N   UNL     1       6.103  -0.773  -7.531  0.00  0.00    +0.000 N 
ATOM     11  O   UNL     1       4.373  -2.008  -8.332  0.00  0.00    +0.000 OA
ATOM     12  H   UNL     1       6.504  -0.311  -6.721  0.00  0.00    +0.000 HD
ATOM     13  H   UNL     1       6.552  -0.731  -8.430  0.00  0.00    +0.000 HD
ENDBRANCH   6   9
ENDBRANCH   1   3
BRANCH   1  14
ATOM     14  C   UNL     1       3.052   0.042  -1.394  0.00  0.00    +0.000 C 
BRANCH  14  16
ATOM     15  C   UNL     1       2.739  -1.033   0.921  0.00  0.00    +0.000 C 
ATOM     16  C   UNL     1       2.288  -0.044  -0.108  0.00  0.00    +0.000 C 
BRANCH  16  17
ATOM     17  C   UNL     1       0.901   0.437  -0.102  0.00  0.00    +0.000 A 
ATOM     18  C   UNL     1       0.596   1.763  -0.430  0.00  0.00    +0.000 A 
ATOM     19  C   UNL     1      -0.733   2.179  -0.525  0.00  0.00    +0.000 A 
ATOM     20  C   UNL     1      -1.766   1.271  -0.294  0.00  0.00    +0.000 A 
ATOM     21  C   UNL     1      -1.471  -0.044   0.058  0.00  0.00    +0.000 A 
ATOM     22  C   UNL     1      -0.144  -0.455   0.164  0.00  0.00    +0.000 A 
ENDBRANCH  16  17
ENDBRANCH  14  16
ENDBRANCH   1  14
TORSDOF 5
