REMARK  Name = 
REMARK  6 active torsions:
REMARK  status: ('A' for Active; 'I' for Inactive)
REMARK    1  A    between atoms: N_1  and  C_2
REMARK    2  A    between atoms: C_2  and  C_3
REMARK    3  A    between atoms: C_3  and  O_4
REMARK    4  A    between atoms: C_3  and  C_5
REMARK    5  A    between atoms: C_9  and  C_10
REMARK    6  A    between atoms: C_10  and  N_11
REMARK                            x       y       z     vdW  Elec       q    Type
REMARK                         _______ _______ _______ _____ _____    ______ ____
ROOT
ATOM      1  C   UNL     1       4.406   1.338  -0.473  0.00  0.00    +0.000 A 
ATOM      2  C   UNL     1       5.181   2.503  -0.573  0.00  0.00    +0.000 A 
ATOM      3  C   UNL     1       6.556   2.464  -0.373  0.00  0.00    +0.000 A 
ATOM      4  C   UNL     1       7.176   1.251  -0.074  0.00  0.00    +0.000 A 
ATOM      5  C   UNL     1       6.432   0.072   0.006  0.00  0.00    +0.000 A 
ATOM      6  C   UNL     1       5.044   0.119  -0.191  0.00  0.00    +0.000 A 
ENDROOT
BRANCH   1   7
ATOM      7  C   UNL     1       2.909   1.395  -0.651  0.00  0.00    +0.000 C 
BRANCH   7   8
ATOM      8  O   UNL     1       2.640   2.029  -1.903  0.00  0.00    +0.000 OA
ATOM      9  H   UNL     1       1.953   2.695  -1.725  0.00  0.00    +0.000 HD
ENDBRANCH   7   8
BRANCH   7  10
ATOM     10  C   UNL     1       2.245   2.159   0.522  0.00  0.00    +0.000 C 
BRANCH  10  11
ATOM     11  N   UNL     1       0.783   2.212   0.390  0.00  0.00    +0.000 NA
ATOM     12  H   UNL     1       0.398   2.664   1.222  0.00  0.00    +0.000 HD
ATOM     13  H   UNL     1       0.410   1.262   0.402  0.00  0.00    +0.000 HD
ENDBRANCH  10  11
ENDBRANCH   7  10
ENDBRANCH   1   7
BRANCH   5  14
ATOM     14  C   UNL     1       7.110  -1.245   0.256  0.00  0.00    +0.000 C 
BRANCH  14  15
ATOM     15  N   UNL     1       7.073  -1.660   1.655  0.00  0.00    +0.000 N 
ATOM     16  N   UNL     1       8.085  -1.285   2.475  0.00  0.00    +0.000 NA
ATOM     17  C   UNL     1       8.094  -2.230   3.416  0.00  0.00    +0.000 A 
ATOM     18  C   UNL     1       7.074  -3.188   3.235  0.00  0.00    +0.000 A 
ATOM     19  C   UNL     1       6.707  -4.397   3.848  0.00  0.00    +0.000 A 
ATOM     20  C   UNL     1       5.569  -5.055   3.380  0.00  0.00    +0.000 A 
ATOM     21  F   UNL     1       5.230  -6.233   3.921  0.00  0.00    +0.000 F 
ATOM     22  C   UNL     1       4.782  -4.525   2.364  0.00  0.00    +0.000 A 
ATOM     23  C   UNL     1       5.152  -3.339   1.722  0.00  0.00    +0.000 A 
ATOM     24  C   UNL     1       6.332  -2.714   2.155  0.00  0.00    +0.000 A 
ENDBRANCH  14  15
ENDBRANCH   5  14
TORSDOF 6
