REMARK  Name = 
REMARK  10 active torsions:
REMARK  status: ('A' for Active; 'I' for Inactive)
REMARK    1  A    between atoms: C_1  and  O_2
REMARK    2  A    between atoms: O_2  and  C_3
REMARK    3  A    between atoms: C_5  and  C_6
REMARK    4  A    between atoms: C_10  and  C_11
REMARK    5  A    between atoms: C_11  and  C_12
REMARK    6  A    between atoms: C_11  and  C_13
REMARK    7  A    between atoms: C_11  and  C_14
REMARK    8  A    between atoms: C_14  and  N_15
REMARK    9  A    between atoms: N_15  and  C_16
REMARK   10  A    between atoms: C_19  and  C_20
REMARK                            x       y       z     vdW  Elec       q    Type
REMARK                         _______ _______ _______ _____ _____    ______ ____
ROOT
ATOM      1  C   UNL     1       2.182  -2.468  -7.942  0.00  0.00    +0.000 C 
ATOM      2  C   UNL     1       3.409  -3.405  -7.830  0.00  0.00    +0.000 C 
ATOM      3  C   UNL     1       0.911  -3.266  -7.569  0.00  0.00    +0.000 C 
ENDROOT
BRANCH   1   8
ATOM      4  C   UNL     1       2.252   1.141  -6.534  0.00  0.00    +0.000 A 
ATOM      5  C   UNL     1       2.316   0.866  -5.160  0.00  0.00    +0.000 A 
ATOM      6  C   UNL     1       2.452  -0.439  -4.691  0.00  0.00    +0.000 A 
ATOM      7  C   UNL     1       2.461  -1.508  -5.585  0.00  0.00    +0.000 A 
ATOM      8  C   UNL     1       2.353  -1.289  -6.966  0.00  0.00    +0.000 A 
ATOM      9  C   UNL     1       2.339   0.046  -7.407  0.00  0.00    +0.000 A 
BRANCH   4  12
ATOM     10  C   UNL     1       2.260   4.216  -8.739  0.00  0.00    +0.000 A 
ATOM     11  C   UNL     1       2.519   2.923  -8.310  0.00  0.00    +0.000 A 
ATOM     12  C   UNL     1       2.039   2.510  -7.056  0.00  0.00    +0.000 A 
ATOM     13  C   UNL     1       1.300   3.446  -6.319  0.00  0.00    +0.000 A 
ATOM     14  C   UNL     1       1.109   4.718  -6.829  0.00  0.00    +0.000 A 
ATOM     15  N   UNL     1       1.570   5.121  -8.020  0.00  0.00    +0.000 NA
BRANCH  10  17
ATOM     16  C   UNL     1       2.441   5.924 -10.303  0.00  0.00    +0.000 C 
ATOM     17  O   UNL     1       2.764   4.575  -9.973  0.00  0.00    +0.000 OA
ENDBRANCH  10  17
ENDBRANCH   4  12
ENDBRANCH   1   8
BRANCH   1  18
ATOM     18  C   UNL     1       2.076  -2.060  -9.446  0.00  0.00    +0.000 C 
BRANCH  18  19
ATOM     19  N   UNL     1       0.886  -1.256  -9.776  0.00  0.00    +0.000 N 
ATOM     20  H   UNL     1       0.552  -0.649  -9.029  0.00  0.00    +0.000 HD
BRANCH  19  21
ATOM     21  C   UNL     1       0.821  -0.645 -11.031  0.00  0.00    +0.000 A 
ATOM     22  C   UNL     1      -0.205   0.267 -11.300  0.00  0.00    +0.000 A 
ATOM     23  C   UNL     1      -0.350   0.810 -12.579  0.00  0.00    +0.000 A 
ATOM     24  C   UNL     1       0.541   0.417 -13.561  0.00  0.00    +0.000 A 
ATOM     25  N   UNL     1       1.545  -0.474 -13.365  0.00  0.00    +0.000 NA
ATOM     26  C   UNL     1       1.637  -0.986 -12.114  0.00  0.00    +0.000 A 
BRANCH  24  27
ATOM     27  C   UNL     1       0.426   0.984 -14.949  0.00  0.00    +0.000 C 
ATOM     28  N   UNL     1       1.370   0.537 -15.834  0.00  0.00    +0.000 N 
ATOM     29  O   UNL     1      -0.433   1.783 -15.261  0.00  0.00    +0.000 OA
ATOM     30  H   UNL     1       2.074  -0.125 -15.533  0.00  0.00    +0.000 HD
ATOM     31  H   UNL     1       1.363   0.891 -16.781  0.00  0.00    +0.000 HD
ENDBRANCH  24  27
ENDBRANCH  19  21
ENDBRANCH  18  19
ENDBRANCH   1  18
TORSDOF 7
