REMARK  Name = 
REMARK  5 active torsions:
REMARK  status: ('A' for Active; 'I' for Inactive)
REMARK    1  A    between atoms: C_1  and  C_2
REMARK    2  A    between atoms: C_2  and  N_3
REMARK    3  A    between atoms: N_3  and  C_4
REMARK    4  A    between atoms: C_4  and  C_5
REMARK    5  A    between atoms: C_14  and  C_15
REMARK                            x       y       z     vdW  Elec       q    Type
REMARK                         _______ _______ _______ _____ _____    ______ ____
ROOT
ATOM      1  N   UNL     1       3.101   0.508   1.253  0.00  0.00    +0.000 N 
ATOM      2  C   UNL     1       4.447   0.324   1.638  0.00  0.00    +0.000 A 
ATOM      3  C   UNL     1       5.003   1.221   2.553  0.00  0.00    +0.000 A 
ATOM      4  C   UNL     1       6.348   1.110   2.906  0.00  0.00    +0.000 A 
ATOM      5  C   UNL     1       7.131   0.111   2.331  0.00  0.00    +0.000 A 
ATOM      6  C   UNL     1       6.501  -0.748   1.447  0.00  0.00    +0.000 A 
ATOM      7  N   UNL     1       5.190  -0.667   1.102  0.00  0.00    +0.000 NA
ENDROOT
BRANCH   5   8
ATOM      8  C   UNL     1       8.564   0.025   2.691  0.00  0.00    +0.000 C 
ATOM      9  N   UNL     1       9.352  -0.905   2.076  0.00  0.00    +0.000 N 
ATOM     10  O   UNL     1       9.058   0.777   3.526  0.00  0.00    +0.000 OA
ATOM     11  H   UNL     1       9.073  -1.532   1.339  0.00  0.00    +0.000 HD
ATOM     12  H   UNL     1      10.332  -0.905   2.338  0.00  0.00    +0.000 HD
ENDBRANCH   5   8
BRANCH   1  14
ATOM     13  C   UNL     1       3.561   0.457  -1.218  0.00  0.00    +0.000 C 
ATOM     14  C   UNL     1       2.755  -0.104  -0.046  0.00  0.00    +0.000 C 
ENDBRANCH   1  14
BRANCH   1  15
ATOM     15  C   UNL     1       2.209   0.103   2.363  0.00  0.00    +0.000 C 
BRANCH  15  16
ATOM     16  C   UNL     1       1.028   1.039   2.545  0.00  0.00    +0.000 A 
ATOM     17  C   UNL     1      -0.133   0.562   3.178  0.00  0.00    +0.000 A 
ATOM     18  C   UNL     1      -1.230   1.401   3.389  0.00  0.00    +0.000 A 
ATOM     19  C   UNL     1      -1.175   2.733   2.985  0.00  0.00    +0.000 A 
ATOM     20  C   UNL     1      -0.017   3.231   2.394  0.00  0.00    +0.000 A 
ATOM     21  C   UNL     1       1.081   2.393   2.184  0.00  0.00    +0.000 A 
ENDBRANCH  15  16
ENDBRANCH   1  15
TORSDOF 4
