REMARK  Name = 
REMARK  5 active torsions:
REMARK  status: ('A' for Active; 'I' for Inactive)
REMARK    1  A    between atoms: N_1  and  C_2
REMARK    2  A    between atoms: C_2  and  C_3
REMARK    3  A    between atoms: C_5  and  C_6
REMARK    4  A    between atoms: C_6  and  N_7
REMARK    5  A    between atoms: C_12  and  C_13
REMARK                            x       y       z     vdW  Elec       q    Type
REMARK                         _______ _______ _______ _____ _____    ______ ____
ROOT
ATOM      1  N   UNL     1       2.744  -2.463  -4.611  0.00  0.00    +0.000 N 
ATOM      2  C   UNL     1       2.303  -3.335  -5.577  0.00  0.00    +0.000 A 
ATOM      3  C   UNL     1       1.860  -2.594  -6.648  0.00  0.00    +0.000 A 
ATOM      4  C   UNL     1       2.036  -1.221  -6.331  0.00  0.00    +0.000 A 
ATOM      5  C   UNL     1       1.722  -0.018  -7.007  0.00  0.00    +0.000 A 
ATOM      6  C   UNL     1       2.025   1.218  -6.412  0.00  0.00    +0.000 A 
ATOM      7  C   UNL     1       2.703   1.240  -5.191  0.00  0.00    +0.000 A 
ATOM      8  C   UNL     1       3.064   0.061  -4.530  0.00  0.00    +0.000 A 
ATOM      9  C   UNL     1       2.667  -1.164  -5.086  0.00  0.00    +0.000 A 
ENDROOT
BRANCH   6  10
ATOM     10  C   UNL     1       1.653   2.530  -7.010  0.00  0.00    +0.000 C 
ATOM     11  N   UNL     1       1.005   2.546  -8.216  0.00  0.00    +0.000 N 
ATOM     12  O   UNL     1       1.907   3.592  -6.447  0.00  0.00    +0.000 OA
ATOM     13  H   UNL     1       0.790   1.734  -8.771  0.00  0.00    +0.000 HD
ATOM     14  H   UNL     1       0.774   3.455  -8.595  0.00  0.00    +0.000 HD
ENDBRANCH   6  10
BRANCH   1  15
ATOM     15  C   UNL     1       3.230  -2.884  -3.302  0.00  0.00    +0.000 C 
BRANCH  15  18
ATOM     16  C   UNL     1       2.451  -0.963  -1.070  0.00  0.00    +0.000 C 
ATOM     17  C   UNL     1       1.409  -1.701  -1.893  0.00  0.00    +0.000 C 
ATOM     18  C   UNL     1       2.140  -2.996  -2.209  0.00  0.00    +0.000 C 
ATOM     19  C   UNL     1       2.775  -3.259  -0.842  0.00  0.00    +0.000 C 
ATOM     20  O   UNL     1       3.072  -1.975  -0.250  0.00  0.00    +0.000 OA
BRANCH  16  21
ATOM     21  C   UNL     1       1.950   0.243  -0.269  0.00  0.00    +0.000 C 
BRANCH  21  22
ATOM     22  N   UNL     1       0.954  -0.094   0.747  0.00  0.00    +0.000 NA
ATOM     23  H   UNL     1       0.769   0.735   1.311  0.00  0.00    +0.000 HD
ATOM     24  H   UNL     1       1.374  -0.780   1.376  0.00  0.00    +0.000 HD
ENDBRANCH  21  22
ENDBRANCH  16  21
ENDBRANCH  15  18
ENDBRANCH   1  15
TORSDOF 5
