REMARK  Name = 
REMARK  7 active torsions:
REMARK  status: ('A' for Active; 'I' for Inactive)
REMARK    1  A    between atoms: C_2  and  C_3
REMARK    2  A    between atoms: C_5  and  C_6
REMARK    3  A    between atoms: C_6  and  N_7
REMARK    4  A    between atoms: C_8  and  C_10
REMARK    5  A    between atoms: C_22  and  C_23
REMARK    6  A    between atoms: C_23  and  N_24
REMARK    7  A    between atoms: C_25  and  C_27
REMARK                            x       y       z     vdW  Elec       q    Type
REMARK                         _______ _______ _______ _____ _____    ______ ____
ROOT
ATOM      1  C   UNL     1      -0.550  -0.097  -0.010  0.00  0.00    +0.000 A 
ATOM      2  C   UNL     1       0.185  -1.298   0.028  0.00  0.00    +0.000 A 
ATOM      3  C   UNL     1       1.586  -1.292   0.067  0.00  0.00    +0.000 A 
ATOM      4  C   UNL     1       2.245  -0.058   0.040  0.00  0.00    +0.000 A 
ATOM      5  C   UNL     1       1.523   1.140  -0.000  0.00  0.00    +0.000 A 
ATOM      6  C   UNL     1       0.117   1.143  -0.014  0.00  0.00    +0.000 A 
ENDROOT
BRANCH   1   8
ATOM      7  N   UNL     1      -3.140  -0.283  -0.055  0.00  0.00    +0.000 NA
ATOM      8  C   UNL     1      -1.985  -0.193  -0.036  0.00  0.00    +0.000 C 
ENDBRANCH   1   8
BRANCH   3   9
ATOM      9  C   UNL     1       2.365  -2.588   0.078  0.00  0.00    +0.000 C 
BRANCH   9  10
ATOM     10  N   UNL     1       2.630  -3.040  -1.264  0.00  0.00    +0.000 N 
ATOM     11  C   UNL     1       3.234  -4.247  -1.524  0.00  0.00    +0.000 C 
ATOM     12  O   UNL     1       3.549  -5.023  -0.631  0.00  0.00    +0.000 OA
ATOM     13  H   UNL     1       2.627  -2.331  -1.990  0.00  0.00    +0.000 HD
BRANCH  11  14
ATOM     14  C   UNL     1       3.424  -4.583  -2.944  0.00  0.00    +0.000 A 
ATOM     15  C   UNL     1       3.528  -5.911  -3.334  0.00  0.00    +0.000 A 
ATOM     16  S   UNL     1       3.704  -6.118  -5.020  0.00  0.00    +0.000 S 
ATOM     17  C   UNL     1       3.697  -4.436  -5.281  0.00  0.00    +0.000 A 
ATOM     18  N   UNL     1       3.843  -3.919  -6.532  0.00  0.00    +0.000 NA
ATOM     19  C   UNL     1       3.839  -2.629  -6.582  0.00  0.00    +0.000 A 
ATOM     20  N   UNL     1       3.692  -1.809  -5.494  0.00  0.00    +0.000 N 
ATOM     21  C   UNL     1       3.511  -2.283  -4.219  0.00  0.00    +0.000 A 
ATOM     22  O   UNL     1       3.329  -1.520  -3.278  0.00  0.00    +0.000 OA
ATOM     23  C   UNL     1       3.531  -3.729  -4.104  0.00  0.00    +0.000 A 
ATOM     24  H   UNL     1       3.680  -0.805  -5.602  0.00  0.00    +0.000 HD
ENDBRANCH  11  14
ENDBRANCH   9  10
ENDBRANCH   3   9
BRANCH   6  25
ATOM     25  C   UNL     1      -0.599   2.475  -0.053  0.00  0.00    +0.000 C 
BRANCH  25  26
ATOM     26  N   UNL     1      -0.875   2.901  -1.405  0.00  0.00    +0.000 N 
ATOM     27  C   UNL     1      -0.098   3.795  -2.105  0.00  0.00    +0.000 C 
ATOM     28  O   UNL     1       0.942   4.271  -1.657  0.00  0.00    +0.000 OA
ATOM     29  H   UNL     1      -1.689   2.516  -1.855  0.00  0.00    +0.000 HD
BRANCH  27  30
ATOM     30  C   UNL     1      -0.610   4.127  -3.422  0.00  0.00    +0.000 A 
ATOM     31  C   UNL     1      -1.789   3.778  -4.064  0.00  0.00    +0.000 A 
ATOM     32  C   UNL     1      -1.788   4.358  -5.355  0.00  0.00    +0.000 A 
ATOM     33  C   UNL     1      -0.616   5.065  -5.480  0.00  0.00    +0.000 A 
ATOM     34  N   UNL     1       0.079   4.939  -4.305  0.00  0.00    +0.000 N 
ATOM     35  H   UNL     1       0.975   5.367  -4.099  0.00  0.00    +0.000 HD
ENDBRANCH  27  30
ENDBRANCH  25  26
ENDBRANCH   6  25
TORSDOF 7
