REMARK  Name = 
REMARK  7 active torsions:
REMARK  status: ('A' for Active; 'I' for Inactive)
REMARK    1  A    between atoms: C_1  and  C_2
REMARK    2  A    between atoms: C_2  and  N_3
REMARK    3  A    between atoms: C_2  and  C_16
REMARK    4  A    between atoms: C_4  and  C_6
REMARK    5  A    between atoms: C_19  and  C_20
REMARK    6  A    between atoms: C_20  and  N_21
REMARK    7  A    between atoms: C_22  and  C_24
REMARK                            x       y       z     vdW  Elec       q    Type
REMARK                         _______ _______ _______ _____ _____    ______ ____
ROOT
ATOM      1  C   UNL     1       0.927   0.119   0.015  0.00  0.00    +0.000 C 
ATOM      2  C   UNL     1       2.455   0.027   0.152  0.00  0.00    +0.000 C 
ENDROOT
BRANCH   2   3
ATOM      3  C   UNL     1       3.000  -1.038  -0.794  0.00  0.00    +0.000 A 
ATOM      4  C   UNL     1       3.921  -0.705  -1.797  0.00  0.00    +0.000 A 
ATOM      5  C   UNL     1       4.360  -1.669  -2.717  0.00  0.00    +0.000 A 
ATOM      6  C   UNL     1       3.884  -2.985  -2.658  0.00  0.00    +0.000 A 
ATOM      7  C   UNL     1       3.007  -3.331  -1.623  0.00  0.00    +0.000 A 
ATOM      8  C   UNL     1       2.573  -2.372  -0.704  0.00  0.00    +0.000 A 
BRANCH   6   9
ATOM      9  C   UNL     1       4.250  -4.006  -3.704  0.00  0.00    +0.000 C 
BRANCH   9  10
ATOM     10  N   UNL     1       5.390  -4.812  -3.350  0.00  0.00    +0.000 N 
ATOM     11  C   UNL     1       5.857  -5.787  -4.204  0.00  0.00    +0.000 C 
ATOM     12  O   UNL     1       5.296  -6.082  -5.259  0.00  0.00    +0.000 OA
ATOM     13  H   UNL     1       5.962  -4.600  -2.537  0.00  0.00    +0.000 HD
BRANCH  11  14
ATOM     14  C   UNL     1       7.099  -6.538  -3.710  0.00  0.00    +0.000 C 
ATOM     15  C   UNL     1       6.748  -7.737  -2.852  0.00  0.00    +0.000 C 
ATOM     16  C   UNL     1       8.048  -8.011  -2.120  0.00  0.00    +0.000 C 
ATOM     17  C   UNL     1       8.707  -6.645  -1.983  0.00  0.00    +0.000 C 
ATOM     18  N   UNL     1       7.911  -5.709  -2.784  0.00  0.00    +0.000 NA
ATOM     19  H   UNL     1       8.521  -5.098  -3.328  0.00  0.00    +0.000 HD
ENDBRANCH  11  14
ENDBRANCH   9  10
ENDBRANCH   6   9
ENDBRANCH   2   3
BRANCH   2  20
ATOM     20  N   UNL     1       2.871  -0.258   1.516  0.00  0.00    +0.000 N 
ATOM     21  C   UNL     1       2.576   0.579   2.565  0.00  0.00    +0.000 C 
ATOM     22  O   UNL     1       1.911   1.602   2.433  0.00  0.00    +0.000 OA
ATOM     23  H   UNL     1       3.668  -0.879   1.617  0.00  0.00    +0.000 HD
BRANCH  21  24
ATOM     24  C   UNL     1       3.042   0.158   3.889  0.00  0.00    +0.000 A 
ATOM     25  C   UNL     1       2.326   0.527   5.020  0.00  0.00    +0.000 A 
ATOM     26  S   UNL     1       3.018  -0.028   6.476  0.00  0.00    +0.000 S 
ATOM     27  C   UNL     1       4.318  -0.747   5.646  0.00  0.00    +0.000 A 
ATOM     28  N   UNL     1       5.326  -1.364   6.320  0.00  0.00    +0.000 NA
ATOM     29  C   UNL     1       6.261  -1.834   5.563  0.00  0.00    +0.000 A 
ATOM     30  N   UNL     1       6.271  -1.762   4.193  0.00  0.00    +0.000 N 
ATOM     31  C   UNL     1       5.254  -1.188   3.470  0.00  0.00    +0.000 A 
ATOM     32  O   UNL     1       5.251  -1.204   2.242  0.00  0.00    +0.000 OA
ATOM     33  C   UNL     1       4.201  -0.604   4.275  0.00  0.00    +0.000 A 
ATOM     34  H   UNL     1       7.019  -2.175   3.658  0.00  0.00    +0.000 HD
ENDBRANCH  21  24
ENDBRANCH   2  20
TORSDOF 6
