REMARK  Name = 
REMARK  8 active torsions:
REMARK  status: ('A' for Active; 'I' for Inactive)
REMARK    1  A    between atoms: C_1  and  C_2
REMARK    2  A    between atoms: C_2  and  N_3
REMARK    3  A    between atoms: C_2  and  C_18
REMARK    4  A    between atoms: N_3  and  C_4
REMARK    5  A    between atoms: C_7  and  C_8
REMARK    6  A    between atoms: C_8  and  O_9
REMARK    7  A    between atoms: O_9  and  C_10
REMARK    8  A    between atoms: C_18  and  C_20
REMARK                            x       y       z     vdW  Elec       q    Type
REMARK                         _______ _______ _______ _____ _____    ______ ____
ROOT
ATOM      1  N   UNL     1       2.895  -0.259   1.491  0.00  0.00    +0.000 N 
ATOM      2  H   UNL     1       3.647  -0.911   1.729  0.00  0.00    +0.000 HD
ENDROOT
BRANCH   1   3
ATOM      3  C   UNL     1       2.601   0.687   2.447  0.00  0.00    +0.000 A 
ATOM      4  C   UNL     1       2.645   0.296   3.793  0.00  0.00    +0.000 A 
ATOM      5  C   UNL     1       2.290   1.172   4.824  0.00  0.00    +0.000 A 
ATOM      6  C   UNL     1       1.874   2.472   4.528  0.00  0.00    +0.000 A 
ATOM      7  C   UNL     1       1.835   2.875   3.189  0.00  0.00    +0.000 A 
ATOM      8  C   UNL     1       2.171   1.983   2.164  0.00  0.00    +0.000 A 
BRANCH   6   9
ATOM      9  C   UNL     1       1.504   3.435   5.626  0.00  0.00    +0.000 C 
BRANCH   9  10
ATOM     10  O   UNL     1       2.693   4.073   6.074  0.00  0.00    +0.000 OA
BRANCH  10  11
ATOM     11  C   UNL     1       2.440   4.908   7.138  0.00  0.00    +0.000 A 
ATOM     12  N   UNL     1       3.487   5.140   7.939  0.00  0.00    +0.000 NA
ATOM     13  C   UNL     1       3.255   5.965   8.978  0.00  0.00    +0.000 A 
ATOM     14  C   UNL     1       2.047   6.570   9.222  0.00  0.00    +0.000 A 
ATOM     15  C   UNL     1       1.049   6.272   8.326  0.00  0.00    +0.000 A 
ATOM     16  N   UNL     1       1.215   5.444   7.279  0.00  0.00    +0.000 NA
ENDBRANCH  10  11
ENDBRANCH   9  10
ENDBRANCH   6   9
ENDBRANCH   1   3
BRANCH   1  18
ATOM     17  C   UNL     1       1.388  -1.079  -0.196  0.00  0.00    +0.000 C 
ATOM     18  C   UNL     1       2.606  -0.188   0.055  0.00  0.00    +0.000 C 
BRANCH  18  19
ATOM     19  C   UNL     1       3.824  -0.713  -0.732  0.00  0.00    +0.000 C 
ATOM     20  O   UNL     1       4.627  -1.475  -0.187  0.00  0.00    +0.000 OA
BRANCH  19  21
ATOM     21  C   UNL     1       3.984  -0.375  -2.155  0.00  0.00    +0.000 A 
ATOM     22  C   UNL     1       2.957  -0.041  -3.022  0.00  0.00    +0.000 A 
ATOM     23  S   UNL     1       3.444  -0.068  -4.666  0.00  0.00    +0.000 S 
ATOM     24  C   UNL     1       5.060  -0.393  -4.240  0.00  0.00    +0.000 A 
ATOM     25  N   UNL     1       6.022  -0.591  -5.179  0.00  0.00    +0.000 NA
ATOM     26  C   UNL     1       7.207  -0.768  -4.690  0.00  0.00    +0.000 A 
ATOM     27  N   UNL     1       7.520  -0.732  -3.353  0.00  0.00    +0.000 N 
ATOM     28  C   UNL     1       6.593  -0.455  -2.376  0.00  0.00    +0.000 A 
ATOM     29  O   UNL     1       6.933  -0.171  -1.232  0.00  0.00    +0.000 OA
ATOM     30  C   UNL     1       5.231  -0.394  -2.871  0.00  0.00    +0.000 A 
ATOM     31  H   UNL     1       8.481  -0.755  -3.047  0.00  0.00    +0.000 HD
ENDBRANCH  19  21
ENDBRANCH  18  19
ENDBRANCH   1  18
TORSDOF 7
