REMARK  Name = 
REMARK  7 active torsions:
REMARK  status: ('A' for Active; 'I' for Inactive)
REMARK    1  A    between atoms: C_1  and  O_2
REMARK    2  A    between atoms: O_2  and  C_3
REMARK    3  A    between atoms: C_5  and  C_6
REMARK    4  A    between atoms: C_6  and  N_7
REMARK    5  A    between atoms: C_8  and  C_10
REMARK    6  A    between atoms: C_22  and  C_23
REMARK    7  A    between atoms: C_23  and  N_24
REMARK                            x       y       z     vdW  Elec       q    Type
REMARK                         _______ _______ _______ _____ _____    ______ ____
ROOT
ATOM      1  C   UNL     1       3.198  -3.824   3.552  0.00  0.00    +0.000 C 
ENDROOT
BRANCH   1   4
ATOM      2  C   UNL     1       3.103  -0.756   1.251  0.00  0.00    +0.000 A 
ATOM      3  C   UNL     1       2.739  -1.946   1.909  0.00  0.00    +0.000 A 
ATOM      4  C   UNL     1       3.558  -2.515   2.896  0.00  0.00    +0.000 A 
ATOM      5  C   UNL     1       4.729  -1.840   3.248  0.00  0.00    +0.000 A 
ATOM      6  C   UNL     1       5.064  -0.628   2.633  0.00  0.00    +0.000 A 
ATOM      7  C   UNL     1       4.250  -0.044   1.640  0.00  0.00    +0.000 A 
BRANCH   2   9
ATOM      8  C   UNL     1       2.837  -0.304  -1.029  0.00  0.00    +0.000 C 
ATOM      9  O   UNL     1       2.237  -0.352   0.267  0.00  0.00    +0.000 OA
ENDBRANCH   2   9
BRANCH   7  10
ATOM     10  C   UNL     1       4.676   1.303   1.080  0.00  0.00    +0.000 C 
BRANCH  10  11
ATOM     11  N   UNL     1       4.181   2.541   1.701  0.00  0.00    +0.000 NA
ATOM     12  C   UNL     1       4.500   2.713   3.116  0.00  0.00    +0.000 C 
ATOM     13  C   UNL     1       3.275   2.209   3.852  0.00  0.00    +0.000 C 
ATOM     14  C   UNL     1       2.132   2.648   2.956  0.00  0.00    +0.000 C 
ATOM     15  C   UNL     1       2.743   2.783   1.564  0.00  0.00    +0.000 C 
ENDBRANCH  10  11
ENDBRANCH   7  10
ENDBRANCH   1   4
BRANCH   1  16
ATOM     16  N   UNL     1       2.469  -3.652   4.785  0.00  0.00    +0.000 N 
ATOM     17  C   UNL     1       2.054  -4.738   5.516  0.00  0.00    +0.000 C 
ATOM     18  O   UNL     1       2.274  -5.886   5.132  0.00  0.00    +0.000 OA
ATOM     19  H   UNL     1       2.306  -2.704   5.112  0.00  0.00    +0.000 HD
BRANCH  17  20
ATOM     20  C   UNL     1       1.334  -4.487   6.778  0.00  0.00    +0.000 A 
ATOM     21  C   UNL     1       0.859  -5.569   7.512  0.00  0.00    +0.000 A 
ATOM     22  S   UNL     1       0.049  -5.134   8.946  0.00  0.00    +0.000 S 
ATOM     23  C   UNL     1       0.300  -3.480   8.648  0.00  0.00    +0.000 A 
ATOM     24  N   UNL     1      -0.158  -2.542   9.521  0.00  0.00    +0.000 NA
ATOM     25  C   UNL     1       0.096  -1.324   9.179  0.00  0.00    +0.000 A 
ATOM     26  N   UNL     1       0.766  -0.961   8.043  0.00  0.00    +0.000 N 
ATOM     27  C   UNL     1       1.251  -1.872   7.133  0.00  0.00    +0.000 A 
ATOM     28  O   UNL     1       1.854  -1.502   6.134  0.00  0.00    +0.000 OA
ATOM     29  C   UNL     1       0.992  -3.261   7.467  0.00  0.00    +0.000 A 
ATOM     30  H   UNL     1       0.937   0.010   7.831  0.00  0.00    +0.000 HD
ENDBRANCH  17  20
ENDBRANCH   1  16
TORSDOF 6
