REMARK  Name = 
REMARK  8 active torsions:
REMARK  status: ('A' for Active; 'I' for Inactive)
REMARK    1  A    between atoms: C_1  and  O_2
REMARK    2  A    between atoms: O_2  and  C_3
REMARK    3  A    between atoms: C_10  and  C_11
REMARK    4  A    between atoms: N_13  and  C_14
REMARK    5  A    between atoms: C_14  and  C_15
REMARK    6  A    between atoms: C_18  and  N_19
REMARK    7  A    between atoms: N_19  and  C_20
REMARK    8  A    between atoms: C_20  and  C_21
REMARK                            x       y       z     vdW  Elec       q    Type
REMARK                         _______ _______ _______ _____ _____    ______ ____
ROOT
ATOM      1  C   UNL     1       2.568   3.085  -1.474  0.00  0.00    +0.000 C 
ENDROOT
BRANCH   1   2
ATOM      2  C   UNL     1       1.359   2.461  -2.123  0.00  0.00    +0.000 A 
ATOM      3  C   UNL     1       1.330   1.091  -2.406  0.00  0.00    +0.000 A 
ATOM      4  C   UNL     1       0.169   0.490  -2.908  0.00  0.00    +0.000 A 
ATOM      5  C   UNL     1      -0.992   1.235  -3.131  0.00  0.00    +0.000 A 
ATOM      6  C   UNL     1      -0.915   2.623  -2.969  0.00  0.00    +0.000 A 
ATOM      7  C   UNL     1       0.241   3.231  -2.461  0.00  0.00    +0.000 A 
BRANCH   5   8
ATOM      8  N   UNL     1      -2.211   0.677  -3.510  0.00  0.00    +0.000 N 
ATOM      9  H   UNL     1      -2.486   0.915  -4.458  0.00  0.00    +0.000 HD
BRANCH   8  10
ATOM     10  C   UNL     1      -2.574  -0.671  -3.079  0.00  0.00    +0.000 C 
BRANCH  10  11
ATOM     11  C   UNL     1      -3.862  -0.628  -2.226  0.00  0.00    +0.000 C 
ATOM     12  C   UNL     1      -3.735   0.286  -0.992  0.00  0.00    +0.000 C 
ATOM     13  C   UNL     1      -2.797  -0.301   0.060  0.00  0.00    +0.000 C 
ATOM     14  N   UNL     1      -3.244  -1.630   0.489  0.00  0.00    +0.000 NA
ATOM     15  C   UNL     1      -3.327  -2.558  -0.639  0.00  0.00    +0.000 C 
ATOM     16  C   UNL     1      -4.250  -2.040  -1.747  0.00  0.00    +0.000 C 
ATOM     17  H   UNL     1      -4.168  -1.540   0.913  0.00  0.00    +0.000 HD
ENDBRANCH  10  11
ENDBRANCH   8  10
ENDBRANCH   5   8
ENDBRANCH   1   2
BRANCH   1  20
ATOM     18  C   UNL     1       4.705   4.132  -2.114  0.00  0.00    +0.000 C 
ATOM     19  O   UNL     1       5.050   4.246  -0.940  0.00  0.00    +0.000 OA
ATOM     20  N   UNL     1       3.502   3.575  -2.452  0.00  0.00    +0.000 N 
ATOM     21  H   UNL     1       3.212   3.544  -3.418  0.00  0.00    +0.000 HD
BRANCH  18  29
ATOM     22  C   UNL     1       4.419   3.990  -5.532  0.00  0.00    +0.000 A 
ATOM     23  N   UNL     1       4.559   4.061  -6.871  0.00  0.00    +0.000 NA
ATOM     24  C   UNL     1       5.669   4.627  -7.354  0.00  0.00    +0.000 A 
ATOM     25  N   UNL     1       6.676   5.144  -6.657  0.00  0.00    +0.000 NA
ATOM     26  C   UNL     1       6.494   5.058  -5.327  0.00  0.00    +0.000 A 
ATOM     27  S   UNL     1       7.680   5.665  -4.275  0.00  0.00    +0.000 S 
ATOM     28  C   UNL     1       6.778   5.205  -2.911  0.00  0.00    +0.000 A 
ATOM     29  C   UNL     1       5.567   4.589  -3.217  0.00  0.00    +0.000 A 
ATOM     30  C   UNL     1       5.403   4.504  -4.668  0.00  0.00    +0.000 A 
BRANCH  22  32
ATOM     31  C   UNL     1       2.618   2.540  -5.920  0.00  0.00    +0.000 C 
ATOM     32  O   UNL     1       3.259   3.447  -5.029  0.00  0.00    +0.000 OA
ENDBRANCH  22  32
ENDBRANCH  18  29
ENDBRANCH   1  20
TORSDOF 7
