REMARK  Name = 
REMARK  10 active torsions:
REMARK  status: ('A' for Active; 'I' for Inactive)
REMARK    1  A    between atoms: C_2  and  C_23
REMARK    2  A    between atoms: N_3  and  C_4
REMARK    3  A    between atoms: C_4  and  C_5
REMARK    4  A    between atoms: C_8  and  C_9
REMARK    5  A    between atoms: C_9  and  N_10
REMARK    6  A    between atoms: N_10  and  CA_11
REMARK    7  A    between atoms: CA_11  and  C_12
REMARK    8  A    between atoms: CA_11  and  CB_14
REMARK    9  A    between atoms: C_12  and  O_13
REMARK   10  A    between atoms: CB_14  and  CG_15
REMARK                            x       y       z     vdW  Elec       q    Type
REMARK                         _______ _______ _______ _____ _____    ______ ____
ROOT
ATOM      1  C   UNL     1      10.356  -9.476   0.166  0.00  0.00    +0.000 A 
ATOM      2  C   UNL     1       9.406  -9.878   1.106  0.00  0.00    +0.000 A 
ATOM      3  C   UNL     1       8.941  -8.968   2.051  0.00  0.00    +0.000 A 
ATOM      4  C   UNL     1       9.427  -7.663   2.027  0.00  0.00    +0.000 A 
ATOM      5  N   UNL     1      10.323  -7.238   1.099  0.00  0.00    +0.000 NA
ATOM      6  C   UNL     1      10.759  -8.147   0.196  0.00  0.00    +0.000 A 
ENDROOT
BRANCH   1   7
ATOM      7  C   UNL     1      10.905 -10.439  -0.845  0.00  0.00    +0.000 C 
BRANCH   7  10
ATOM      8  O   UNL     1       8.867 -12.315  -1.358  0.00  0.00    +0.000 OA
ATOM      9  C   UNL     1       9.070 -11.421  -2.171  0.00  0.00    +0.000 C 
ATOM     10  N   UNL     1      10.077 -10.503  -2.021  0.00  0.00    +0.000 N 
ATOM     11  H   UNL     1      10.104  -9.695  -2.634  0.00  0.00    +0.000 HD
BRANCH   9  12
ATOM     12  C   UNL     1       8.261 -11.294  -3.389  0.00  0.00    +0.000 A 
ATOM     13  C   UNL     1       7.600 -12.401  -3.902  0.00  0.00    +0.000 A 
ATOM     14  S   UNL     1       6.675 -12.059  -5.294  0.00  0.00    +0.000 S 
ATOM     15  C   UNL     1       7.095 -10.408  -5.235  0.00  0.00    +0.000 A 
ATOM     16  N   UNL     1       6.583  -9.521  -6.130  0.00  0.00    +0.000 NA
ATOM     17  C   UNL     1       6.955  -8.299  -5.939  0.00  0.00    +0.000 A 
ATOM     18  N   UNL     1       7.805  -7.886  -4.950  0.00  0.00    +0.000 N 
ATOM     19  C   UNL     1       8.414  -8.758  -4.079  0.00  0.00    +0.000 A 
ATOM     20  O   UNL     1       9.286  -8.377  -3.306  0.00  0.00    +0.000 OA
ATOM     21  C   UNL     1       7.972 -10.135  -4.201  0.00  0.00    +0.000 A 
ATOM     22  H   UNL     1       8.098  -6.922  -4.885  0.00  0.00    +0.000 HD
ENDBRANCH   9  12
ENDBRANCH   7  10
ENDBRANCH   1   7
BRANCH   4  23
ATOM     23  C   ACE A   0       8.948  -6.652   3.051  0.00  0.00    +0.000 C 
BRANCH  23  24
ATOM     24  N   UNL     1       8.262  -5.476   2.494  0.00  0.00    +0.000 NA
ATOM     25  H   UNL     1       8.928  -5.001   1.872  0.00  0.00    +0.000 HD
BRANCH  24  26
ATOM     26  CA  UNL     1       7.064  -5.780   1.678  0.00  0.00    +0.000 C 
BRANCH  26  27
ATOM     27  C   UNL     1       6.593  -4.469   0.998  0.00  0.00    +0.000 C 
BRANCH  27  28
ATOM     28  O   UNL     1       7.649  -3.863   0.245  0.00  0.00    +0.000 OA
ATOM     29  H   UNL     1       7.623  -4.244  -0.648  0.00  0.00    +0.000 HD
ENDBRANCH  27  28
ENDBRANCH  26  27
BRANCH  26  30
ATOM     30  CB  UNL     1       5.922  -6.392   2.523  0.00  0.00    +0.000 C 
BRANCH  30  31
ATOM     31  CG  UNL     1       4.738  -6.882   1.718  0.00  0.00    +0.000 A 
ATOM     32  CD1 UNL     1       4.899  -7.861   0.726  0.00  0.00    +0.000 A 
ATOM     33  CE1 UNL     1       3.800  -8.327   0.004  0.00  0.00    +0.000 A 
ATOM     34  CZ  UNL     1       2.527  -7.830   0.274  0.00  0.00    +0.000 A 
ATOM     35  CE2 UNL     1       2.351  -6.872   1.269  0.00  0.00    +0.000 A 
ATOM     36  CD2 UNL     1       3.449  -6.402   1.991  0.00  0.00    +0.000 A 
ENDBRANCH  30  31
ENDBRANCH  26  30
ENDBRANCH  24  26
ENDBRANCH  23  24
ENDBRANCH   4  23
TORSDOF 10
