REMARK  Name = 
REMARK  6 active torsions:
REMARK  status: ('A' for Active; 'I' for Inactive)
REMARK    1  A    between atoms: C_1  and  O_2
REMARK    2  A    between atoms: O_2  and  C_3
REMARK    3  A    between atoms: C_5  and  C_6
REMARK    4  A    between atoms: C_6  and  N_7
REMARK    5  A    between atoms: C_11  and  C_12
REMARK    6  A    between atoms: C_19  and  C_20
REMARK                            x       y       z     vdW  Elec       q    Type
REMARK                         _______ _______ _______ _____ _____    ______ ____
ROOT
ATOM      1  N   UNL     1       2.175   4.504   2.162  0.00  0.00    +0.000 N 
ATOM      2  C   UNL     1       1.731   5.600   2.884  0.00  0.00    +0.000 A 
ATOM      3  C   UNL     1       1.213   6.767   2.308  0.00  0.00    +0.000 A 
ATOM      4  N   UNL     1       0.753   7.832   3.014  0.00  0.00    +0.000 NA
ATOM      5  C   UNL     1       0.794   7.668   4.363  0.00  0.00    +0.000 A 
ATOM      6  C   UNL     1       1.277   6.513   4.955  0.00  0.00    +0.000 A 
ATOM      7  N   UNL     1       1.760   5.468   4.227  0.00  0.00    +0.000 NA
ATOM      8  H   UNL     1       2.664   3.884   2.806  0.00  0.00    +0.000 HD
ENDROOT
BRANCH   5   9
ATOM      9  C   UNL     1       0.301   8.796   5.201  0.00  0.00    +0.000 C 
ATOM     10  N   UNL     1      -0.103   9.908   4.513  0.00  0.00    +0.000 N 
ATOM     11  O   UNL     1       0.265   8.737   6.423  0.00  0.00    +0.000 OA
ATOM     12  H   UNL     1      -0.057   9.919   3.500  0.00  0.00    +0.000 HD
ATOM     13  H   UNL     1      -0.445  10.712   5.018  0.00  0.00    +0.000 HD
ENDBRANCH   5   9
BRANCH   1  14
ATOM     14  C   UNL     1       2.845   4.730   0.893  0.00  0.00    +0.000 C 
BRANCH  14  17
ATOM     15  C   UNL     1       3.030   1.065  -0.243  0.00  0.00    +0.000 A 
ATOM     16  C   UNL     1       2.615   2.229   0.415  0.00  0.00    +0.000 A 
ATOM     17  C   UNL     1       3.310   3.440   0.253  0.00  0.00    +0.000 A 
ATOM     18  C   UNL     1       4.412   3.470  -0.613  0.00  0.00    +0.000 A 
ATOM     19  C   UNL     1       4.833   2.313  -1.269  0.00  0.00    +0.000 A 
ATOM     20  C   UNL     1       4.155   1.102  -1.083  0.00  0.00    +0.000 A 
ATOM     21  C   UNL     1       4.626  -0.134  -1.797  0.00  0.00    +0.000 C 
BRANCH  15  23
ATOM     22  C   UNL     1       1.048  -0.142   0.257  0.00  0.00    +0.000 C 
ATOM     23  O   UNL     1       2.426  -0.158  -0.098  0.00  0.00    +0.000 OA
ENDBRANCH  15  23
ENDBRANCH  14  17
ENDBRANCH   1  14
TORSDOF 4
