REMARK  Name = 
REMARK  5 active torsions:
REMARK  status: ('A' for Active; 'I' for Inactive)
REMARK    1  A    between atoms: C_2  and  C_4
REMARK    2  A    between atoms: C_7  and  O_8
REMARK    3  A    between atoms: O_8  and  C_9
REMARK    4  A    between atoms: C_9  and  C_10
REMARK    5  A    between atoms: C_15  and  C_16
REMARK                            x       y       z     vdW  Elec       q    Type
REMARK                         _______ _______ _______ _____ _____    ______ ____
ROOT
ATOM      1  C   UNL     1       5.151  -4.988   5.515  0.00  0.00    +0.000 A 
ATOM      2  C   UNL     1       5.856  -4.174   6.406  0.00  0.00    +0.000 A 
ATOM      3  C   UNL     1       6.486  -4.741   7.506  0.00  0.00    +0.000 A 
ATOM      4  F   UNL     1       7.161  -3.956   8.356  0.00  0.00    +0.000 F 
ATOM      5  C   UNL     1       6.438  -6.110   7.740  0.00  0.00    +0.000 A 
ATOM      6  C   UNL     1       5.753  -6.970   6.862  0.00  0.00    +0.000 A 
ATOM      7  C   UNL     1       5.097  -6.376   5.762  0.00  0.00    +0.000 A 
ENDROOT
BRANCH   6   8
ATOM      8  C   UNL     1       5.735  -8.437   7.070  0.00  0.00    +0.000 A 
ATOM      9  C   UNL     1       6.769  -9.109   7.697  0.00  0.00    +0.000 A 
ATOM     10  C   UNL     1       6.626 -10.468   7.825  0.00  0.00    +0.000 A 
ATOM     11  N   UNL     1       5.564 -11.145   7.364  0.00  0.00    +0.000 NA
ATOM     12  C   UNL     1       4.630 -10.426   6.738  0.00  0.00    +0.000 A 
ATOM     13  N   UNL     1       3.548 -11.112   6.230  0.00  0.00    +0.000 N 
ATOM     14  N   UNL     1       4.657  -9.097   6.589  0.00  0.00    +0.000 NA
ATOM     15  H   UNL     1       3.443 -11.991   6.716  0.00  0.00    +0.000 HD
ATOM     16  H   UNL     1       2.742 -10.506   6.176  0.00  0.00    +0.000 HD
ENDBRANCH   6   8
BRANCH   1  17
ATOM     17  C   UNL     1       4.434  -4.383   4.328  0.00  0.00    +0.000 C 
BRANCH  17  18
ATOM     18  O   UNL     1       3.106  -4.060   4.736  0.00  0.00    +0.000 OA
BRANCH  18  22
ATOM     19  C   UNL     1       0.701  -2.405   1.908  0.00  0.00    +0.000 A 
ATOM     20  C   UNL     1       2.013  -2.742   1.595  0.00  0.00    +0.000 A 
ATOM     21  N   UNL     1       2.865  -3.295   2.502  0.00  0.00    +0.000 NA
ATOM     22  C   UNL     1       2.343  -3.501   3.733  0.00  0.00    +0.000 A 
ATOM     23  C   UNL     1       1.029  -3.161   4.044  0.00  0.00    +0.000 A 
ATOM     24  N   UNL     1       0.172  -2.602   3.149  0.00  0.00    +0.000 NA
BRANCH  19  26
ATOM     25  N   UNL     1      -1.436  -1.450   1.276  0.00  0.00    +0.000 N 
ATOM     26  C   UNL     1      -0.177  -1.801   0.867  0.00  0.00    +0.000 C 
ATOM     27  O   UNL     1       0.201  -1.622  -0.283  0.00  0.00    +0.000 OA
ATOM     28  H   UNL     1      -2.068  -1.012   0.621  0.00  0.00    +0.000 HD
ATOM     29  H   UNL     1      -1.708  -1.568   2.246  0.00  0.00    +0.000 HD
ENDBRANCH  19  26
ENDBRANCH  18  22
ENDBRANCH  17  18
ENDBRANCH   1  17
TORSDOF 5
