REMARK  Name = 
REMARK  6 active torsions:
REMARK  status: ('A' for Active; 'I' for Inactive)
REMARK    1  A    between atoms: C_1  and  S_2
REMARK    2  A    between atoms: S_2  and  C_5
REMARK    3  A    between atoms: C_8  and  O_9
REMARK    4  A    between atoms: O_9  and  C_10
REMARK    5  A    between atoms: C_10  and  C_11
REMARK    6  A    between atoms: C_11  and  C_14
REMARK                            x       y       z     vdW  Elec       q    Type
REMARK                         _______ _______ _______ _____ _____    ______ ____
ROOT
ATOM      1  O   UNL     1       4.817   5.579  -0.710  0.00  0.00    +0.000 OA
ENDROOT
BRANCH   1   5
ATOM      2  C   UNL     1       3.403   1.775  -0.204  0.00  0.00    +0.000 A 
ATOM      3  C   UNL     1       2.523   2.791   0.126  0.00  0.00    +0.000 A 
ATOM      4  C   UNL     1       2.962   4.105  -0.033  0.00  0.00    +0.000 A 
ATOM      5  C   UNL     1       4.251   4.352  -0.509  0.00  0.00    +0.000 A 
ATOM      6  C   UNL     1       5.049   3.248  -0.810  0.00  0.00    +0.000 A 
ATOM      7  N   UNL     1       4.663   1.956  -0.672  0.00  0.00    +0.000 NA
BRANCH   2   9
ATOM      8  C   UNL     1       4.282  -0.890  -0.533  0.00  0.00    +0.000 C 
ATOM      9  S   UNL     1       2.895   0.082  -0.014  0.00  0.00    +0.000 S 
ATOM     10  O   UNL     1       1.813  -0.144  -0.957  0.00  0.00    +0.000 OA
ATOM     11  O   UNL     1       2.699  -0.143   1.408  0.00  0.00    +0.000 OA
ENDBRANCH   2   9
ENDBRANCH   1   5
BRANCH   1  12
ATOM     12  C   UNL     1       3.990   6.718  -0.435  0.00  0.00    +0.000 C 
BRANCH  12  13
ATOM     13  C   UNL     1       4.701   8.045  -0.755  0.00  0.00    +0.000 C 
ATOM     14  F   UNL     1       5.031   8.048  -2.082  0.00  0.00    +0.000 F 
ATOM     15  F   UNL     1       3.755   9.033  -0.634  0.00  0.00    +0.000 F 
BRANCH  13  16
ATOM     16  C   UNL     1       5.892   8.316   0.140  0.00  0.00    +0.000 A 
ATOM     17  C   UNL     1       7.184   7.930  -0.249  0.00  0.00    +0.000 A 
ATOM     18  C   UNL     1       8.282   8.211   0.565  0.00  0.00    +0.000 A 
ATOM     19  C   UNL     1       8.103   8.877   1.776  0.00  0.00    +0.000 A 
ATOM     20  C   UNL     1       6.824   9.258   2.179  0.00  0.00    +0.000 A 
ATOM     21  C   UNL     1       5.724   8.979   1.367  0.00  0.00    +0.000 A 
ENDBRANCH  13  16
ENDBRANCH  12  13
ENDBRANCH   1  12
TORSDOF 5
