REMARK  Name = 
REMARK  6 active torsions:
REMARK  status: ('A' for Active; 'I' for Inactive)
REMARK    1  A    between atoms: C_1  and  C_2
REMARK    2  A    between atoms: C_2  and  C_3
REMARK    3  A    between atoms: C_2  and  C_4
REMARK    4  A    between atoms: C_2  and  C_5
REMARK    5  A    between atoms: N_7  and  C_8
REMARK    6  A    between atoms: C_8  and  C_9
REMARK                            x       y       z     vdW  Elec       q    Type
REMARK                         _______ _______ _______ _____ _____    ______ ____
ROOT
ATOM      1  C   UNL     1       3.013  -0.991   1.032  0.00  0.00    +0.000 A 
ATOM      2  C   UNL     1       3.657  -0.649   2.209  0.00  0.00    +0.000 A 
ATOM      3  N   UNL     1       3.810  -1.768   2.984  0.00  0.00    +0.000 N 
ATOM      4  C   UNL     1       3.307  -2.870   2.328  0.00  0.00    +0.000 A 
ATOM      5  C   UNL     1       3.242  -4.221   2.712  0.00  0.00    +0.000 A 
ATOM      6  C   UNL     1       2.655  -5.134   1.834  0.00  0.00    +0.000 A 
ATOM      7  C   UNL     1       2.147  -4.716   0.611  0.00  0.00    +0.000 A 
ATOM      8  C   UNL     1       2.216  -3.370   0.238  0.00  0.00    +0.000 A 
ATOM      9  C   UNL     1       2.804  -2.418   1.101  0.00  0.00    +0.000 A 
ENDROOT
BRANCH   1  11
ATOM     10  C   UNL     1       2.991   1.431   0.242  0.00  0.00    +0.000 C 
ATOM     11  C   UNL     1       2.588  -0.029  -0.081  0.00  0.00    +0.000 C 
ATOM     12  C   UNL     1       1.055  -0.049  -0.247  0.00  0.00    +0.000 C 
ATOM     13  C   UNL     1       3.256  -0.394  -1.421  0.00  0.00    +0.000 C 
ENDBRANCH   1  11
BRANCH   3  14
ATOM     14  C   UNL     1       4.343  -1.749   4.342  0.00  0.00    +0.000 C 
BRANCH  14  15
ATOM     15  C   UNL     1       5.804  -2.056   4.382  0.00  0.00    +0.000 A 
ATOM     16  C   UNL     1       6.759  -1.238   3.810  0.00  0.00    +0.000 A 
ATOM     17  N   UNL     1       8.083  -1.485   3.846  0.00  0.00    +0.000 NA
ATOM     18  C   UNL     1       8.447  -2.608   4.481  0.00  0.00    +0.000 A 
ATOM     19  N   UNL     1       7.617  -3.474   5.085  0.00  0.00    +0.000 NA
ATOM     20  C   UNL     1       6.306  -3.172   5.020  0.00  0.00    +0.000 A 
ENDBRANCH  14  15
ENDBRANCH   3  14
TORSDOF 3
