REMARK  Name = 
REMARK  7 active torsions:
REMARK  status: ('A' for Active; 'I' for Inactive)
REMARK    1  A    between atoms: C_2  and  C_4
REMARK    2  A    between atoms: C_7  and  N_8
REMARK    3  A    between atoms: N_8  and  C_9
REMARK    4  A    between atoms: C_9  and  C_10
REMARK    5  A    between atoms: C_10  and  O_11
REMARK    6  A    between atoms: C_10  and  C_12
REMARK    7  A    between atoms: C_16  and  C_17
REMARK                            x       y       z     vdW  Elec       q    Type
REMARK                         _______ _______ _______ _____ _____    ______ ____
ROOT
ATOM      1  C   UNL     1       5.934  -6.703  -2.387  0.00  0.00    +0.000 C 
ENDROOT
BRANCH   1   2
ATOM      2  C   UNL     1       5.536  -7.698  -3.464  0.00  0.00    +0.000 A 
ATOM      3  C   UNL     1       6.431  -8.001  -4.497  0.00  0.00    +0.000 A 
ATOM      4  C   UNL     1       6.088  -8.923  -5.482  0.00  0.00    +0.000 A 
ATOM      5  C   UNL     1       4.856  -9.575  -5.435  0.00  0.00    +0.000 A 
ATOM      6  C   UNL     1       3.940  -9.334  -4.394  0.00  0.00    +0.000 A 
ATOM      7  C   UNL     1       4.293  -8.360  -3.438  0.00  0.00    +0.000 A 
BRANCH   6   8
ATOM      8  C   UNL     1       2.700 -10.136  -4.254  0.00  0.00    +0.000 A 
ATOM      9  C   UNL     1       2.676 -11.493  -4.636  0.00  0.00    +0.000 A 
ATOM     10  C   UNL     1       1.549 -12.294  -4.432  0.00  0.00    +0.000 A 
ATOM     11  C   UNL     1       0.420 -11.752  -3.831  0.00  0.00    +0.000 A 
ATOM     12 CL   UNL     1      -0.954 -12.745  -3.541  0.00  0.00    +0.000 Cl
ATOM     13  C   UNL     1       0.403 -10.414  -3.454  0.00  0.00    +0.000 A 
ATOM     14  C   UNL     1       1.530  -9.612  -3.675  0.00  0.00    +0.000 A 
ENDBRANCH   6   8
ENDBRANCH   1   2
BRANCH   1  15
ATOM     15  O   UNL     1       5.942  -7.347  -1.105  0.00  0.00    +0.000 OA
ATOM     16  H   UNL     1       5.099  -7.816  -1.000  0.00  0.00    +0.000 HD
ENDBRANCH   1  15
BRANCH   1  17
ATOM     17  C   UNL     1       4.995  -5.477  -2.342  0.00  0.00    +0.000 C 
BRANCH  17  18
ATOM     18  N   UNL     1       5.455  -4.497  -1.355  0.00  0.00    +0.000 N 
ATOM     19  H   UNL     1       5.808  -4.920  -0.494  0.00  0.00    +0.000 HD
BRANCH  18  23
ATOM     20  C   UNL     1       3.449  -0.829  -0.791  0.00  0.00    +0.000 A 
ATOM     21  C   UNL     1       2.930  -1.765  -1.686  0.00  0.00    +0.000 A 
ATOM     22  C   UNL     1       3.578  -2.992  -1.863  0.00  0.00    +0.000 A 
ATOM     23  C   UNL     1       4.732  -3.325  -1.142  0.00  0.00    +0.000 A 
ATOM     24  C   UNL     1       5.248  -2.365  -0.260  0.00  0.00    +0.000 A 
ATOM     25  C   UNL     1       4.621  -1.123  -0.091  0.00  0.00    +0.000 A 
BRANCH  20  27
ATOM     26  N   UNL     1       1.464   0.581  -0.816  0.00  0.00    +0.000 N 
ATOM     27  C   UNL     1       2.814   0.500  -0.605  0.00  0.00    +0.000 C 
ATOM     28  O   UNL     1       3.457   1.476  -0.246  0.00  0.00    +0.000 OA
ATOM     29  H   UNL     1       1.032   1.459  -0.589  0.00  0.00    +0.000 HD
ATOM     30  H   UNL     1       0.877  -0.239  -0.853  0.00  0.00    +0.000 HD
ENDBRANCH  20  27
ENDBRANCH  18  23
ENDBRANCH  17  18
ENDBRANCH   1  17
TORSDOF 7
