REMARK  Name = 
REMARK  3 active torsions:
REMARK  status: ('A' for Active; 'I' for Inactive)
REMARK    1  A    between atoms: C_2  and  C_4
REMARK    2  A    between atoms: N_8  and  C_9
REMARK    3  A    between atoms: C_9  and  C_10
REMARK                            x       y       z     vdW  Elec       q    Type
REMARK                         _______ _______ _______ _____ _____    ______ ____
ROOT
ATOM      1  C   UNL     1       3.008   0.340  -1.497  0.00  0.00    +0.000 A 
ATOM      2  C   UNL     1       4.376   0.101  -1.409  0.00  0.00    +0.000 A 
ATOM      3  C   UNL     1       5.194   0.448  -2.488  0.00  0.00    +0.000 A 
ATOM      4  C   UNL     1       4.643   1.068  -3.609  0.00  0.00    +0.000 A 
ATOM      5  N   UNL     1       5.505   1.436  -4.644  0.00  0.00    +0.000 N 
ATOM      6  N   UNL     1       3.322   1.310  -3.692  0.00  0.00    +0.000 NA
ATOM      7  C   UNL     1       2.530   0.913  -2.663  0.00  0.00    +0.000 A 
ATOM      8  H   UNL     1       5.886   0.610  -5.100  0.00  0.00    +0.000 HD
ENDROOT
BRANCH   1  10
ATOM      9  N   UNL     1       2.520   0.046   0.860  0.00  0.00    +0.000 N 
ATOM     10  C   UNL     1       2.049   0.015  -0.423  0.00  0.00    +0.000 C 
ATOM     11  O   UNL     1       0.874  -0.234  -0.664  0.00  0.00    +0.000 OA
ATOM     12  H   UNL     1       1.829  -0.059   1.594  0.00  0.00    +0.000 HD
ATOM     13  H   UNL     1       3.391   0.497   1.108  0.00  0.00    +0.000 HD
ENDBRANCH   1  10
BRANCH   5  14
ATOM     14  C   UNL     1       5.009   2.404  -5.620  0.00  0.00    +0.000 C 
BRANCH  14  15
ATOM     15  C   UNL     1       4.149   1.815  -6.724  0.00  0.00    +0.000 A 
ATOM     16  C   UNL     1       2.757   1.914  -6.655  0.00  0.00    +0.000 A 
ATOM     17  C   UNL     1       1.984   1.417  -7.697  0.00  0.00    +0.000 A 
ATOM     18  C   UNL     1       2.618   0.849  -8.792  0.00  0.00    +0.000 A 
ATOM     19  C   UNL     1       4.001   0.794  -8.789  0.00  0.00    +0.000 A 
ATOM     20  F   UNL     1       4.615   0.267  -9.858  0.00  0.00    +0.000 F 
ATOM     21  N   UNL     1       4.781   1.250  -7.785  0.00  0.00    +0.000 NA
ENDBRANCH  14  15
ENDBRANCH   5  14
TORSDOF 3
