REMARK  Name = 
REMARK  10 active torsions:
REMARK  status: ('A' for Active; 'I' for Inactive)
REMARK    1  A    between atoms: C_1  and  O_2
REMARK    2  A    between atoms: O_2  and  C_3
REMARK    3  A    between atoms: C_5  and  C_6
REMARK    4  A    between atoms: C_6  and  N_7
REMARK    5  A    between atoms: C_12  and  C_13
REMARK    6  A    between atoms: C_21  and  C_22
REMARK    7  A    between atoms: C_22  and  N_23
REMARK    8  A    between atoms: N_23  and  C_24
REMARK    9  A    between atoms: C_24  and  C_25
REMARK   10  A    between atoms: C_24  and  C_26
REMARK                            x       y       z     vdW  Elec       q    Type
REMARK                         _______ _______ _______ _____ _____    ______ ____
ROOT
ATOM      1  C   UNL     1       3.042   3.567  -3.296  0.00  0.00    +0.000 C 
ENDROOT
BRANCH   1   2
ATOM      2  N   UNL     1       3.673   4.673  -2.578  0.00  0.00    +0.000 N 
ATOM      3  C   UNL     1       4.915   5.172  -2.892  0.00  0.00    +0.000 A 
ATOM      4  C   UNL     1       5.128   6.300  -2.135  0.00  0.00    +0.000 A 
ATOM      5  C   UNL     1       3.976   6.503  -1.331  0.00  0.00    +0.000 A 
ATOM      6  C   UNL     1       3.613   7.486  -0.402  0.00  0.00    +0.000 A 
ATOM      7  C   UNL     1       2.362   7.349   0.185  0.00  0.00    +0.000 A 
ATOM      8  N   UNL     1       1.492   6.329  -0.067  0.00  0.00    +0.000 NA
ATOM      9  C   UNL     1       1.850   5.378  -0.961  0.00  0.00    +0.000 A 
ATOM     10  C   UNL     1       3.082   5.463  -1.607  0.00  0.00    +0.000 A 
BRANCH   7  11
ATOM     11  C   UNL     1       1.901   8.399   1.154  0.00  0.00    +0.000 C 
ATOM     12  N   UNL     1       0.653   8.218   1.683  0.00  0.00    +0.000 N 
ATOM     13  O   UNL     1       2.587   9.371   1.456  0.00  0.00    +0.000 OA
ATOM     14  H   UNL     1       0.107   7.408   1.402  0.00  0.00    +0.000 HD
ATOM     15  H   UNL     1       0.282   8.900   2.327  0.00  0.00    +0.000 HD
ENDBRANCH   7  11
ENDBRANCH   1   2
BRANCH   1  18
ATOM     16  C   UNL     1       3.020   0.397  -1.155  0.00  0.00    +0.000 A 
ATOM     17  C   UNL     1       2.667   1.637  -1.707  0.00  0.00    +0.000 A 
ATOM     18  C   UNL     1       3.423   2.220  -2.737  0.00  0.00    +0.000 A 
ATOM     19  C   UNL     1       4.539   1.532  -3.223  0.00  0.00    +0.000 A 
ATOM     20  C   UNL     1       4.886   0.288  -2.695  0.00  0.00    +0.000 A 
ATOM     21  C   UNL     1       4.135  -0.296  -1.660  0.00  0.00    +0.000 A 
BRANCH  16  23
ATOM     22  C   UNL     1       1.048   0.273   0.182  0.00  0.00    +0.000 C 
ATOM     23  O   UNL     1       2.364  -0.187  -0.101  0.00  0.00    +0.000 OA
ENDBRANCH  16  23
BRANCH  21  24
ATOM     24  C   UNL     1       4.572  -1.641  -1.115  0.00  0.00    +0.000 C 
BRANCH  24  25
ATOM     25  N   UNL     1       3.576  -2.714  -1.208  0.00  0.00    +0.000 NA
ATOM     26  H   UNL     1       2.776  -2.420  -0.644  0.00  0.00    +0.000 HD
BRANCH  25  27
ATOM     27  C   UNL     1       3.115  -3.043  -2.561  0.00  0.00    +0.000 C 
ATOM     28  C   UNL     1       4.238  -3.519  -3.484  0.00  0.00    +0.000 C 
ATOM     29  C   UNL     1       2.061  -4.149  -2.433  0.00  0.00    +0.000 C 
ENDBRANCH  25  27
ENDBRANCH  24  25
ENDBRANCH  21  24
ENDBRANCH   1  18
TORSDOF 7
