REMARK  Name = 
REMARK  9 active torsions:
REMARK  status: ('A' for Active; 'I' for Inactive)
REMARK    1  A    between atoms: C_1  and  C_2
REMARK    2  A    between atoms: C_2  and  N_3
REMARK    3  A    between atoms: C_2  and  C_20
REMARK    4  A    between atoms: N_3  and  C_4
REMARK    5  A    between atoms: C_7  and  C_8
REMARK    6  A    between atoms: C_8  and  C_9
REMARK    7  A    between atoms: C_8  and  C_11
REMARK    8  A    between atoms: C_9  and  O_10
REMARK    9  A    between atoms: C_11  and  C_12
REMARK                            x       y       z     vdW  Elec       q    Type
REMARK                         _______ _______ _______ _____ _____    ______ ____
ROOT
ATOM      1  C   UNL     1       4.894  -5.238  -5.694  0.00  0.00    +0.000 A 
ATOM      2  C   UNL     1       4.946  -4.148  -6.565  0.00  0.00    +0.000 A 
ATOM      3  C   UNL     1       3.867  -3.272  -6.677  0.00  0.00    +0.000 A 
ATOM      4  C   UNL     1       2.722  -3.518  -5.927  0.00  0.00    +0.000 A 
ATOM      5  N   UNL     1       2.586  -4.634  -5.167  0.00  0.00    +0.000 NA
ATOM      6  C   UNL     1       3.655  -5.472  -5.101  0.00  0.00    +0.000 A 
ENDROOT
BRANCH   1   7
ATOM      7  N   UNL     1       6.028  -6.043  -5.550  0.00  0.00    +0.000 N 
ATOM      8  H   UNL     1       6.861  -5.522  -5.849  0.00  0.00    +0.000 HD
BRANCH   7  10
ATOM      9  C   UNL     1       6.408  -5.734  -3.108  0.00  0.00    +0.000 C 
ATOM     10  C   UNL     1       6.302  -6.730  -4.278  0.00  0.00    +0.000 C 
BRANCH  10  11
ATOM     11  C   UNL     1       7.557  -7.598  -4.282  0.00  0.00    +0.000 A 
ATOM     12  C   UNL     1       7.617  -8.844  -3.678  0.00  0.00    +0.000 A 
ATOM     13  S   UNL     1       9.169  -9.552  -3.741  0.00  0.00    +0.000 S 
ATOM     14  C   UNL     1       9.810  -8.220  -4.585  0.00  0.00    +0.000 A 
ATOM     15  N   UNL     1      11.123  -8.178  -4.940  0.00  0.00    +0.000 NA
ATOM     16  C   UNL     1      11.467  -7.107  -5.575  0.00  0.00    +0.000 A 
ATOM     17  N   UNL     1      10.618  -6.076  -5.894  0.00  0.00    +0.000 N 
ATOM     18  C   UNL     1       9.287  -6.071  -5.551  0.00  0.00    +0.000 A 
ATOM     19  O   UNL     1       8.556  -5.130  -5.846  0.00  0.00    +0.000 OA
ATOM     20  C   UNL     1       8.852  -7.254  -4.828  0.00  0.00    +0.000 A 
ATOM     21  H   UNL     1      10.951  -5.273  -6.405  0.00  0.00    +0.000 HD
ENDBRANCH  10  11
ENDBRANCH   7  10
ENDBRANCH   1   7
BRANCH   4  22
ATOM     22  C   UNL     1       1.662  -2.434  -5.786  0.00  0.00    +0.000 C 
BRANCH  22  23
ATOM     23  C   UNL     1       1.664  -1.969  -4.314  0.00  0.00    +0.000 C 
BRANCH  23  24
ATOM     24  O   UNL     1       1.077  -2.931  -3.437  0.00  0.00    +0.000 OA
ATOM     25  H   UNL     1       1.488  -3.790  -3.676  0.00  0.00    +0.000 HD
ENDBRANCH  23  24
ENDBRANCH  22  23
BRANCH  22  26
ATOM     26  C   UNL     1       0.279  -2.896  -6.282  0.00  0.00    +0.000 C 
BRANCH  26  27
ATOM     27  C   UNL     1      -0.708  -1.748  -6.343  0.00  0.00    +0.000 A 
ATOM     28  C   UNL     1      -0.771  -0.917  -7.469  0.00  0.00    +0.000 A 
ATOM     29  C   UNL     1      -1.618   0.193  -7.485  0.00  0.00    +0.000 A 
ATOM     30  C   UNL     1      -2.408   0.486  -6.375  0.00  0.00    +0.000 A 
ATOM     31  C   UNL     1      -2.361  -0.338  -5.253  0.00  0.00    +0.000 A 
ATOM     32  C   UNL     1      -1.520  -1.452  -5.239  0.00  0.00    +0.000 A 
ENDBRANCH  26  27
ENDBRANCH  22  26
ENDBRANCH   4  22
TORSDOF 8
