REMARK  Name = 
REMARK  10 active torsions:
REMARK  status: ('A' for Active; 'I' for Inactive)
REMARK    1  A    between atoms: N_1  and  C_2
REMARK    2  A    between atoms: C_2  and  C_3
REMARK    3  A    between atoms: C_3  and  N_4
REMARK    4  A    between atoms: N_4  and  C_5
REMARK    5  A    between atoms: C_5  and  C_6
REMARK    6  A    between atoms: C_9  and  C_10
REMARK    7  A    between atoms: C_10  and  C_11
REMARK    8  A    between atoms: C_14  and  C_15
REMARK    9  A    between atoms: C_15  and  N_16
REMARK   10  A    between atoms: C_17  and  C_19
REMARK                            x       y       z     vdW  Elec       q    Type
REMARK                         _______ _______ _______ _____ _____    ______ ____
ROOT
ATOM      1  C   UNL     1      11.240   0.235  -3.128  0.00  0.00    +0.000 A 
ATOM      2  C   UNL     1      10.994   1.423  -2.427  0.00  0.00    +0.000 A 
ATOM      3  C   UNL     1      11.460   2.647  -2.916  0.00  0.00    +0.000 A 
ATOM      4  C   UNL     1      12.171   2.707  -4.122  0.00  0.00    +0.000 A 
ATOM      5  C   UNL     1      12.472   1.512  -4.788  0.00  0.00    +0.000 A 
ATOM      6  C   UNL     1      12.005   0.289  -4.301  0.00  0.00    +0.000 A 
ENDROOT
BRANCH   1   7
ATOM      7  C   UNL     1      10.643  -1.072  -2.658  0.00  0.00    +0.000 C 
BRANCH   7  11
ATOM      8  C   UNL     1       6.854  -1.939  -4.422  0.00  0.00    +0.000 A 
ATOM      9  C   UNL     1       6.885  -1.205  -3.240  0.00  0.00    +0.000 A 
ATOM     10  C   UNL     1       8.113  -0.912  -2.655  0.00  0.00    +0.000 A 
ATOM     11  C   UNL     1       9.291  -1.365  -3.256  0.00  0.00    +0.000 A 
ATOM     12  C   UNL     1       9.165  -2.078  -4.443  0.00  0.00    +0.000 A 
ATOM     13  N   UNL     1       7.986  -2.376  -5.034  0.00  0.00    +0.000 NA
BRANCH   8  14
ATOM     14  C   UNL     1       5.530  -2.222  -5.106  0.00  0.00    +0.000 C 
BRANCH  14  15
ATOM     15  N   UNL     1       4.789  -1.018  -5.536  0.00  0.00    +0.000 NA
ATOM     16  H   UNL     1       3.986  -1.354  -6.077  0.00  0.00    +0.000 HD
BRANCH  15  17
ATOM     17  C   UNL     1       5.573  -0.185  -6.468  0.00  0.00    +0.000 C 
BRANCH  17  18
ATOM     18  C   UNL     1       5.862  -0.865  -7.820  0.00  0.00    +0.000 C 
BRANCH  18  19
ATOM     19  N   UNL     1       4.622  -1.334  -8.455  0.00  0.00    +0.000 NA
ATOM     20  H   UNL     1       4.859  -1.777  -9.342  0.00  0.00    +0.000 HD
ATOM     21  H   UNL     1       4.049  -0.523  -8.689  0.00  0.00    +0.000 HD
ENDBRANCH  18  19
ENDBRANCH  17  18
ENDBRANCH  15  17
ENDBRANCH  14  15
ENDBRANCH   8  14
ENDBRANCH   7  11
ENDBRANCH   1   7
BRANCH   4  22
ATOM     22  C   UNL     1      12.584   4.029  -4.708  0.00  0.00    +0.000 C 
BRANCH  22  23
ATOM     23  N   UNL     1      13.886   4.447  -4.259  0.00  0.00    +0.000 N 
ATOM     24  C   UNL     1      14.375   5.677  -4.626  0.00  0.00    +0.000 C 
ATOM     25  O   UNL     1      13.707   6.465  -5.291  0.00  0.00    +0.000 OA
ATOM     26  H   UNL     1      14.518   3.733  -3.909  0.00  0.00    +0.000 HD
BRANCH  24  27
ATOM     27  C   UNL     1      15.713   6.036  -4.144  0.00  0.00    +0.000 A 
ATOM     28  C   UNL     1      16.067   7.376  -4.053  0.00  0.00    +0.000 A 
ATOM     29  S   UNL     1      17.642   7.630  -3.456  0.00  0.00    +0.000 S 
ATOM     30  C   UNL     1      17.925   5.956  -3.341  0.00  0.00    +0.000 A 
ATOM     31  N   UNL     1      19.127   5.480  -2.917  0.00  0.00    +0.000 NA
ATOM     32  C   UNL     1      19.217   4.192  -2.908  0.00  0.00    +0.000 A 
ATOM     33  N   UNL     1      18.210   3.338  -3.276  0.00  0.00    +0.000 N 
ATOM     34  C   UNL     1      16.967   3.773  -3.678  0.00  0.00    +0.000 A 
ATOM     35  O   UNL     1      16.074   2.980  -3.954  0.00  0.00    +0.000 OA
ATOM     36  C   UNL     1      16.822   5.215  -3.727  0.00  0.00    +0.000 A 
ATOM     37  H   UNL     1      18.342   2.338  -3.235  0.00  0.00    +0.000 HD
ENDBRANCH  24  27
ENDBRANCH  22  23
ENDBRANCH   4  22
TORSDOF 10
