REMARK  Name = 
REMARK  8 active torsions:
REMARK  status: ('A' for Active; 'I' for Inactive)
REMARK    1  A    between atoms: C_2  and  C_3
REMARK    2  A    between atoms: C_3  and  N_4
REMARK    3  A    between atoms: C_3  and  C_26
REMARK    4  A    between atoms: N_4  and  C_5
REMARK    5  A    between atoms: C_5  and  C_6
REMARK    6  A    between atoms: C_9  and  C_10
REMARK    7  A    between atoms: C_10  and  N_11
REMARK    8  A    between atoms: C_12  and  C_14
REMARK                            x       y       z     vdW  Elec       q    Type
REMARK                         _______ _______ _______ _____ _____    ______ ____
ROOT
ATOM      1  C   UNL     1       4.281  -0.304  -3.767  0.00  0.00    +0.000 A 
ATOM      2  C   UNL     1       4.183   1.032  -4.180  0.00  0.00    +0.000 A 
ATOM      3  C   UNL     1       4.611   1.411  -5.451  0.00  0.00    +0.000 A 
ATOM      4  C   UNL     1       5.151   0.466  -6.328  0.00  0.00    +0.000 A 
ATOM      5  C   UNL     1       5.285  -0.862  -5.900  0.00  0.00    +0.000 A 
ATOM      6  C   UNL     1       4.842  -1.247  -4.635  0.00  0.00    +0.000 A 
ENDROOT
BRANCH   1   7
ATOM      7  C   UNL     1       3.794  -0.713  -2.400  0.00  0.00    +0.000 C 
BRANCH   7   8
ATOM      8  N   UNL     1       2.349  -0.494  -2.290  0.00  0.00    +0.000 NA
ATOM      9  H   UNL     1       2.148   0.487  -2.476  0.00  0.00    +0.000 HD
BRANCH   8  10
ATOM     10  C   UNL     1       1.813  -0.836  -0.957  0.00  0.00    +0.000 C 
BRANCH  10  11
ATOM     11  C   UNL     1       1.864  -2.338  -0.664  0.00  0.00    +0.000 A 
ATOM     12  C   UNL     1       1.948  -2.824   0.652  0.00  0.00    +0.000 A 
ATOM     13  C   UNL     1       1.920  -4.195   0.915  0.00  0.00    +0.000 A 
ATOM     14  C   UNL     1       1.795  -5.105  -0.131  0.00  0.00    +0.000 A 
ATOM     15  C   UNL     1       1.710  -4.645  -1.441  0.00  0.00    +0.000 A 
ATOM     16 CL   UNL     1       1.554  -5.768  -2.735  0.00  0.00    +0.000 Cl
ATOM     17  C   UNL     1       1.739  -3.278  -1.709  0.00  0.00    +0.000 A 
ENDBRANCH  10  11
BRANCH  10  19
ATOM     18  N   UNL     1       2.856   0.692   0.946  0.00  0.00    +0.000 NA
ATOM     19  C   UNL     1       2.390   0.022   0.119  0.00  0.00    +0.000 C 
ENDBRANCH  10  19
ENDBRANCH   8  10
ENDBRANCH   7   8
ENDBRANCH   1   7
BRANCH   4  20
ATOM     20  C   UNL     1       5.605   0.864  -7.704  0.00  0.00    +0.000 C 
BRANCH  20  21
ATOM     21  N   UNL     1       6.979   1.291  -7.698  0.00  0.00    +0.000 N 
ATOM     22  C   UNL     1       7.586   1.726  -8.848  0.00  0.00    +0.000 C 
ATOM     23  O   UNL     1       6.984   1.796  -9.916  0.00  0.00    +0.000 OA
ATOM     24  H   UNL     1       7.549   1.015  -6.904  0.00  0.00    +0.000 HD
BRANCH  22  25
ATOM     25  C   UNL     1       8.978   2.169  -8.722  0.00  0.00    +0.000 A 
ATOM     26  C   UNL     1       9.489   3.097  -9.619  0.00  0.00    +0.000 A 
ATOM     27  S   UNL     1      11.108   3.530  -9.304  0.00  0.00    +0.000 S 
ATOM     28  C   UNL     1      11.196   2.459  -7.987  0.00  0.00    +0.000 A 
ATOM     29  N   UNL     1      12.347   2.317  -7.273  0.00  0.00    +0.000 NA
ATOM     30  C   UNL     1      12.275   1.457  -6.317  0.00  0.00    +0.000 A 
ATOM     31  N   UNL     1      11.160   0.726  -5.998  0.00  0.00    +0.000 N 
ATOM     32  C   UNL     1       9.969   0.857  -6.670  0.00  0.00    +0.000 A 
ATOM     33  O   UNL     1       8.973   0.228  -6.328  0.00  0.00    +0.000 OA
ATOM     34  C   UNL     1       9.999   1.799  -7.772  0.00  0.00    +0.000 A 
ATOM     35  H   UNL     1      11.168   0.080  -5.223  0.00  0.00    +0.000 HD
ENDBRANCH  22  25
ENDBRANCH  20  21
ENDBRANCH   4  20
TORSDOF 8
