REMARK  Name = 
REMARK  6 active torsions:
REMARK  status: ('A' for Active; 'I' for Inactive)
REMARK    1  A    between atoms: N_1  and  C_2
REMARK    2  A    between atoms: C_2  and  C_3
REMARK    3  A    between atoms: C_6  and  O_7
REMARK    4  A    between atoms: O_7  and  C_8
REMARK    5  A    between atoms: C_8  and  C_9
REMARK    6  A    between atoms: C_15  and  N_16
REMARK                            x       y       z     vdW  Elec       q    Type
REMARK                         _______ _______ _______ _____ _____    ______ ____
ROOT
ATOM      1  C   UNL     1       4.024  -1.813   6.032  0.00  0.00    +0.000 C 
ENDROOT
BRANCH   1   2
ATOM      2  C   UNL     1       4.192  -2.757   7.198  0.00  0.00    +0.000 A 
ATOM      3  N   UNL     1       3.415  -2.552   8.298  0.00  0.00    +0.000 NA
ATOM      4  C   UNL     1       3.618  -3.420   9.316  0.00  0.00    +0.000 A 
ATOM      5  C   UNL     1       4.566  -4.439   9.275  0.00  0.00    +0.000 A 
ATOM      6  N   UNL     1       4.733  -5.335  10.331  0.00  0.00    +0.000 N 
ATOM      7  N   UNL     1       5.333  -4.635   8.187  0.00  0.00    +0.000 NA
ATOM      8  C   UNL     1       5.135  -3.796   7.146  0.00  0.00    +0.000 A 
ATOM      9  H   UNL     1       4.881  -4.862  11.215  0.00  0.00    +0.000 HD
ATOM     10  H   UNL     1       5.514  -5.941  10.089  0.00  0.00    +0.000 HD
BRANCH   8  11
ATOM     11  N   UNL     1       5.968  -3.999   6.043  0.00  0.00    +0.000 N 
ATOM     12  H   UNL     1       6.495  -4.853   6.215  0.00  0.00    +0.000 HD
ATOM     13  H   UNL     1       5.421  -4.054   5.186  0.00  0.00    +0.000 HD
ENDBRANCH   8  11
ENDBRANCH   1   2
BRANCH   1  14
ATOM     14  O   UNL     1       3.635  -2.560   4.871  0.00  0.00    +0.000 OA
BRANCH  14  18
ATOM     15  C   UNL     1       2.690  -0.483   1.368  0.00  0.00    +0.000 A 
ATOM     16  C   UNL     1       3.669   0.036   2.227  0.00  0.00    +0.000 A 
ATOM     17  C   UNL     1       4.014  -0.629   3.409  0.00  0.00    +0.000 A 
ATOM     18  C   UNL     1       3.377  -1.820   3.750  0.00  0.00    +0.000 A 
ATOM     19  C   UNL     1       2.428  -2.363   2.882  0.00  0.00    +0.000 A 
ATOM     20  C   UNL     1       2.079  -1.697   1.704  0.00  0.00    +0.000 A 
BRANCH  15  21
ATOM     21  C   UNL     1       2.280   0.267   0.126  0.00  0.00    +0.000 C 
BRANCH  21  22
ATOM     22  N   UNL     1       3.408   0.501  -0.767  0.00  0.00    +0.000 NA
ATOM     23  H   UNL     1       3.063   0.891  -1.642  0.00  0.00    +0.000 HD
ATOM     24  H   UNL     1       3.831  -0.397  -1.001  0.00  0.00    +0.000 HD
ENDBRANCH  21  22
ENDBRANCH  15  21
ENDBRANCH  14  18
ENDBRANCH   1  14
TORSDOF 6
