REMARK  Name = 
REMARK  5 active torsions:
REMARK  status: ('A' for Active; 'I' for Inactive)
REMARK    1  A    between atoms: C_2  and  C_4
REMARK    2  A    between atoms: C_7  and  O_8
REMARK    3  A    between atoms: O_8  and  C_9
REMARK    4  A    between atoms: C_9  and  C_10
REMARK    5  A    between atoms: C_14  and  C_15
REMARK                            x       y       z     vdW  Elec       q    Type
REMARK                         _______ _______ _______ _____ _____    ______ ____
ROOT
ATOM      1  C   UNL     1       4.964   4.880   3.444  0.00  0.00    +0.000 C 
ENDROOT
BRANCH   1   2
ATOM      2  C   UNL     1       5.789   6.094   3.747  0.00  0.00    +0.000 A 
ATOM      3  C   UNL     1       7.071   5.979   4.265  0.00  0.00    +0.000 A 
ATOM      4  N   UNL     1       7.845   7.027   4.605  0.00  0.00    +0.000 NA
ATOM      5  C   UNL     1       7.316   8.258   4.407  0.00  0.00    +0.000 A 
ATOM      6  C   UNL     1       6.042   8.517   3.893  0.00  0.00    +0.000 A 
ATOM      7  C   UNL     1       5.281   7.386   3.563  0.00  0.00    +0.000 A 
BRANCH   6   8
ATOM      8  C   UNL     1       5.528   9.889   3.715  0.00  0.00    +0.000 A 
ATOM      9  C   UNL     1       5.931  10.937   4.565  0.00  0.00    +0.000 A 
ATOM     10  C   UNL     1       5.450  12.237   4.400  0.00  0.00    +0.000 A 
ATOM     11  C   UNL     1       4.544  12.518   3.381  0.00  0.00    +0.000 A 
ATOM     12  C   UNL     1       4.128  11.499   2.533  0.00  0.00    +0.000 A 
ATOM     13 CL   UNL     1       3.003  11.838   1.275  0.00  0.00    +0.000 Cl
ATOM     14  C   UNL     1       4.614  10.201   2.692  0.00  0.00    +0.000 A 
ENDBRANCH   6   8
ENDBRANCH   1   2
BRANCH   1  15
ATOM     15  O   UNL     1       4.623   4.867   2.057  0.00  0.00    +0.000 OA
BRANCH  15  19
ATOM     16  C   UNL     1       2.275   1.762   0.532  0.00  0.00    +0.000 A 
ATOM     17  C   UNL     1       2.750   2.800  -0.279  0.00  0.00    +0.000 A 
ATOM     18  C   UNL     1       3.536   3.820   0.272  0.00  0.00    +0.000 A 
ATOM     19  C   UNL     1       3.864   3.811   1.631  0.00  0.00    +0.000 A 
ATOM     20  C   UNL     1       3.409   2.765   2.432  0.00  0.00    +0.000 A 
ATOM     21  C   UNL     1       2.622   1.758   1.883  0.00  0.00    +0.000 A 
ATOM     22  F   UNL     1       2.206   0.782   2.706  0.00  0.00    +0.000 F 
BRANCH  16  24
ATOM     23  N   UNL     1       0.956  -0.280   0.748  0.00  0.00    +0.000 N 
ATOM     24  C   UNL     1       1.409   0.717  -0.068  0.00  0.00    +0.000 C 
ATOM     25  O   UNL     1       1.096   0.748  -1.251  0.00  0.00    +0.000 OA
ATOM     26  H   UNL     1       0.346  -0.983   0.349  0.00  0.00    +0.000 HD
ATOM     27  H   UNL     1       1.173  -0.329   1.735  0.00  0.00    +0.000 HD
ENDBRANCH  16  24
ENDBRANCH  15  19
ENDBRANCH   1  15
TORSDOF 5
