REMARK  Name = 
REMARK  8 active torsions:
REMARK  status: ('A' for Active; 'I' for Inactive)
REMARK    1  A    between atoms: C_1  and  O_2
REMARK    2  A    between atoms: O_2  and  C_3
REMARK    3  A    between atoms: C_5  and  C_6
REMARK    4  A    between atoms: C_6  and  O_7
REMARK    5  A    between atoms: C_6  and  C_8
REMARK    6  A    between atoms: C_8  and  N_9
REMARK    7  A    between atoms: N_9  and  C_10
REMARK    8  A    between atoms: C_13  and  C_14
REMARK                            x       y       z     vdW  Elec       q    Type
REMARK                         _______ _______ _______ _____ _____    ______ ____
ROOT
ATOM      1  N   UNL     1       1.551   2.086  -6.128  0.00  0.00    +0.000 N 
ATOM      2  H   UNL     1       1.392   1.374  -6.841  0.00  0.00    +0.000 HD
ENDROOT
BRANCH   1   3
ATOM      3  C   UNL     1       0.520   3.044  -6.149  0.00  0.00    +0.000 A 
ATOM      4  C   UNL     1       0.262   3.907  -5.078  0.00  0.00    +0.000 A 
ATOM      5  C   UNL     1      -0.726   4.895  -5.159  0.00  0.00    +0.000 A 
ATOM      6  C   UNL     1      -1.452   5.067  -6.339  0.00  0.00    +0.000 A 
ATOM      7  C   UNL     1      -1.192   4.237  -7.431  0.00  0.00    +0.000 A 
ATOM      8  C   UNL     1      -0.203   3.245  -7.336  0.00  0.00    +0.000 A 
BRANCH   6   9
ATOM      9  C   UNL     1      -2.481   6.141  -6.367  0.00  0.00    +0.000 C 
ATOM     10  N   UNL     1      -2.800   6.683  -7.581  0.00  0.00    +0.000 N 
ATOM     11  O   UNL     1      -2.994   6.562  -5.340  0.00  0.00    +0.000 OA
ATOM     12  H   UNL     1      -2.233   6.542  -8.403  0.00  0.00    +0.000 HD
ATOM     13  H   UNL     1      -3.400   7.496  -7.554  0.00  0.00    +0.000 HD
ENDBRANCH   6   9
ENDBRANCH   1   3
BRANCH   1  14
ATOM     14  C   UNL     1       1.879   1.495  -4.812  0.00  0.00    +0.000 C 
BRANCH  14  15
ATOM     15  C   UNL     1       2.995   0.427  -4.921  0.00  0.00    +0.000 C 
BRANCH  15  18
ATOM     16  C   UNL     1       1.259  -2.372  -6.849  0.00  0.00    +0.000 A 
ATOM     17  C   UNL     1       1.421  -1.265  -6.023  0.00  0.00    +0.000 A 
ATOM     18  C   UNL     1       2.713  -0.777  -5.799  0.00  0.00    +0.000 A 
ATOM     19  C   UNL     1       3.781  -1.475  -6.379  0.00  0.00    +0.000 A 
ATOM     20  C   UNL     1       3.517  -2.567  -7.188  0.00  0.00    +0.000 A 
ATOM     21  N   UNL     1       2.279  -3.023  -7.443  0.00  0.00    +0.000 NA
BRANCH  16  23
ATOM     22  C   UNL     1      -0.110  -3.922  -7.926  0.00  0.00    +0.000 C 
ATOM     23  O   UNL     1      -0.037  -2.804  -7.045  0.00  0.00    +0.000 OA
ENDBRANCH  16  23
ENDBRANCH  15  18
BRANCH  15  24
ATOM     24  O   UNL     1       4.186   1.072  -5.398  0.00  0.00    +0.000 OA
ATOM     25  H   UNL     1       3.909   1.564  -6.195  0.00  0.00    +0.000 HD
ENDBRANCH  15  24
ENDBRANCH  14  15
ENDBRANCH   1  14
TORSDOF 7
