REMARK  Name = 
REMARK  4 active torsions:
REMARK  status: ('A' for Active; 'I' for Inactive)
REMARK    1  A    between atoms: N_1  and  C_2
REMARK    2  A    between atoms: C_2  and  C_3
REMARK    3  A    between atoms: C_6  and  C_7
REMARK    4  A    between atoms: C_7  and  N_8
REMARK                            x       y       z     vdW  Elec       q    Type
REMARK                         _______ _______ _______ _____ _____    ______ ____
ROOT
ATOM      1  C   UNL     1       4.348  -4.425   0.844  0.00  0.00    +0.000 C 
ENDROOT
BRANCH   1   2
ATOM      2  N   UNL     1       3.658  -5.631   1.282  0.00  0.00    +0.000 N 
ATOM      3  C   UNL     1       2.453  -5.626   1.943  0.00  0.00    +0.000 A 
ATOM      4  C   UNL     1       2.168  -6.916   2.321  0.00  0.00    +0.000 A 
ATOM      5  C   UNL     1       3.223  -7.747   1.855  0.00  0.00    +0.000 A 
ATOM      6  C   UNL     1       3.473  -9.131   1.937  0.00  0.00    +0.000 A 
ATOM      7  C   UNL     1       4.626  -9.657   1.341  0.00  0.00    +0.000 A 
ATOM      8  C   UNL     1       5.509  -8.818   0.683  0.00  0.00    +0.000 A 
ATOM      9  F   UNL     1       6.603  -9.344   0.113  0.00  0.00    +0.000 F 
ATOM     10  C   UNL     1       5.302  -7.442   0.595  0.00  0.00    +0.000 A 
ATOM     11  C   UNL     1       4.140  -6.922   1.191  0.00  0.00    +0.000 A 
ENDBRANCH   1   2
BRANCH   1  15
ATOM     12  C   UNL     1       3.052  -1.191  -0.799  0.00  0.00    +0.000 C 
ATOM     13  C   UNL     1       2.157  -2.353  -0.331  0.00  0.00    +0.000 C 
ATOM     14  C   UNL     1       2.601  -3.702  -0.905  0.00  0.00    +0.000 C 
ATOM     15  C   UNL     1       4.079  -4.028  -0.623  0.00  0.00    +0.000 C 
ATOM     16  C   UNL     1       4.978  -2.846  -1.032  0.00  0.00    +0.000 C 
ATOM     17  C   UNL     1       4.514  -1.510  -0.444  0.00  0.00    +0.000 C 
BRANCH  12  18
ATOM     18  C   UNL     1       2.811  -0.900  -2.298  0.00  0.00    +0.000 C 
BRANCH  18  19
ATOM     19  N   UNL     1       3.619   0.204  -2.806  0.00  0.00    +0.000 NA
ATOM     20  H   UNL     1       3.417   0.328  -3.798  0.00  0.00    +0.000 HD
ATOM     21  H   UNL     1       4.607  -0.041  -2.759  0.00  0.00    +0.000 HD
ENDBRANCH  18  19
ENDBRANCH  12  18
ENDBRANCH   1  15
TORSDOF 4
