REMARK  Name = 
REMARK  7 active torsions:
REMARK  status: ('A' for Active; 'I' for Inactive)
REMARK    1  A    between atoms: C_1  and  O_2
REMARK    2  A    between atoms: O_2  and  C_3
REMARK    3  A    between atoms: C_5  and  C_6
REMARK    4  A    between atoms: C_11  and  O_12
REMARK    5  A    between atoms: O_12  and  C_13
REMARK    6  A    between atoms: C_13  and  C_14
REMARK    7  A    between atoms: C_19  and  C_20
REMARK                            x       y       z     vdW  Elec       q    Type
REMARK                         _______ _______ _______ _____ _____    ______ ____
ROOT
ATOM      1  O   UNL     1       4.504  -1.239  -1.528  0.00  0.00    +0.000 OA
ENDROOT
BRANCH   1   7
ATOM      2  C   UNL     1       2.985   0.662  -0.940  0.00  0.00    +0.000 A 
ATOM      3  C   UNL     1       2.753   2.035  -1.114  0.00  0.00    +0.000 A 
ATOM      4  C   UNL     1       3.594   2.832  -1.906  0.00  0.00    +0.000 A 
ATOM      5  C   UNL     1       4.699   2.241  -2.525  0.00  0.00    +0.000 A 
ATOM      6  C   UNL     1       4.940   0.876  -2.350  0.00  0.00    +0.000 A 
ATOM      7  C   UNL     1       4.097   0.073  -1.565  0.00  0.00    +0.000 A 
BRANCH   4   8
ATOM      8  C   UNL     1       3.249   4.279  -2.020  0.00  0.00    +0.000 C 
ATOM      9  N   UNL     1       4.051   5.094  -2.765  0.00  0.00    +0.000 N 
ATOM     10  O   UNL     1       2.261   4.744  -1.464  0.00  0.00    +0.000 OA
ATOM     11  H   UNL     1       4.887   4.810  -3.249  0.00  0.00    +0.000 HD
ATOM     12  H   UNL     1       3.783   6.069  -2.812  0.00  0.00    +0.000 HD
ENDBRANCH   4   8
BRANCH   2  14
ATOM     13  C   UNL     1       0.850   0.331   0.072  0.00  0.00    +0.000 C 
ATOM     14  O   UNL     1       2.189  -0.106  -0.131  0.00  0.00    +0.000 OA
ENDBRANCH   2  14
ENDBRANCH   1   7
BRANCH   1  15
ATOM     15  C   UNL     1       3.694  -2.169  -0.810  0.00  0.00    +0.000 C 
BRANCH  15  16
ATOM     16  C   UNL     1       4.224  -3.581  -0.946  0.00  0.00    +0.000 A 
ATOM     17  C   UNL     1       4.077  -4.475   0.120  0.00  0.00    +0.000 A 
ATOM     18  C   UNL     1       4.475  -5.796  -0.026  0.00  0.00    +0.000 A 
ATOM     19  F   UNL     1       4.322  -6.646   0.998  0.00  0.00    +0.000 F 
ATOM     20  C   UNL     1       5.005  -6.260  -1.226  0.00  0.00    +0.000 A 
ATOM     21  C   UNL     1       5.140  -5.404  -2.331  0.00  0.00    +0.000 A 
ATOM     22  C   UNL     1       4.748  -4.059  -2.161  0.00  0.00    +0.000 A 
BRANCH  21  23
ATOM     23  C   UNL     1       5.624  -5.901  -3.637  0.00  0.00    +0.000 A 
ATOM     24  C   UNL     1       6.394  -5.113  -4.504  0.00  0.00    +0.000 A 
ATOM     25  C   UNL     1       6.798  -5.606  -5.746  0.00  0.00    +0.000 A 
ATOM     26  C   UNL     1       6.430  -6.893  -6.093  0.00  0.00    +0.000 A 
ATOM     27  N   UNL     1       5.700  -7.697  -5.300  0.00  0.00    +0.000 NA
ATOM     28  C   UNL     1       5.316  -7.183  -4.103  0.00  0.00    +0.000 A 
ENDBRANCH  21  23
ENDBRANCH  15  16
ENDBRANCH   1  15
TORSDOF 6
