REMARK  Name = 
REMARK  8 active torsions:
REMARK  status: ('A' for Active; 'I' for Inactive)
REMARK    1  A    between atoms: C_1  and  N_2
REMARK    2  A    between atoms: N_2  and  C_3
REMARK    3  A    between atoms: N_2  and  C_4
REMARK    4  A    between atoms: C_4  and  C_5
REMARK    5  A    between atoms: C_5  and  C_7
REMARK    6  A    between atoms: C_10  and  C_11
REMARK    7  A    between atoms: C_11  and  N_12
REMARK    8  A    between atoms: C_17  and  C_18
REMARK                            x       y       z     vdW  Elec       q    Type
REMARK                         _______ _______ _______ _____ _____    ______ ____
ROOT
ATOM      1  N   UNL     1       8.055  -0.725  -7.118  0.00  0.00    +0.000 N 
ATOM      2  C   UNL     1       8.962   0.135  -6.558  0.00  0.00    +0.000 A 
ATOM      3  N   UNL     1      10.058   0.223  -7.275  0.00  0.00    +0.000 NA
ATOM      4  C   UNL     1       9.861  -0.620  -8.337  0.00  0.00    +0.000 A 
ATOM      5  C   UNL     1      10.636  -0.792  -9.489  0.00  0.00    +0.000 A 
ATOM      6  C   UNL     1      10.195  -1.682 -10.484  0.00  0.00    +0.000 A 
ATOM      7  C   UNL     1       9.068  -2.487 -10.252  0.00  0.00    +0.000 A 
ATOM      8  C   UNL     1       8.283  -2.329  -9.098  0.00  0.00    +0.000 A 
ATOM      9  C   UNL     1       8.673  -1.331  -8.196  0.00  0.00    +0.000 A 
ENDROOT
BRANCH   6  10
ATOM     10  C   UNL     1      10.913  -1.634 -11.790  0.00  0.00    +0.000 C 
ATOM     11  N   UNL     1      10.529  -2.479 -12.793  0.00  0.00    +0.000 N 
ATOM     12  O   UNL     1      11.806  -0.821 -12.001  0.00  0.00    +0.000 OA
ATOM     13  H   UNL     1       9.821  -3.190 -12.725  0.00  0.00    +0.000 HD
ATOM     14  H   UNL     1      10.999  -2.358 -13.681  0.00  0.00    +0.000 HD
ENDBRANCH   6  10
BRANCH   1  15
ATOM     15  C   UNL     1       6.609  -0.648  -6.943  0.00  0.00    +0.000 C 
BRANCH  15  19
ATOM     16  C   UNL     1       5.125  -0.255  -2.889  0.00  0.00    +0.000 A 
ATOM     17  C   UNL     1       5.451   0.882  -3.634  0.00  0.00    +0.000 A 
ATOM     18  C   UNL     1       5.949   0.756  -4.938  0.00  0.00    +0.000 A 
ATOM     19  C   UNL     1       6.143  -0.508  -5.516  0.00  0.00    +0.000 A 
ATOM     20  C   UNL     1       5.837  -1.647  -4.764  0.00  0.00    +0.000 A 
ATOM     21  C   UNL     1       5.322  -1.520  -3.472  0.00  0.00    +0.000 A 
BRANCH  16  22
ATOM     22  C   UNL     1       4.500  -0.153  -1.510  0.00  0.00    +0.000 C 
ATOM     23  F   UNL     1       3.294  -0.799  -1.510  0.00  0.00    +0.000 F 
BRANCH  22  24
ATOM     24  C   UNL     1       5.408  -0.769  -0.410  0.00  0.00    +0.000 C 
BRANCH  24  26
ATOM     25  C   UNL     1       3.644  -1.349   1.183  0.00  0.00    +0.000 C 
ATOM     26  N   UNL     1       4.928  -0.666   0.993  0.00  0.00    +0.000 NA
ATOM     27  C   UNL     1       5.923  -1.254   1.898  0.00  0.00    +0.000 C 
ENDBRANCH  24  26
ENDBRANCH  22  24
ENDBRANCH  16  22
ENDBRANCH  15  19
ENDBRANCH   1  15
TORSDOF 6
