REMARK  Name = 
REMARK  5 active torsions:
REMARK  status: ('A' for Active; 'I' for Inactive)
REMARK    1  A    between atoms: C_2  and  C_3
REMARK    2  A    between atoms: C_6  and  N_7
REMARK    3  A    between atoms: N_7  and  C_8
REMARK    4  A    between atoms: C_8  and  C_9
REMARK    5  A    between atoms: C_13  and  C_14
REMARK                            x       y       z     vdW  Elec       q    Type
REMARK                         _______ _______ _______ _____ _____    ______ ____
ROOT
ATOM      1  C   UNL     1       8.708  -0.844  -0.696  0.00  0.00    +0.000 C 
ATOM      2  C   UNL     1       7.890  -1.134   0.564  0.00  0.00    +0.000 C 
ATOM      3  C   UNL     1       7.251  -0.432  -0.584  0.00  0.00    +0.000 C 
ENDROOT
BRANCH   1   4
ATOM      4  C   UNL     1       9.734   0.284  -0.592  0.00  0.00    +0.000 A 
ATOM      5  C   UNL     1       9.781   1.320  -1.532  0.00  0.00    +0.000 A 
ATOM      6  C   UNL     1      10.579   2.443  -1.319  0.00  0.00    +0.000 A 
ATOM      7  C   UNL     1      11.385   2.529  -0.180  0.00  0.00    +0.000 A 
ATOM      8  C   UNL     1      11.447   1.479   0.748  0.00  0.00    +0.000 A 
ATOM      9  C   UNL     1      10.608   0.371   0.511  0.00  0.00    +0.000 A 
BRANCH   8  10
ATOM     10  C   UNL     1      12.341   1.511   1.931  0.00  0.00    +0.000 A 
ATOM     11  C   UNL     1      12.968   0.332   2.385  0.00  0.00    +0.000 A 
ATOM     12  C   UNL     1      13.804   0.325   3.508  0.00  0.00    +0.000 A 
ATOM     13  C   UNL     1      14.049   1.505   4.200  0.00  0.00    +0.000 A 
ATOM     14  C   UNL     1      13.454   2.688   3.771  0.00  0.00    +0.000 A 
ATOM     15  C   UNL     1      12.610   2.684   2.658  0.00  0.00    +0.000 A 
ATOM     16  F   UNL     1      12.044   3.851   2.309  0.00  0.00    +0.000 F 
ENDBRANCH   8  10
ENDBRANCH   1   4
BRANCH   1  17
ATOM     17  N   UNL     1       9.198  -2.032  -1.390  0.00  0.00    +0.000 N 
ATOM     18  H   UNL     1      10.068  -2.457  -1.082  0.00  0.00    +0.000 HD
BRANCH  17  22
ATOM     19  C   UNL     1       8.311  -3.655  -5.055  0.00  0.00    +0.000 A 
ATOM     20  C   UNL     1       9.397  -4.058  -4.299  0.00  0.00    +0.000 A 
ATOM     21  N   UNL     1       9.701  -3.496  -3.100  0.00  0.00    +0.000 NA
ATOM     22  C   UNL     1       8.892  -2.502  -2.660  0.00  0.00    +0.000 A 
ATOM     23  C   UNL     1       7.820  -2.092  -3.448  0.00  0.00    +0.000 A 
ATOM     24  N   UNL     1       7.500  -2.650  -4.651  0.00  0.00    +0.000 NA
BRANCH  19  26
ATOM     25  N   UNL     1       7.773  -4.865  -7.286  0.00  0.00    +0.000 NA
ATOM     26  C   UNL     1       7.996  -4.305  -6.294  0.00  0.00    +0.000 C 
ENDBRANCH  19  26
ENDBRANCH  17  22
ENDBRANCH   1  17
TORSDOF 5
