REMARK  Name = 
REMARK  4 active torsions:
REMARK  status: ('A' for Active; 'I' for Inactive)
REMARK    1  A    between atoms: N_1  and  C_2
REMARK    2  A    between atoms: C_2  and  C_3
REMARK    3  A    between atoms: C_8  and  C_9
REMARK    4  A    between atoms: C_9  and  N_10
REMARK                            x       y       z     vdW  Elec       q    Type
REMARK                         _______ _______ _______ _____ _____    ______ ____
ROOT
ATOM      1  C   UNL     1       3.032  -1.234  -0.128  0.00  0.00    +0.000 A 
ATOM      2  C   UNL     1       4.387  -1.623  -0.274  0.00  0.00    +0.000 A 
ATOM      3  C   UNL     1       4.760  -2.940  -0.532  0.00  0.00    +0.000 A 
ATOM      4  C   UNL     1       3.786  -3.916  -0.622  0.00  0.00    +0.000 A 
ATOM      5  C   UNL     1       2.446  -3.559  -0.492  0.00  0.00    +0.000 A 
ATOM      6  C   UNL     1       2.028  -2.219  -0.262  0.00  0.00    +0.000 A 
ENDROOT
BRANCH   1   7
ATOM      7  C   UNL     1       2.822   0.215   0.253  0.00  0.00    +0.000 C 
BRANCH   7   8
ATOM      8  N   UNL     1       2.869   0.394   1.699  0.00  0.00    +0.000 NA
ATOM      9  H   UNL     1       2.110   1.016   1.979  0.00  0.00    +0.000 HD
ATOM     10  H   UNL     1       2.696  -0.493   2.166  0.00  0.00    +0.000 HD
ENDBRANCH   7   8
ENDBRANCH   1   7
BRANCH   6  11
ATOM     11  C   UNL     1       0.518  -2.086  -0.205  0.00  0.00    +0.000 C 
BRANCH  11  12
ATOM     12  N   UNL     1      -0.087  -0.770  -0.083  0.00  0.00    +0.000 N 
ATOM     13  C   UNL     1      -0.461   0.014  -1.142  0.00  0.00    +0.000 A 
ATOM     14  N   UNL     1      -1.193   1.031  -0.752  0.00  0.00    +0.000 NA
ATOM     15  C   UNL     1      -1.322   0.888   0.610  0.00  0.00    +0.000 A 
ATOM     16  C   UNL     1      -2.036   1.657   1.536  0.00  0.00    +0.000 A 
ATOM     17  N   UNL     1      -2.021   1.321   2.857  0.00  0.00    +0.000 NA
ATOM     18  C   UNL     1      -1.315   0.237   3.248  0.00  0.00    +0.000 A 
ATOM     19  C   UNL     1      -0.587  -0.594   2.405  0.00  0.00    +0.000 A 
ATOM     20  C   UNL     1      -0.625  -0.230   1.057  0.00  0.00    +0.000 A 
ENDBRANCH  11  12
ENDBRANCH   6  11
TORSDOF 4
