REMARK  Name = 
REMARK  8 active torsions:
REMARK  status: ('A' for Active; 'I' for Inactive)
REMARK    1  A    between atoms: C_1  and  O_2
REMARK    2  A    between atoms: O_2  and  C_3
REMARK    3  A    between atoms: C_7  and  N_8
REMARK    4  A    between atoms: N_8  and  C_9
REMARK    5  A    between atoms: C_9  and  C_10
REMARK    6  A    between atoms: C_13  and  C_14
REMARK    7  A    between atoms: C_14  and  N_15
REMARK    8  A    between atoms: C_16  and  C_18
REMARK                            x       y       z     vdW  Elec       q    Type
REMARK                         _______ _______ _______ _____ _____    ______ ____
ROOT
ATOM      1  C   UNL     1       8.132  -0.802   4.018  0.00  0.00    +0.000 A 
ATOM      2  C   UNL     1       8.079   0.592   4.045  0.00  0.00    +0.000 A 
ATOM      3  C   UNL     1       9.138   1.318   4.591  0.00  0.00    +0.000 A 
ATOM      4  C   UNL     1      10.231   0.624   5.105  0.00  0.00    +0.000 A 
ATOM      5  N   UNL     1      10.319  -0.730   5.059  0.00  0.00    +0.000 NA
ATOM      6  C   UNL     1       9.281  -1.405   4.514  0.00  0.00    +0.000 A 
ENDROOT
BRANCH   1   7
ATOM      7  C   UNL     1       7.001  -1.624   3.458  0.00  0.00    +0.000 C 
BRANCH   7   8
ATOM      8  N   UNL     1       7.093  -1.662   2.015  0.00  0.00    +0.000 N 
ATOM      9  H   UNL     1       8.030  -1.822   1.649  0.00  0.00    +0.000 HD
BRANCH   8  14
ATOM     10  C   UNL     1       6.000  -3.824  -0.569  0.00  0.00    +0.000 A 
ATOM     11  C   UNL     1       4.651  -4.026  -0.340  0.00  0.00    +0.000 A 
ATOM     12  C   UNL     1       4.087  -3.426   0.776  0.00  0.00    +0.000 A 
ATOM     13  C   UNL     1       4.890  -2.641   1.603  0.00  0.00    +0.000 A 
ATOM     14  C   UNL     1       6.240  -2.485   1.301  0.00  0.00    +0.000 A 
ATOM     15  N   UNL     1       6.796  -3.076   0.228  0.00  0.00    +0.000 NA
BRANCH  10  17
ATOM     16  C   UNL     1       7.917  -4.167  -1.856  0.00  0.00    +0.000 C 
ATOM     17  O   UNL     1       6.530  -4.439  -1.687  0.00  0.00    +0.000 OA
ENDBRANCH  10  17
ENDBRANCH   8  14
ENDBRANCH   7   8
ENDBRANCH   1   7
BRANCH   4  18
ATOM     18  C   UNL     1      11.380   1.374   5.732  0.00  0.00    +0.000 C 
BRANCH  18  19
ATOM     19  N   UNL     1      12.413   1.697   4.777  0.00  0.00    +0.000 N 
ATOM     20  C   UNL     1      12.521   2.935   4.193  0.00  0.00    +0.000 C 
ATOM     21  O   UNL     1      11.745   3.845   4.460  0.00  0.00    +0.000 OA
ATOM     22  H   UNL     1      12.923   0.907   4.394  0.00  0.00    +0.000 HD
BRANCH  20  23
ATOM     23  C   UNL     1      13.672   3.137   3.300  0.00  0.00    +0.000 A 
ATOM     24  C   UNL     1      14.112   4.428   3.039  0.00  0.00    +0.000 A 
ATOM     25  S   UNL     1      15.478   4.497   2.021  0.00  0.00    +0.000 S 
ATOM     26  C   UNL     1      15.507   2.804   1.858  0.00  0.00    +0.000 A 
ATOM     27  N   UNL     1      16.440   2.195   1.077  0.00  0.00    +0.000 NA
ATOM     28  C   UNL     1      16.329   0.910   1.015  0.00  0.00    +0.000 A 
ATOM     29  N   UNL     1      15.372   0.178   1.672  0.00  0.00    +0.000 N 
ATOM     30  C   UNL     1      14.445   0.745   2.512  0.00  0.00    +0.000 A 
ATOM     31  O   UNL     1      13.662   0.053   3.152  0.00  0.00    +0.000 OA
ATOM     32  C   UNL     1      14.502   2.193   2.589  0.00  0.00    +0.000 A 
ATOM     33  H   UNL     1      15.351  -0.828   1.601  0.00  0.00    +0.000 HD
ENDBRANCH  20  23
ENDBRANCH  18  19
ENDBRANCH   4  18
TORSDOF 7
