REMARK  Name = 
REMARK  10 active torsions:
REMARK  status: ('A' for Active; 'I' for Inactive)
REMARK    1  A    between atoms: N_1  and  C_2
REMARK    2  A    between atoms: C_2  and  C_3
REMARK    3  A    between atoms: C_3  and  N_4
REMARK    4  A    between atoms: C_3  and  C_20
REMARK    5  A    between atoms: N_4  and  C_5
REMARK    6  A    between atoms: C_5  and  C_6
REMARK    7  A    between atoms: C_9  and  C_10
REMARK    8  A    between atoms: C_10  and  N_11
REMARK    9  A    between atoms: N_11  and  C_12
REMARK   10  A    between atoms: C_12  and  C_13
REMARK                            x       y       z     vdW  Elec       q    Type
REMARK                         _______ _______ _______ _____ _____    ______ ____
ROOT
ATOM      1  N   UNL     1       2.355  -0.688   2.427  0.00  0.00    +0.000 NA
ATOM      2  H   UNL     1       2.703  -0.563   3.375  0.00  0.00    +0.000 HD
ENDROOT
BRANCH   1   3
ATOM      3  C   UNL     1       2.863   0.438   1.620  0.00  0.00    +0.000 C 
BRANCH   3   4
ATOM      4  C   UNL     1       4.382   0.422   1.810  0.00  0.00    +0.000 A 
ATOM      5  C   UNL     1       5.143  -0.738   1.896  0.00  0.00    +0.000 A 
ATOM      6  S   UNL     1       6.808  -0.450   2.117  0.00  0.00    +0.000 S 
ATOM      7  C   UNL     1       6.580   1.235   2.057  0.00  0.00    +0.000 A 
ATOM      8  N   UNL     1       7.634   2.087   2.154  0.00  0.00    +0.000 NA
ATOM      9  C   UNL     1       7.318   3.336   2.071  0.00  0.00    +0.000 A 
ATOM     10  N   UNL     1       6.039   3.811   1.914  0.00  0.00    +0.000 N 
ATOM     11  C   UNL     1       4.936   2.988   1.834  0.00  0.00    +0.000 A 
ATOM     12  O   UNL     1       3.803   3.442   1.709  0.00  0.00    +0.000 OA
ATOM     13  C   UNL     1       5.248   1.574   1.900  0.00  0.00    +0.000 A 
ATOM     14  H   UNL     1       5.867   4.802   1.861  0.00  0.00    +0.000 HD
ENDBRANCH   3   4
BRANCH   3  15
ATOM     15  C   UNL     1       2.527   0.382   0.092  0.00  0.00    +0.000 C 
BRANCH  15  16
ATOM     16  N   UNL     1       1.104   0.488  -0.263  0.00  0.00    +0.000 NA
ATOM     17  H   UNL     1       1.012   0.457  -1.278  0.00  0.00    +0.000 HD
ATOM     18  H   UNL     1       0.741   1.391   0.036  0.00  0.00    +0.000 HD
ENDBRANCH  15  16
ENDBRANCH   3  15
ENDBRANCH   1   3
BRANCH   1  19
ATOM     19  C   UNL     1       0.901  -0.801   2.479  0.00  0.00    +0.000 C 
BRANCH  19  20
ATOM     20  C   UNL     1       0.485  -1.884   3.444  0.00  0.00    +0.000 A 
ATOM     21  C   UNL     1       0.803  -1.824   4.804  0.00  0.00    +0.000 A 
ATOM     22  C   UNL     1       0.395  -2.843   5.658  0.00  0.00    +0.000 A 
ATOM     23  C   UNL     1      -0.345  -3.899   5.135  0.00  0.00    +0.000 A 
ATOM     24  N   UNL     1      -0.669  -3.985   3.819  0.00  0.00    +0.000 NA
ATOM     25  C   UNL     1      -0.246  -2.985   3.011  0.00  0.00    +0.000 A 
BRANCH  23  26
ATOM     26  C   UNL     1      -0.803  -5.031   6.033  0.00  0.00    +0.000 C 
BRANCH  26  27
ATOM     27  N   UNL     1      -0.374  -6.363   5.572  0.00  0.00    +0.000 NA
ATOM     28  H   UNL     1      -0.633  -6.406   4.581  0.00  0.00    +0.000 HD
BRANCH  27  29
ATOM     29  C   UNL     1       1.082  -6.508   5.642  0.00  0.00    +0.000 C 
BRANCH  29  30
ATOM     30  C   UNL     1       1.456  -7.888   5.254  0.00  0.00    +0.000 A 
ATOM     31  C   UNL     1       2.566  -8.411   4.627  0.00  0.00    +0.000 A 
ATOM     32  N   UNL     1       2.451  -9.770   4.479  0.00  0.00    +0.000 NA
ATOM     33  C   UNL     1       1.286 -10.078   5.002  0.00  0.00    +0.000 A 
ATOM     34  N   UNL     1       0.655  -8.976   5.498  0.00  0.00    +0.000 N 
ATOM     35  H   UNL     1      -0.259  -8.934   5.929  0.00  0.00    +0.000 HD
ENDBRANCH  29  30
ENDBRANCH  27  29
ENDBRANCH  26  27
ENDBRANCH  23  26
ENDBRANCH  19  20
ENDBRANCH   1  19
TORSDOF 10
