REMARK  Name = 
REMARK  10 active torsions:
REMARK  status: ('A' for Active; 'I' for Inactive)
REMARK    1  A    between atoms: C_1  and  O_2
REMARK    2  A    between atoms: O_2  and  C_3
REMARK    3  A    between atoms: C_10  and  C_11
REMARK    4  A    between atoms: N_13  and  C_14
REMARK    5  A    between atoms: C_14  and  C_15
REMARK    6  A    between atoms: C_18  and  C_19
REMARK    7  A    between atoms: C_19  and  O_20
REMARK    8  A    between atoms: O_20  and  C_21
REMARK    9  A    between atoms: C_21  and  C_22
REMARK   10  A    between atoms: C_26  and  C_27
REMARK                            x       y       z     vdW  Elec       q    Type
REMARK                         _______ _______ _______ _____ _____    ______ ____
ROOT
ATOM      1  C   UNL     1       3.087  -0.135  -3.375  0.00  0.00    +0.000 C 
ENDROOT
BRANCH   1   2
ATOM      2  C   UNL     1       1.937  -1.074  -3.124  0.00  0.00    +0.000 A 
ATOM      3  C   UNL     1       2.118  -2.462  -3.179  0.00  0.00    +0.000 A 
ATOM      4  C   UNL     1       1.051  -3.331  -2.923  0.00  0.00    +0.000 A 
ATOM      5  C   UNL     1      -0.215  -2.833  -2.592  0.00  0.00    +0.000 A 
ATOM      6  C   UNL     1      -0.406  -1.443  -2.593  0.00  0.00    +0.000 A 
ATOM      7  C   UNL     1       0.657  -0.573  -2.858  0.00  0.00    +0.000 A 
BRANCH   5   8
ATOM      8  C   UNL     1      -1.379  -3.756  -2.289  0.00  0.00    +0.000 C 
BRANCH   8   9
ATOM      9  O   UNL     1      -1.020  -4.973  -1.615  0.00  0.00    +0.000 OA
BRANCH   9  10
ATOM     10  C   UNL     1      -0.590  -4.740  -0.274  0.00  0.00    +0.000 C 
BRANCH  10  11
ATOM     11  C   UNL     1      -0.523  -5.981   0.574  0.00  0.00    +0.000 A 
ATOM     12  C   UNL     1      -0.971  -7.234   0.176  0.00  0.00    +0.000 A 
ATOM     13  N   UNL     1      -0.933  -8.337   0.961  0.00  0.00    +0.000 NA
ATOM     14  C   UNL     1      -0.431  -8.192   2.208  0.00  0.00    +0.000 A 
ATOM     15  C   UNL     1       0.042  -6.990   2.717  0.00  0.00    +0.000 A 
ATOM     16  C   UNL     1       0.550  -6.858   4.116  0.00  0.00    +0.000 C 
ATOM     17  C   UNL     1      -0.007  -5.877   1.876  0.00  0.00    +0.000 A 
ENDBRANCH  10  11
ENDBRANCH   9  10
ENDBRANCH   8   9
ENDBRANCH   5   8
ENDBRANCH   1   2
BRANCH   1  20
ATOM     18  C   UNL     1       4.259   0.943  -5.235  0.00  0.00    +0.000 C 
ATOM     19  O   UNL     1       5.063   1.454  -4.456  0.00  0.00    +0.000 OA
ATOM     20  N   UNL     1       3.243   0.150  -4.779  0.00  0.00    +0.000 N 
ATOM     21  H   UNL     1       2.553  -0.221  -5.419  0.00  0.00    +0.000 HD
BRANCH  18  29
ATOM     22  C   UNL     1       2.437  -0.170  -7.944  0.00  0.00    +0.000 A 
ATOM     23  N   UNL     1       1.971  -0.513  -9.162  0.00  0.00    +0.000 NA
ATOM     24  C   UNL     1       2.614  -0.050 -10.238  0.00  0.00    +0.000 A 
ATOM     25  N   UNL     1       3.680   0.744 -10.251  0.00  0.00    +0.000 NA
ATOM     26  C   UNL     1       4.119   1.054  -9.020  0.00  0.00    +0.000 A 
ATOM     27  S   UNL     1       5.468   2.071  -8.850  0.00  0.00    +0.000 S 
ATOM     28  C   UNL     1       5.400   1.957  -7.158  0.00  0.00    +0.000 A 
ATOM     29  C   UNL     1       4.370   1.150  -6.688  0.00  0.00    +0.000 A 
ATOM     30  C   UNL     1       3.582   0.636  -7.806  0.00  0.00    +0.000 A 
BRANCH  22  32
ATOM     31  C   UNL     1       0.567  -1.347  -7.140  0.00  0.00    +0.000 C 
ATOM     32  O   UNL     1       1.750  -0.612  -6.830  0.00  0.00    +0.000 OA
ENDBRANCH  22  32
ENDBRANCH  18  29
ENDBRANCH   1  20
TORSDOF 8
