REMARK  Name = 
REMARK  8 active torsions:
REMARK  status: ('A' for Active; 'I' for Inactive)
REMARK    1  A    between atoms: C_2  and  C_3
REMARK    2  A    between atoms: C_7  and  C_8
REMARK    3  A    between atoms: C_8  and  N_9
REMARK    4  A    between atoms: N_9  and  C_10
REMARK    5  A    between atoms: C_10  and  C_11
REMARK    6  A    between atoms: C_14  and  C_15
REMARK    7  A    between atoms: C_15  and  N_16
REMARK    8  A    between atoms: C_17  and  C_19
REMARK                            x       y       z     vdW  Elec       q    Type
REMARK                         _______ _______ _______ _____ _____    ______ ____
ROOT
ATOM      1  C   UNL     1       6.053   3.330   0.176  0.00  0.00    +0.000 A 
ATOM      2  C   UNL     1       6.914   4.423   0.229  0.00  0.00    +0.000 A 
ATOM      3  C   UNL     1       8.288   4.202   0.274  0.00  0.00    +0.000 A 
ATOM      4  C   UNL     1       8.776   2.894   0.292  0.00  0.00    +0.000 A 
ATOM      5  C   UNL     1       7.845   1.865   0.220  0.00  0.00    +0.000 A 
ATOM      6  N   UNL     1       6.503   2.051   0.161  0.00  0.00    +0.000 NA
ENDROOT
BRANCH   1   7
ATOM      7  C   UNL     1       4.553   3.543   0.081  0.00  0.00    +0.000 C 
BRANCH   7   8
ATOM      8  N   UNL     1       4.128   4.342  -1.080  0.00  0.00    +0.000 NA
ATOM      9  H   UNL     1       3.118   4.456  -1.038  0.00  0.00    +0.000 HD
BRANCH   8  10
ATOM     10  C   UNL     1       4.461   3.668  -2.338  0.00  0.00    +0.000 C 
BRANCH  10  15
ATOM     11  C   UNL     1       4.242   6.600  -4.774  0.00  0.00    +0.000 A 
ATOM     12  C   UNL     1       3.355   6.100  -5.732  0.00  0.00    +0.000 A 
ATOM     13  C   UNL     1       2.820   4.819  -5.587  0.00  0.00    +0.000 A 
ATOM     14  C   UNL     1       3.167   4.034  -4.486  0.00  0.00    +0.000 A 
ATOM     15  C   UNL     1       4.057   4.520  -3.519  0.00  0.00    +0.000 A 
ATOM     16  C   UNL     1       4.595   5.809  -3.676  0.00  0.00    +0.000 A 
BRANCH  11  18
ATOM     17  N   UNL     1       5.242   8.979  -5.033  0.00  0.00    +0.000 NA
ATOM     18  C   UNL     1       4.791   7.916  -4.915  0.00  0.00    +0.000 C 
ENDBRANCH  11  18
ENDBRANCH  10  15
ENDBRANCH   8  10
ENDBRANCH   7   8
ENDBRANCH   1   7
BRANCH   4  19
ATOM     19  C   UNL     1      10.247   2.609   0.348  0.00  0.00    +0.000 C 
BRANCH  19  20
ATOM     20  N   UNL     1      10.814   2.515  -0.972  0.00  0.00    +0.000 N 
ATOM     21  C   UNL     1      12.120   2.136  -1.157  0.00  0.00    +0.000 C 
ATOM     22  O   UNL     1      12.842   1.818  -0.217  0.00  0.00    +0.000 OA
ATOM     23  H   UNL     1      10.329   2.999  -1.721  0.00  0.00    +0.000 HD
BRANCH  21  24
ATOM     24  C   UNL     1      12.591   2.066  -2.545  0.00  0.00    +0.000 A 
ATOM     25  C   UNL     1      13.672   1.256  -2.865  0.00  0.00    +0.000 A 
ATOM     26  S   UNL     1      14.055   1.251  -4.527  0.00  0.00    +0.000 S 
ATOM     27  C   UNL     1      12.821   2.370  -4.871  0.00  0.00    +0.000 A 
ATOM     28  N   UNL     1      12.619   2.821  -6.138  0.00  0.00    +0.000 NA
ATOM     29  C   UNL     1      11.671   3.690  -6.251  0.00  0.00    +0.000 A 
ATOM     30  N   UNL     1      10.900   4.144  -5.211  0.00  0.00    +0.000 N 
ATOM     31  C   UNL     1      11.046   3.696  -3.922  0.00  0.00    +0.000 A 
ATOM     32  O   UNL     1      10.310   4.086  -3.022  0.00  0.00    +0.000 OA
ATOM     33  C   UNL     1      12.113   2.727  -3.737  0.00  0.00    +0.000 A 
ATOM     34  H   UNL     1      10.167   4.820  -5.369  0.00  0.00    +0.000 HD
ENDBRANCH  21  24
ENDBRANCH  19  20
ENDBRANCH   4  19
TORSDOF 8
