REMARK  Name = 
REMARK  5 active torsions:
REMARK  status: ('A' for Active; 'I' for Inactive)
REMARK    1  A    between atoms: N_1  and  C_2
REMARK    2  A    between atoms: C_2  and  C_3
REMARK    3  A    between atoms: C_6  and  O_7
REMARK    4  A    between atoms: O_7  and  C_8
REMARK    5  A    between atoms: C_8  and  C_9
REMARK                            x       y       z     vdW  Elec       q    Type
REMARK                         _______ _______ _______ _____ _____    ______ ____
ROOT
ATOM      1  C   UNL     1       1.186   0.700   2.155  0.00  0.00    +0.000 A 
ATOM      2  C   UNL     1       1.619  -0.149   3.173  0.00  0.00    +0.000 A 
ATOM      3  C   UNL     1       2.510   0.337   4.130  0.00  0.00    +0.000 A 
ATOM      4  C   UNL     1       2.940   1.657   4.062  0.00  0.00    +0.000 A 
ATOM      5  C   UNL     1       2.485   2.421   2.994  0.00  0.00    +0.000 A 
ATOM      6  N   UNL     1       1.617   1.982   2.052  0.00  0.00    +0.000 NA
ENDROOT
BRANCH   1   7
ATOM      7  C   UNL     1       0.209   0.221   1.106  0.00  0.00    +0.000 C 
BRANCH   7   8
ATOM      8  N   UNL     1      -1.067  -0.236   1.668  0.00  0.00    +0.000 NA
ATOM      9  H   UNL     1      -1.703  -0.433   0.898  0.00  0.00    +0.000 HD
ATOM     10  H   UNL     1      -1.480   0.547   2.176  0.00  0.00    +0.000 HD
ENDBRANCH   7   8
ENDBRANCH   1   7
BRANCH   4  11
ATOM     11  O   UNL     1       3.774   2.079   5.060  0.00  0.00    +0.000 OA
BRANCH  11  12
ATOM     12  C   UNL     1       3.838   3.500   5.224  0.00  0.00    +0.000 C 
BRANCH  12  13
ATOM     13  C   UNL     1       4.432   3.839   6.601  0.00  0.00    +0.000 C 
ATOM     14  C   UNL     1       4.352   5.350   6.864  0.00  0.00    +0.000 C 
ATOM     15  C   UNL     1       5.375   6.134   6.043  0.00  0.00    +0.000 C 
ATOM     16  N   UNL     1       6.737   5.645   6.259  0.00  0.00    +0.000 NA
ATOM     17  C   UNL     1       6.858   4.221   5.937  0.00  0.00    +0.000 C 
ATOM     18  C   UNL     1       5.887   3.368   6.754  0.00  0.00    +0.000 C 
ATOM     19  H   UNL     1       6.987   5.784   7.238  0.00  0.00    +0.000 HD
ENDBRANCH  12  13
ENDBRANCH  11  12
ENDBRANCH   4  11
TORSDOF 5
