REMARK  Name = 
REMARK  4 active torsions:
REMARK  status: ('A' for Active; 'I' for Inactive)
REMARK    1  A    between atoms: C_2  and  C_4
REMARK    2  A    between atoms: N_8  and  C_9
REMARK    3  A    between atoms: C_9  and  C_10
REMARK    4  A    between atoms: C_14  and  C_15
REMARK                            x       y       z     vdW  Elec       q    Type
REMARK                         _______ _______ _______ _____ _____    ______ ____
ROOT
ATOM      1  C   UNL     1       7.546   1.293  -1.560  0.00  0.00    +0.000 A 
ATOM      2  C   UNL     1       7.116   2.587  -1.295  0.00  0.00    +0.000 A 
ATOM      3  C   UNL     1       6.226   3.202  -2.175  0.00  0.00    +0.000 A 
ATOM      4  C   UNL     1       5.792   2.523  -3.309  0.00  0.00    +0.000 A 
ATOM      5  N   UNL     1       4.843   3.011  -4.174  0.00  0.00    +0.000 N 
ATOM      6  N   UNL     1       6.235   1.282  -3.595  0.00  0.00    +0.000 NA
ATOM      7  C   UNL     1       7.105   0.695  -2.729  0.00  0.00    +0.000 A 
ATOM      8  H   UNL     1       4.736   2.386  -4.966  0.00  0.00    +0.000 HD
ENDROOT
BRANCH   1  10
ATOM      9  N   UNL     1       8.365   0.870   0.682  0.00  0.00    +0.000 N 
ATOM     10  C   UNL     1       8.429   0.541  -0.646  0.00  0.00    +0.000 C 
ATOM     11  O   UNL     1       9.148  -0.360  -1.044  0.00  0.00    +0.000 OA
ATOM     12  H   UNL     1       8.884   0.274   1.317  0.00  0.00    +0.000 HD
ATOM     13  H   UNL     1       7.610   1.416   1.071  0.00  0.00    +0.000 HD
ENDBRANCH   1  10
BRANCH   5  14
ATOM     14  C   UNL     1       4.623   4.417  -4.429  0.00  0.00    +0.000 C 
BRANCH  14  15
ATOM     15  C   UNL     1       5.497   5.023  -5.507  0.00  0.00    +0.000 A 
ATOM     16  C   UNL     1       5.325   6.387  -5.793  0.00  0.00    +0.000 A 
ATOM     17  C   UNL     1       6.092   7.011  -6.772  0.00  0.00    +0.000 A 
ATOM     18  C   UNL     1       7.056   6.285  -7.468  0.00  0.00    +0.000 A 
ATOM     19  C   UNL     1       7.294   4.926  -7.192  0.00  0.00    +0.000 A 
ATOM     20  C   UNL     1       6.477   4.310  -6.220  0.00  0.00    +0.000 A 
BRANCH  19  21
ATOM     21  C   UNL     1       8.409   4.195  -7.838  0.00  0.00    +0.000 A 
ATOM     22  C   UNL     1       9.622   4.840  -8.124  0.00  0.00    +0.000 A 
ATOM     23  C   UNL     1      10.673   4.119  -8.669  0.00  0.00    +0.000 A 
ATOM     24  N   UNL     1      10.612   2.804  -8.950  0.00  0.00    +0.000 NA
ATOM     25  C   UNL     1       9.446   2.187  -8.675  0.00  0.00    +0.000 A 
ATOM     26  C   UNL     1       8.336   2.828  -8.139  0.00  0.00    +0.000 A 
ENDBRANCH  19  21
ENDBRANCH  14  15
ENDBRANCH   5  14
TORSDOF 4
