REMARK  Name = 
REMARK  4 active torsions:
REMARK  status: ('A' for Active; 'I' for Inactive)
REMARK    1  A    between atoms: C_2  and  C_4
REMARK    2  A    between atoms: N_8  and  C_9
REMARK    3  A    between atoms: C_9  and  C_10
REMARK    4  A    between atoms: C_14  and  C_15
REMARK                            x       y       z     vdW  Elec       q    Type
REMARK                         _______ _______ _______ _____ _____    ______ ____
ROOT
ATOM      1  C   UNL     1       7.788  -1.230  -0.924  0.00  0.00    +0.000 A 
ATOM      2  C   UNL     1       7.757  -1.957  -2.108  0.00  0.00    +0.000 A 
ATOM      3  C   UNL     1       6.961  -3.100  -2.185  0.00  0.00    +0.000 A 
ATOM      4  C   UNL     1       6.218  -3.503  -1.080  0.00  0.00    +0.000 A 
ATOM      5  N   UNL     1       5.361  -4.566  -1.092  0.00  0.00    +0.000 N 
ATOM      6  N   UNL     1       6.268  -2.821   0.083  0.00  0.00    +0.000 NA
ATOM      7  C   UNL     1       7.050  -1.711   0.144  0.00  0.00    +0.000 A 
ATOM      8  H   UNL     1       4.982  -4.778  -0.178  0.00  0.00    +0.000 HD
ENDROOT
BRANCH   1  10
ATOM      9  N   UNL     1       8.804   0.743  -1.904  0.00  0.00    +0.000 N 
ATOM     10  C   UNL     1       8.568   0.014  -0.771  0.00  0.00    +0.000 C 
ATOM     11  O   UNL     1       8.953   0.400   0.324  0.00  0.00    +0.000 OA
ATOM     12  H   UNL     1       9.252   1.641  -1.776  0.00  0.00    +0.000 HD
ATOM     13  H   UNL     1       8.300   0.591  -2.767  0.00  0.00    +0.000 HD
ENDBRANCH   1  10
BRANCH   5  14
ATOM     14  C   UNL     1       5.170  -5.502  -2.171  0.00  0.00    +0.000 C 
BRANCH  14  15
ATOM     15  C   UNL     1       6.187  -6.617  -2.145  0.00  0.00    +0.000 A 
ATOM     16  C   UNL     1       6.243  -7.495  -1.056  0.00  0.00    +0.000 A 
ATOM     17  C   UNL     1       7.142  -8.556  -1.053  0.00  0.00    +0.000 A 
ATOM     18  C   UNL     1       7.978  -8.768  -2.151  0.00  0.00    +0.000 A 
ATOM     19  C   UNL     1       7.932  -7.930  -3.280  0.00  0.00    +0.000 A 
ATOM     20  C   UNL     1       7.046  -6.835  -3.238  0.00  0.00    +0.000 A 
BRANCH  19  21
ATOM     21  C   UNL     1       8.733  -8.215  -4.487  0.00  0.00    +0.000 A 
ATOM     22  C   UNL     1       9.016  -9.517  -4.909  0.00  0.00    +0.000 A 
ATOM     23  N   UNL     1       9.720  -9.811  -6.032  0.00  0.00    +0.000 NA
ATOM     24  C   UNL     1      10.137  -8.741  -6.738  0.00  0.00    +0.000 A 
ATOM     25  C   UNL     1       9.862  -7.444  -6.342  0.00  0.00    +0.000 A 
ATOM     26  N   UNL     1       9.155  -7.152  -5.225  0.00  0.00    +0.000 NA
ENDBRANCH  19  21
ENDBRANCH  14  15
ENDBRANCH   5  14
TORSDOF 4
