REMARK  Name = 
REMARK  3 active torsions:
REMARK  status: ('A' for Active; 'I' for Inactive)
REMARK    1  A    between atoms: C_2  and  C_4
REMARK    2  A    between atoms: N_11  and  C_12
REMARK    3  A    between atoms: C_12  and  C_13
REMARK                            x       y       z     vdW  Elec       q    Type
REMARK                         _______ _______ _______ _____ _____    ______ ____
ROOT
ATOM      1  C   UNL     1       3.284   0.920  -1.073  0.00  0.00    +0.000 A 
ATOM      2  C   UNL     1       2.862   2.229  -1.288  0.00  0.00    +0.000 A 
ATOM      3  N   UNL     1       3.407   3.105  -2.174  0.00  0.00    +0.000 NA
ATOM      4  C   UNL     1       4.419   2.571  -2.887  0.00  0.00    +0.000 A 
ATOM      5  C   UNL     1       4.915   1.272  -2.792  0.00  0.00    +0.000 A 
ATOM      6  C   UNL     1       5.958   1.149  -3.746  0.00  0.00    +0.000 A 
ATOM      7  C   UNL     1       6.087   2.365  -4.381  0.00  0.00    +0.000 A 
ATOM      8  N   UNL     1       5.151   3.222  -3.852  0.00  0.00    +0.000 N 
ATOM      9  C   UNL     1       4.328   0.411  -1.849  0.00  0.00    +0.000 A 
ENDROOT
BRANCH   1  11
ATOM     10  N   UNL     1       3.324  -0.892   0.547  0.00  0.00    +0.000 N 
ATOM     11  C   UNL     1       2.602   0.113  -0.042  0.00  0.00    +0.000 C 
ATOM     12  O   UNL     1       1.453   0.352   0.306  0.00  0.00    +0.000 OA
ATOM     13  H   UNL     1       2.880  -1.374   1.319  0.00  0.00    +0.000 HD
ATOM     14  H   UNL     1       4.328  -0.967   0.464  0.00  0.00    +0.000 HD
ENDBRANCH   1  11
BRANCH   8  15
ATOM     15  C   UNL     1       4.989   4.619  -4.232  0.00  0.00    +0.000 C 
BRANCH  15  16
ATOM     16  C   UNL     1       4.065   4.753  -5.418  0.00  0.00    +0.000 A 
ATOM     17  C   UNL     1       4.565   4.713  -6.727  0.00  0.00    +0.000 A 
ATOM     18  C   UNL     1       3.693   4.752  -7.819  0.00  0.00    +0.000 A 
ATOM     19  C   UNL     1       2.313   4.834  -7.616  0.00  0.00    +0.000 A 
ATOM     20 CL   UNL     1       1.295   4.830  -9.012  0.00  0.00    +0.000 Cl
ATOM     21  C   UNL     1       1.804   4.900  -6.315  0.00  0.00    +0.000 A 
ATOM     22 CL   UNL     1       0.112   5.018  -5.986  0.00  0.00    +0.000 Cl
ATOM     23  C   UNL     1       2.678   4.859  -5.223  0.00  0.00    +0.000 A 
ENDBRANCH  15  16
ENDBRANCH   8  15
TORSDOF 3
