REMARK  Name = 
REMARK  3 active torsions:
REMARK  status: ('A' for Active; 'I' for Inactive)
REMARK    1  A    between atoms: C_2  and  C_4
REMARK    2  A    between atoms: N_8  and  C_9
REMARK    3  A    between atoms: C_9  and  C_10
REMARK                            x       y       z     vdW  Elec       q    Type
REMARK                         _______ _______ _______ _____ _____    ______ ____
ROOT
ATOM      1  C   UNL     1       4.080   0.700   3.403  0.00  0.00    +0.000 A 
ATOM      2  C   UNL     1       4.482   0.210   2.165  0.00  0.00    +0.000 A 
ATOM      3  C   UNL     1       5.011  -1.078   2.089  0.00  0.00    +0.000 A 
ATOM      4  C   UNL     1       5.098  -1.871   3.236  0.00  0.00    +0.000 A 
ATOM      5  N   UNL     1       5.699  -3.142   3.083  0.00  0.00    +0.000 N 
ATOM      6  N   UNL     1       4.675  -1.417   4.433  0.00  0.00    +0.000 NA
ATOM      7  C   UNL     1       4.210  -0.140   4.499  0.00  0.00    +0.000 A 
ATOM      8  H   UNL     1       6.677  -2.998   2.847  0.00  0.00    +0.000 HD
ENDROOT
BRANCH   1  10
ATOM      9  N   UNL     1       2.984   2.687   2.524  0.00  0.00    +0.000 N 
ATOM     10  C   UNL     1       3.574   2.075   3.594  0.00  0.00    +0.000 C 
ATOM     11  O   UNL     1       3.663   2.642   4.676  0.00  0.00    +0.000 OA
ATOM     12  H   UNL     1       2.572   3.597   2.697  0.00  0.00    +0.000 HD
ATOM     13  H   UNL     1       2.672   2.184   1.706  0.00  0.00    +0.000 HD
ENDBRANCH   1  10
BRANCH   5  14
ATOM     14  C   UNL     1       5.462  -4.247   4.035  0.00  0.00    +0.000 C 
ATOM     15  C   UNL     1       5.238  -5.609   3.379  0.00  0.00    +0.000 C 
ATOM     16  C   UNL     1       4.109  -4.931   4.082  0.00  0.00    +0.000 C 
BRANCH  14  17
ATOM     17  C   UNL     1       6.308  -4.226   5.304  0.00  0.00    +0.000 A 
ATOM     18  C   UNL     1       5.865  -3.586   6.468  0.00  0.00    +0.000 A 
ATOM     19  C   UNL     1       6.648  -3.618   7.613  0.00  0.00    +0.000 A 
ATOM     20  N   UNL     1       7.836  -4.251   7.690  0.00  0.00    +0.000 NA
ATOM     21  C   UNL     1       8.261  -4.862   6.567  0.00  0.00    +0.000 A 
ATOM     22  C   UNL     1       7.553  -4.869   5.375  0.00  0.00    +0.000 A 
ENDBRANCH  14  17
ENDBRANCH   5  14
TORSDOF 3
