REMARK  Name = 
REMARK  7 active torsions:
REMARK  status: ('A' for Active; 'I' for Inactive)
REMARK    1  A    between atoms: C_1  and  C_2
REMARK    2  A    between atoms: C_2  and  N_3
REMARK    3  A    between atoms: C_2  and  C_16
REMARK    4  A    between atoms: C_4  and  C_6
REMARK    5  A    between atoms: C_19  and  C_20
REMARK    6  A    between atoms: C_20  and  N_21
REMARK    7  A    between atoms: C_22  and  C_24
REMARK                            x       y       z     vdW  Elec       q    Type
REMARK                         _______ _______ _______ _____ _____    ______ ____
ROOT
ATOM      1  C   UNL     1       3.637  -0.980   0.182  0.00  0.00    +0.000 C 
ATOM      2  C   UNL     1       2.552   0.083  -0.021  0.00  0.00    +0.000 C 
ENDROOT
BRANCH   2   3
ATOM      3  C   UNL     1       3.031   1.353  -0.718  0.00  0.00    +0.000 A 
ATOM      4  C   UNL     1       2.383   2.564  -0.427  0.00  0.00    +0.000 A 
ATOM      5  C   UNL     1       2.758   3.760  -1.052  0.00  0.00    +0.000 A 
ATOM      6  C   UNL     1       3.784   3.777  -2.004  0.00  0.00    +0.000 A 
ATOM      7  C   UNL     1       4.442   2.575  -2.294  0.00  0.00    +0.000 A 
ATOM      8  C   UNL     1       4.061   1.377  -1.671  0.00  0.00    +0.000 A 
BRANCH   6   9
ATOM      9  C   UNL     1       4.158   5.054  -2.711  0.00  0.00    +0.000 C 
BRANCH   9  10
ATOM     10  N   UNL     1       5.189   5.788  -2.025  0.00  0.00    +0.000 N 
ATOM     11  C   UNL     1       5.643   7.008  -2.497  0.00  0.00    +0.000 C 
ATOM     12  O   UNL     1       5.202   7.500  -3.532  0.00  0.00    +0.000 OA
ATOM     13  H   UNL     1       5.599   5.435  -1.165  0.00  0.00    +0.000 HD
BRANCH  11  14
ATOM     14  C   UNL     1       6.665   7.620  -1.645  0.00  0.00    +0.000 A 
ATOM     15  N   UNL     1       7.117   7.049  -0.540  0.00  0.00    +0.000 NA
ATOM     16  C   UNL     1       8.056   7.875   0.048  0.00  0.00    +0.000 A 
ATOM     17  C   UNL     1       8.309   9.060  -0.612  0.00  0.00    +0.000 A 
ATOM     18  S   UNL     1       7.342   9.149  -2.025  0.00  0.00    +0.000 S 
ENDBRANCH  11  14
ENDBRANCH   9  10
ENDBRANCH   6   9
ENDBRANCH   2   3
BRANCH   2  19
ATOM     19  N   UNL     1       1.418  -0.466  -0.744  0.00  0.00    +0.000 N 
ATOM     20  C   UNL     1       0.455  -1.242  -0.146  0.00  0.00    +0.000 C 
ATOM     21  O   UNL     1       0.415  -1.437   1.064  0.00  0.00    +0.000 OA
ATOM     22  H   UNL     1       1.486  -0.459  -1.754  0.00  0.00    +0.000 HD
BRANCH  20  23
ATOM     23  C   UNL     1      -0.573  -1.785  -1.044  0.00  0.00    +0.000 A 
ATOM     24  C   UNL     1      -1.862  -2.013  -0.586  0.00  0.00    +0.000 A 
ATOM     25  S   UNL     1      -2.910  -2.633  -1.785  0.00  0.00    +0.000 S 
ATOM     26  C   UNL     1      -1.656  -2.675  -2.935  0.00  0.00    +0.000 A 
ATOM     27  N   UNL     1      -1.870  -3.153  -4.194  0.00  0.00    +0.000 NA
ATOM     28  C   UNL     1      -0.822  -3.161  -4.945  0.00  0.00    +0.000 A 
ATOM     29  N   UNL     1       0.420  -2.723  -4.561  0.00  0.00    +0.000 N 
ATOM     30  C   UNL     1       0.670  -2.182  -3.322  0.00  0.00    +0.000 A 
ATOM     31  O   UNL     1       1.767  -1.712  -3.046  0.00  0.00    +0.000 OA
ATOM     32  C   UNL     1      -0.469  -2.187  -2.426  0.00  0.00    +0.000 A 
ATOM     33  H   UNL     1       1.196  -2.731  -5.208  0.00  0.00    +0.000 HD
ENDBRANCH  20  23
ENDBRANCH   2  19
TORSDOF 6
