REMARK  Name = 
REMARK  8 active torsions:
REMARK  status: ('A' for Active; 'I' for Inactive)
REMARK    1  A    between atoms: N_1  and  C_2
REMARK    2  A    between atoms: C_2  and  C_3
REMARK    3  A    between atoms: C_3  and  N_4
REMARK    4  A    between atoms: C_3  and  C_17
REMARK    5  A    between atoms: C_5  and  C_7
REMARK    6  A    between atoms: C_20  and  O_21
REMARK    7  A    between atoms: O_21  and  C_22
REMARK    8  A    between atoms: C_22  and  C_23
REMARK                            x       y       z     vdW  Elec       q    Type
REMARK                         _______ _______ _______ _____ _____    ______ ____
ROOT
ATOM      1  C   UNL     1       2.901   1.389   0.012  0.00  0.00    +0.000 C 
ENDROOT
BRANCH   1   2
ATOM      2  C   UNL     1       4.425   1.458   0.062  0.00  0.00    +0.000 A 
ATOM      3  C   UNL     1       5.154   2.128  -0.932  0.00  0.00    +0.000 A 
ATOM      4  C   UNL     1       6.549   2.225  -0.850  0.00  0.00    +0.000 A 
ATOM      5  C   UNL     1       7.235   1.667   0.230  0.00  0.00    +0.000 A 
ATOM      6  C   UNL     1       6.523   0.955   1.195  0.00  0.00    +0.000 A 
ATOM      7  C   UNL     1       5.131   0.866   1.121  0.00  0.00    +0.000 A 
BRANCH   5   8
ATOM      8  O   UNL     1       8.591   1.875   0.264  0.00  0.00    +0.000 OA
BRANCH   8   9
ATOM      9  C   UNL     1       9.163   1.803   1.578  0.00  0.00    +0.000 C 
BRANCH   9  10
ATOM     10  C   UNL     1      10.496   2.509   1.632  0.00  0.00    +0.000 A 
ATOM     11  C   UNL     1      11.574   2.050   0.881  0.00  0.00    +0.000 A 
ATOM     12  C   UNL     1      12.798   2.702   0.999  0.00  0.00    +0.000 A 
ATOM     13  C   UNL     1      12.913   3.791   1.857  0.00  0.00    +0.000 A 
ATOM     14  C   UNL     1      11.794   4.182   2.570  0.00  0.00    +0.000 A 
ATOM     15  N   UNL     1      10.598   3.566   2.482  0.00  0.00    +0.000 NA
ENDBRANCH   9  10
ENDBRANCH   8   9
ENDBRANCH   5   8
ENDBRANCH   1   2
BRANCH   1  16
ATOM     16  N   UNL     1       2.368   2.145   1.144  0.00  0.00    +0.000 N 
ATOM     17  C   UNL     1       1.025   2.373   1.318  0.00  0.00    +0.000 C 
ATOM     18  O   UNL     1       0.172   1.850   0.605  0.00  0.00    +0.000 OA
ATOM     19  H   UNL     1       3.018   2.779   1.601  0.00  0.00    +0.000 HD
BRANCH  17  20
ATOM     20  C   UNL     1       0.639   3.231   2.438  0.00  0.00    +0.000 A 
ATOM     21  C   UNL     1      -0.589   3.045   3.059  0.00  0.00    +0.000 A 
ATOM     22  S   UNL     1      -0.910   4.183   4.288  0.00  0.00    +0.000 S 
ATOM     23  C   UNL     1       0.564   4.986   4.002  0.00  0.00    +0.000 A 
ATOM     24  N   UNL     1       0.888   6.121   4.679  0.00  0.00    +0.000 NA
ATOM     25  C   UNL     1       2.016   6.643   4.331  0.00  0.00    +0.000 A 
ATOM     26  N   UNL     1       2.865   6.118   3.391  0.00  0.00    +0.000 N 
ATOM     27  C   UNL     1       2.610   4.939   2.732  0.00  0.00    +0.000 A 
ATOM     28  O   UNL     1       3.435   4.427   1.984  0.00  0.00    +0.000 OA
ATOM     29  C   UNL     1       1.318   4.354   3.031  0.00  0.00    +0.000 A 
ATOM     30  H   UNL     1       3.756   6.552   3.197  0.00  0.00    +0.000 HD
ENDBRANCH  17  20
ENDBRANCH   1  16
BRANCH   1  31
ATOM     31  C   UNL     1       2.398  -0.091  -0.007  0.00  0.00    +0.000 C 
BRANCH  31  32
ATOM     32  N   UNL     1       2.921  -0.904  -1.115  0.00  0.00    +0.000 NA
ATOM     33  H   UNL     1       2.702  -1.882  -0.932  0.00  0.00    +0.000 HD
ATOM     34  H   UNL     1       3.939  -0.836  -1.137  0.00  0.00    +0.000 HD
ENDBRANCH  31  32
ENDBRANCH   1  31
TORSDOF 8
