REMARK  Name = 
REMARK  7 active torsions:
REMARK  status: ('A' for Active; 'I' for Inactive)
REMARK    1  A    between atoms: N_1  and  C_2
REMARK    2  A    between atoms: C_2  and  C_3
REMARK    3  A    between atoms: N_7  and  C_8
REMARK    4  A    between atoms: C_8  and  C_9
REMARK    5  A    between atoms: C_12  and  C_13
REMARK    6  A    between atoms: C_13  and  N_14
REMARK    7  A    between atoms: C_15  and  C_17
REMARK                            x       y       z     vdW  Elec       q    Type
REMARK                         _______ _______ _______ _____ _____    ______ ____
ROOT
ATOM      1  C   UNL     1      -1.457  -1.765   3.140  0.00  0.00    +0.000 A 
ATOM      2  C   UNL     1      -1.577  -3.161   3.067  0.00  0.00    +0.000 A 
ATOM      3  C   UNL     1      -2.806  -3.764   2.782  0.00  0.00    +0.000 A 
ATOM      4  C   UNL     1      -3.954  -2.986   2.594  0.00  0.00    +0.000 A 
ATOM      5  C   UNL     1      -3.856  -1.597   2.760  0.00  0.00    +0.000 A 
ATOM      6  C   UNL     1      -2.617  -0.991   3.012  0.00  0.00    +0.000 A 
ENDROOT
BRANCH   1   7
ATOM      7  C   UNL     1      -0.091  -1.119   3.311  0.00  0.00    +0.000 C 
BRANCH   7  12
ATOM      8  C   UNL     1       2.651   0.297   1.050  0.00  0.00    +0.000 C 
ATOM      9  C   UNL     1       2.939  -0.973   0.235  0.00  0.00    +0.000 C 
ATOM     10  C   UNL     1       1.658  -1.748  -0.039  0.00  0.00    +0.000 C 
ATOM     11  C   UNL     1       0.872  -2.021   1.246  0.00  0.00    +0.000 C 
ATOM     12  N   UNL     1       0.608  -0.806   2.039  0.00  0.00    +0.000 NA
ATOM     13  C   UNL     1       1.874  -0.099   2.327  0.00  0.00    +0.000 C 
BRANCH   8  14
ATOM     14  C   UNL     1       1.888   1.379   0.256  0.00  0.00    +0.000 C 
BRANCH  14  15
ATOM     15  N   UNL     1       2.647   1.889  -0.888  0.00  0.00    +0.000 NA
ATOM     16  H   UNL     1       2.012   2.405  -1.496  0.00  0.00    +0.000 HD
ATOM     17  H   UNL     1       2.997   1.119  -1.454  0.00  0.00    +0.000 HD
ENDBRANCH  14  15
ENDBRANCH   8  14
ENDBRANCH   7  12
ENDBRANCH   1   7
BRANCH   4  18
ATOM     18  C   UNL     1      -5.268  -3.628   2.229  0.00  0.00    +0.000 C 
BRANCH  18  19
ATOM     19  N   UNL     1      -6.019  -4.002   3.399  0.00  0.00    +0.000 N 
ATOM     20  C   UNL     1      -7.211  -4.677   3.301  0.00  0.00    +0.000 C 
ATOM     21  O   UNL     1      -7.679  -5.026   2.224  0.00  0.00    +0.000 OA
ATOM     22  H   UNL     1      -5.776  -3.536   4.268  0.00  0.00    +0.000 HD
BRANCH  20  23
ATOM     23  C   UNL     1      -7.865  -5.021   4.573  0.00  0.00    +0.000 A 
ATOM     24  C   UNL     1      -8.747  -6.092   4.623  0.00  0.00    +0.000 A 
ATOM     25  S   UNL     1      -9.375  -6.390   6.181  0.00  0.00    +0.000 S 
ATOM     26  C   UNL     1      -8.535  -5.062   6.832  0.00  0.00    +0.000 A 
ATOM     27  N   UNL     1      -8.662  -4.732   8.146  0.00  0.00    +0.000 NA
ATOM     28  C   UNL     1      -7.994  -3.685   8.500  0.00  0.00    +0.000 A 
ATOM     29  N   UNL     1      -7.205  -2.943   7.662  0.00  0.00    +0.000 N 
ATOM     30  C   UNL     1      -7.018  -3.260   6.338  0.00  0.00    +0.000 A 
ATOM     31  O   UNL     1      -6.254  -2.609   5.629  0.00  0.00    +0.000 OA
ATOM     32  C   UNL     1      -7.765  -4.416   5.881  0.00  0.00    +0.000 A 
ATOM     33  H   UNL     1      -6.695  -2.142   8.004  0.00  0.00    +0.000 HD
ENDBRANCH  20  23
ENDBRANCH  18  19
ENDBRANCH   4  18
TORSDOF 7
