REMARK  Name = 
REMARK  7 active torsions:
REMARK  status: ('A' for Active; 'I' for Inactive)
REMARK    1  A    between atoms: N_1  and  C_2
REMARK    2  A    between atoms: C_2  and  C_3
REMARK    3  A    between atoms: C_6  and  O_7
REMARK    4  A    between atoms: O_7  and  C_8
REMARK    5  A    between atoms: C_8  and  C_9
REMARK    6  A    between atoms: C_12  and  C_13
REMARK    7  A    between atoms: C_13  and  O_15
REMARK                            x       y       z     vdW  Elec       q    Type
REMARK                         _______ _______ _______ _____ _____    ______ ____
ROOT
ATOM      1  C   UNL     1       3.556   5.155   3.798  0.00  0.00    +0.000 C 
ENDROOT
BRANCH   1   2
ATOM      2  C   UNL     1       3.831   5.938   5.063  0.00  0.00    +0.000 A 
ATOM      3  C   UNL     1       4.428   7.206   4.979  0.00  0.00    +0.000 A 
ATOM      4  C   UNL     1       4.635   7.974   6.130  0.00  0.00    +0.000 A 
ATOM      5  C   UNL     1       4.239   7.493   7.385  0.00  0.00    +0.000 A 
ATOM      6  C   UNL     1       3.642   6.236   7.461  0.00  0.00    +0.000 A 
ATOM      7  F   UNL     1       3.245   5.744   8.644  0.00  0.00    +0.000 F 
ATOM      8  C   UNL     1       3.431   5.465   6.319  0.00  0.00    +0.000 A 
BRANCH   5   9
ATOM      9  C   UNL     1       4.464   8.354   8.574  0.00  0.00    +0.000 C 
ATOM     10  O   UNL     1       4.976   9.459   8.482  0.00  0.00    +0.000 OA
BRANCH   9  11
ATOM     11  O   UNL     1       4.064   7.846   9.757  0.00  0.00    +0.000 OA
ATOM     12  H   UNL     1       3.665   6.953   9.722  0.00  0.00    +0.000 HD
ENDBRANCH   9  11
ENDBRANCH   5   9
ENDBRANCH   1   2
BRANCH   1  13
ATOM     13  O   UNL     1       3.628   3.752   4.052  0.00  0.00    +0.000 OA
BRANCH  13  17
ATOM     14  C   UNL     1       2.757   1.019   1.004  0.00  0.00    +0.000 A 
ATOM     15  C   UNL     1       2.743   2.390   0.713  0.00  0.00    +0.000 A 
ATOM     16  C   UNL     1       3.033   3.337   1.700  0.00  0.00    +0.000 A 
ATOM     17  C   UNL     1       3.337   2.928   2.998  0.00  0.00    +0.000 A 
ATOM     18  C   UNL     1       3.360   1.563   3.293  0.00  0.00    +0.000 A 
ATOM     19  C   UNL     1       3.071   0.614   2.307  0.00  0.00    +0.000 A 
BRANCH  14  20
ATOM     20  C   UNL     1       2.407   0.009  -0.059  0.00  0.00    +0.000 C 
BRANCH  20  21
ATOM     21  N   UNL     1       3.282   0.123  -1.220  0.00  0.00    +0.000 NA
ATOM     22  H   UNL     1       3.084  -0.642  -1.861  0.00  0.00    +0.000 HD
ATOM     23  H   UNL     1       4.247   0.002  -0.915  0.00  0.00    +0.000 HD
ENDBRANCH  20  21
ENDBRANCH  14  20
ENDBRANCH  13  17
ENDBRANCH   1  13
TORSDOF 7
