REMARK  Name = 
REMARK  7 active torsions:
REMARK  status: ('A' for Active; 'I' for Inactive)
REMARK    1  A    between atoms: N_1  and  C_2
REMARK    2  A    between atoms: C_2  and  C_3
REMARK    3  A    between atoms: C_6  and  C_7
REMARK    4  A    between atoms: C_7  and  C_10
REMARK    5  A    between atoms: C_10  and  O_11
REMARK    6  A    between atoms: O_11  and  C_12
REMARK    7  A    between atoms: C_15  and  C_16
REMARK                            x       y       z     vdW  Elec       q    Type
REMARK                         _______ _______ _______ _____ _____    ______ ____
ROOT
ATOM      1  C   UNL     1       3.859  -5.263   2.197  0.00  0.00    +0.000 C 
ATOM      2  F   UNL     1       2.723  -5.986   2.424  0.00  0.00    +0.000 F 
ATOM      3  F   UNL     1       4.604  -6.014   1.332  0.00  0.00    +0.000 F 
ENDROOT
BRANCH   1   7
ATOM      4  C   UNL     1       2.990  -1.343   0.528  0.00  0.00    +0.000 A 
ATOM      5  C   UNL     1       2.072  -1.975   1.379  0.00  0.00    +0.000 A 
ATOM      6  C   UNL     1       2.351  -3.233   1.923  0.00  0.00    +0.000 A 
ATOM      7  C   UNL     1       3.553  -3.889   1.623  0.00  0.00    +0.000 A 
ATOM      8  C   UNL     1       4.478  -3.249   0.784  0.00  0.00    +0.000 A 
ATOM      9  C   UNL     1       4.198  -1.991   0.242  0.00  0.00    +0.000 A 
BRANCH   4  10
ATOM     10  C   UNL     1       2.665  -0.010  -0.101  0.00  0.00    +0.000 C 
BRANCH  10  11
ATOM     11  N   UNL     1       2.421   1.017   0.903  0.00  0.00    +0.000 NA
ATOM     12  H   UNL     1       2.327   1.919   0.437  0.00  0.00    +0.000 HD
ATOM     13  H   UNL     1       3.240   1.091   1.504  0.00  0.00    +0.000 HD
ENDBRANCH  10  11
ENDBRANCH   4  10
ENDBRANCH   1   7
BRANCH   1  14
ATOM     14  C   UNL     1       4.631  -5.130   3.522  0.00  0.00    +0.000 C 
BRANCH  14  15
ATOM     15  O   UNL     1       4.967  -6.420   4.065  0.00  0.00    +0.000 OA
BRANCH  15  16
ATOM     16  C   UNL     1       5.627  -6.415   5.264  0.00  0.00    +0.000 A 
ATOM     17  C   UNL     1       6.028  -5.283   5.969  0.00  0.00    +0.000 A 
ATOM     18  C   UNL     1       6.681  -5.423   7.193  0.00  0.00    +0.000 A 
ATOM     19  C   UNL     1       6.918  -6.703   7.674  0.00  0.00    +0.000 A 
ATOM     20  N   UNL     1       6.554  -7.837   7.015  0.00  0.00    +0.000 NA
ATOM     21  C   UNL     1       5.920  -7.657   5.826  0.00  0.00    +0.000 A 
BRANCH  19  22
ATOM     22  C   UNL     1       7.601  -6.868   8.997  0.00  0.00    +0.000 C 
ATOM     23  N   UNL     1       7.787  -8.160   9.407  0.00  0.00    +0.000 N 
ATOM     24  O   UNL     1       7.966  -5.917   9.674  0.00  0.00    +0.000 OA
ATOM     25  H   UNL     1       7.462  -8.923   8.825  0.00  0.00    +0.000 HD
ATOM     26  H   UNL     1       8.226  -8.339  10.299  0.00  0.00    +0.000 HD
ENDBRANCH  19  22
ENDBRANCH  15  16
ENDBRANCH  14  15
ENDBRANCH   1  14
TORSDOF 7
