REMARK  Name = 
REMARK  5 active torsions:
REMARK  status: ('A' for Active; 'I' for Inactive)
REMARK    1  A    between atoms: N_1  and  C_2
REMARK    2  A    between atoms: C_2  and  C_3
REMARK    3  A    between atoms: C_3  and  C_4
REMARK    4  A    between atoms: C_7  and  C_8
REMARK    5  A    between atoms: C_8  and  C_9
REMARK                            x       y       z     vdW  Elec       q    Type
REMARK                         _______ _______ _______ _____ _____    ______ ____
ROOT
ATOM      1  C   UNL     1       8.937   0.421   1.894  0.00  0.00    +0.000 C 
ENDROOT
BRANCH   1   2
ATOM      2  C   UNL     1       9.015   0.223   3.377  0.00  0.00    +0.000 A 
ATOM      3  N   UNL     1       9.085  -1.014   3.901  0.00  0.00    +0.000 NA
ATOM      4  N   UNL     1       8.811  -0.822   5.202  0.00  0.00    +0.000 N 
ATOM      5  C   UNL     1       8.590   0.489   5.544  0.00  0.00    +0.000 A 
ATOM      6  C   UNL     1       8.146   1.085   6.721  0.00  0.00    +0.000 A 
ATOM      7  C   UNL     1       8.054   2.476   6.721  0.00  0.00    +0.000 A 
ATOM      8  F   UNL     1       7.576   3.096   7.809  0.00  0.00    +0.000 F 
ATOM      9  C   UNL     1       8.431   3.243   5.621  0.00  0.00    +0.000 A 
ATOM     10  C   UNL     1       8.840   2.621   4.437  0.00  0.00    +0.000 A 
ATOM     11  C   UNL     1       8.877   1.214   4.389  0.00  0.00    +0.000 A 
ATOM     12  H   UNL     1       8.760  -1.633   5.806  0.00  0.00    +0.000 HD
ENDBRANCH   1   2
BRANCH   1  16
ATOM     13  C   UNL     1       4.624   0.612   1.360  0.00  0.00    +0.000 A 
ATOM     14  C   UNL     1       5.389   1.786   1.410  0.00  0.00    +0.000 A 
ATOM     15  C   UNL     1       6.782   1.728   1.526  0.00  0.00    +0.000 A 
ATOM     16  C   UNL     1       7.444   0.495   1.614  0.00  0.00    +0.000 A 
ATOM     17  C   UNL     1       6.677  -0.679   1.543  0.00  0.00    +0.000 A 
ATOM     18  C   UNL     1       5.285  -0.621   1.419  0.00  0.00    +0.000 A 
BRANCH  13  19
ATOM     19  C   UNL     1       3.114   0.664   1.314  0.00  0.00    +0.000 C 
BRANCH  19  20
ATOM     20  C   UNL     1       2.562   1.375   0.073  0.00  0.00    +0.000 C 
BRANCH  20  21
ATOM     21  N   UNL     1       1.096   1.377   0.075  0.00  0.00    +0.000 NA
ATOM     22  H   UNL     1       0.762   1.884  -0.741  0.00  0.00    +0.000 HD
ATOM     23  H   UNL     1       0.756   1.889   0.889  0.00  0.00    +0.000 HD
ENDBRANCH  20  21
ENDBRANCH  19  20
ENDBRANCH  13  19
ENDBRANCH   1  16
TORSDOF 5
