REMARK  Name = 
REMARK  5 active torsions:
REMARK  status: ('A' for Active; 'I' for Inactive)
REMARK    1  A    between atoms: C_2  and  C_3
REMARK    2  A    between atoms: N_7  and  C_8
REMARK    3  A    between atoms: C_12  and  C_13
REMARK    4  A    between atoms: C_13  and  N_14
REMARK    5  A    between atoms: C_18  and  C_19
REMARK                            x       y       z     vdW  Elec       q    Type
REMARK                         _______ _______ _______ _____ _____    ______ ____
ROOT
ATOM      1  C   UNL     1       2.909  -5.924  -4.197  0.00  0.00    +0.000 C 
ATOM      2  C   UNL     1       3.112  -5.510  -5.647  0.00  0.00    +0.000 C 
ATOM      3  C   UNL     1       1.880  -6.259  -5.267  0.00  0.00    +0.000 C 
ENDROOT
BRANCH   1   4
ATOM      4  N   UNL     1       3.752  -7.006  -3.611  0.00  0.00    +0.000 N 
ATOM      5  C   UNL     1       3.082  -8.057  -2.934  0.00  0.00    +0.000 A 
ATOM      6  C   UNL     1       3.840  -9.051  -2.315  0.00  0.00    +0.000 A 
ATOM      7  C   UNL     1       3.193 -10.148  -1.741  0.00  0.00    +0.000 A 
ATOM      8  C   UNL     1       1.803 -10.232  -1.806  0.00  0.00    +0.000 A 
ATOM      9  C   UNL     1       1.123  -9.181  -2.386  0.00  0.00    +0.000 A 
ATOM     10  N   UNL     1       1.733  -8.121  -2.957  0.00  0.00    +0.000 NA
ATOM     11  H   UNL     1       4.461  -6.642  -2.978  0.00  0.00    +0.000 HD
BRANCH   8  12
ATOM     12  C   UNL     1       1.098 -11.412  -1.270  0.00  0.00    +0.000 C 
ATOM     13  N   UNL     1      -0.113 -11.740  -1.804  0.00  0.00    +0.000 N 
ATOM     14  O   UNL     1       1.610 -12.106  -0.391  0.00  0.00    +0.000 OA
ATOM     15  H   UNL     1      -0.502 -11.320  -2.638  0.00  0.00    +0.000 HD
ATOM     16  H   UNL     1      -0.527 -12.609  -1.485  0.00  0.00    +0.000 HD
ENDBRANCH   8  12
ENDBRANCH   1   4
BRANCH   1  21
ATOM     17  C   UNL     1       3.078  -2.727  -2.064  0.00  0.00    +0.000 A 
ATOM     18  C   UNL     1       1.823  -2.871  -1.456  0.00  0.00    +0.000 A 
ATOM     19  N   UNL     1       0.986  -3.920  -1.605  0.00  0.00    +0.000 NA
ATOM     20  C   UNL     1       1.396  -4.880  -2.454  0.00  0.00    +0.000 A 
ATOM     21  C   UNL     1       2.572  -4.836  -3.201  0.00  0.00    +0.000 A 
ATOM     22  C   UNL     1       3.417  -3.745  -2.960  0.00  0.00    +0.000 A 
BRANCH  17  27
ATOM     23  C   UNL     1       3.866   0.610  -2.727  0.00  0.00    +0.000 C 
ATOM     24  C   UNL     1       5.401   0.564  -2.819  0.00  0.00    +0.000 C 
ATOM     25  C   UNL     1       5.913  -0.868  -3.004  0.00  0.00    +0.000 C 
ATOM     26  C   UNL     1       5.381  -1.790  -1.910  0.00  0.00    +0.000 C 
ATOM     27  N   UNL     1       3.924  -1.667  -1.792  0.00  0.00    +0.000 N 
ATOM     28  C   UNL     1       3.371  -0.318  -1.618  0.00  0.00    +0.000 C 
BRANCH  23  30
ATOM     29  N   UNL     1       2.794  -0.163  -5.174  0.00  0.00    +0.000 NA
ATOM     30  C   UNL     1       3.280   0.187  -4.065  0.00  0.00    +0.000 C 
ENDBRANCH  23  30
ENDBRANCH  17  27
ENDBRANCH   1  21
TORSDOF 5
