REMARK  Name = 
REMARK  6 active torsions:
REMARK  status: ('A' for Active; 'I' for Inactive)
REMARK    1  A    between atoms: C_2  and  C_20
REMARK    2  A    between atoms: N_3  and  C_4
REMARK    3  A    between atoms: C_4  and  C_5
REMARK    4  A    between atoms: C_8  and  C_9
REMARK    5  A    between atoms: C_9  and  N_10
REMARK    6  A    between atoms: C_11  and  C_13
REMARK                            x       y       z     vdW  Elec       q    Type
REMARK                         _______ _______ _______ _____ _____    ______ ____
ROOT
ATOM      1  C   UNL     1       2.399   1.724  -1.818  0.00  0.00    +0.000 C 
ENDROOT
BRANCH   1   2
ATOM      2  C   UNL     1       3.322   2.634  -2.589  0.00  0.00    +0.000 A 
ATOM      3  C   UNL     1       3.074   4.012  -2.656  0.00  0.00    +0.000 A 
ATOM      4  C   UNL     1       3.919   4.859  -3.384  0.00  0.00    +0.000 A 
ATOM      5  C   UNL     1       5.020   4.343  -4.080  0.00  0.00    +0.000 A 
ATOM      6  C   UNL     1       5.266   2.964  -4.019  0.00  0.00    +0.000 A 
ATOM      7  C   UNL     1       4.420   2.118  -3.291  0.00  0.00    +0.000 A 
BRANCH   5   8
ATOM      8  C   UNL     1       5.919   5.247  -4.886  0.00  0.00    +0.000 C 
BRANCH   8   9
ATOM      9  N   UNL     1       7.038   5.740  -4.115  0.00  0.00    +0.000 N 
ATOM     10  C   UNL     1       7.979   6.563  -4.699  0.00  0.00    +0.000 C 
ATOM     11  O   UNL     1       7.940   6.878  -5.884  0.00  0.00    +0.000 OA
ATOM     12  H   UNL     1       7.021   5.626  -3.111  0.00  0.00    +0.000 HD
BRANCH  10  13
ATOM     13  C   UNL     1       9.037   7.078  -3.733  0.00  0.00    +0.000 C 
ATOM     14  C   UNL     1      10.085   7.982  -4.385  0.00  0.00    +0.000 C 
ATOM     15  C   UNL     1      11.284   7.942  -3.441  0.00  0.00    +0.000 C 
ATOM     16  C   UNL     1      11.098   6.704  -2.568  0.00  0.00    +0.000 C 
ATOM     17  C   UNL     1       9.899   5.964  -3.147  0.00  0.00    +0.000 C 
ENDBRANCH  10  13
ENDBRANCH   8   9
ENDBRANCH   5   8
ENDBRANCH   1   2
BRANCH   1  20
ATOM     18  O   UNL     1       0.411  -0.079  -1.031  0.00  0.00    +0.000 OA
ATOM     19  C   UNL     1       0.378   0.370  -2.171  0.00  0.00    +0.000 C 
ATOM     20  N   UNL     1       1.352   1.205  -2.661  0.00  0.00    +0.000 N 
ATOM     21  H   UNL     1       1.179   1.713  -3.522  0.00  0.00    +0.000 HD
BRANCH  19  22
ATOM     22  C   UNL     1      -0.678  -0.002  -3.123  0.00  0.00    +0.000 A 
ATOM     23  C   UNL     1      -1.355  -1.205  -2.980  0.00  0.00    +0.000 A 
ATOM     24  S   UNL     1      -2.501  -1.492  -4.212  0.00  0.00    +0.000 S 
ATOM     25  C   UNL     1      -2.170   0.007  -4.949  0.00  0.00    +0.000 A 
ATOM     26  N   UNL     1      -2.829   0.405  -6.069  0.00  0.00    +0.000 NA
ATOM     27  C   UNL     1      -2.502   1.578  -6.496  0.00  0.00    +0.000 A 
ATOM     28  N   UNL     1      -1.575   2.392  -5.900  0.00  0.00    +0.000 N 
ATOM     29  C   UNL     1      -0.859   2.022  -4.790  0.00  0.00    +0.000 A 
ATOM     30  O   UNL     1       0.001   2.756  -4.315  0.00  0.00    +0.000 OA
ATOM     31  C   UNL     1      -1.191   0.711  -4.267  0.00  0.00    +0.000 A 
ATOM     32  H   UNL     1      -1.358   3.300  -6.289  0.00  0.00    +0.000 HD
ENDBRANCH  19  22
ENDBRANCH   1  20
TORSDOF 6
