REMARK  Name = 
REMARK  6 active torsions:
REMARK  status: ('A' for Active; 'I' for Inactive)
REMARK    1  A    between atoms: C_2  and  C_25
REMARK    2  A    between atoms: N_3  and  C_4
REMARK    3  A    between atoms: C_4  and  C_5
REMARK    4  A    between atoms: C_8  and  C_9
REMARK    5  A    between atoms: C_9  and  N_10
REMARK    6  A    between atoms: C_11  and  C_13
REMARK                            x       y       z     vdW  Elec       q    Type
REMARK                         _______ _______ _______ _____ _____    ______ ____
ROOT
ATOM      1  C   UNL     1       3.207  -3.111  -1.691  0.00  0.00    +0.000 A 
ATOM      2  C   UNL     1       4.433  -2.715  -2.243  0.00  0.00    +0.000 A 
ATOM      3  C   UNL     1       5.326  -3.663  -2.755  0.00  0.00    +0.000 A 
ATOM      4  C   UNL     1       5.002  -5.027  -2.743  0.00  0.00    +0.000 A 
ATOM      5  C   UNL     1       3.781  -5.423  -2.182  0.00  0.00    +0.000 A 
ATOM      6  C   UNL     1       2.889  -4.475  -1.671  0.00  0.00    +0.000 A 
ENDROOT
BRANCH   1   7
ATOM      7  C   UNL     1       2.248  -2.092  -1.136  0.00  0.00    +0.000 C 
BRANCH   7  10
ATOM      8  O   UNL     1       0.142  -0.241  -0.690  0.00  0.00    +0.000 OA
ATOM      9  C   UNL     1       0.323  -0.731  -1.795  0.00  0.00    +0.000 C 
ATOM     10  N   UNL     1       1.311  -1.626  -2.124  0.00  0.00    +0.000 N 
ATOM     11  H   UNL     1       1.361  -1.947  -3.087  0.00  0.00    +0.000 HD
BRANCH   9  12
ATOM     12  C   UNL     1      -0.590  -0.368  -2.933  0.00  0.00    +0.000 C 
ATOM     13  C   UNL     1      -1.683   0.607  -2.799  0.00  0.00    +0.000 C 
ATOM     14  C   UNL     1      -2.257   0.635  -4.107  0.00  0.00    +0.000 C 
ATOM     15  C   UNL     1      -1.536  -0.232  -4.834  0.00  0.00    +0.000 C 
ATOM     16  N   UNL     1      -0.509  -0.864  -4.147  0.00  0.00    +0.000 NA
ENDBRANCH   9  12
ENDBRANCH   7  10
ENDBRANCH   1   7
BRANCH   4  17
ATOM     17  C   UNL     1       5.961  -6.055  -3.286  0.00  0.00    +0.000 C 
BRANCH  17  18
ATOM     18  N   UNL     1       6.853  -6.528  -2.258  0.00  0.00    +0.000 N 
ATOM     19  C   UNL     1       7.869  -7.404  -2.542  0.00  0.00    +0.000 C 
ATOM     20  O   UNL     1       8.100  -7.782  -3.687  0.00  0.00    +0.000 OA
ATOM     21  H   UNL     1       6.548  -6.415  -1.297  0.00  0.00    +0.000 HD
BRANCH  19  22
ATOM     22  C   UNL     1       8.712  -7.824  -1.415  0.00  0.00    +0.000 A 
ATOM     23  C   UNL     1       9.996  -8.300  -1.654  0.00  0.00    +0.000 A 
ATOM     24  S   UNL     1      10.860  -8.683  -0.234  0.00  0.00    +0.000 S 
ATOM     25  C   UNL     1       9.530  -8.280   0.748  0.00  0.00    +0.000 A 
ATOM     26  N   UNL     1       9.598  -8.404   2.101  0.00  0.00    +0.000 NA
ATOM     27  C   UNL     1       8.508  -8.097   2.720  0.00  0.00    +0.000 A 
ATOM     28  N   UNL     1       7.356  -7.672   2.108  0.00  0.00    +0.000 N 
ATOM     29  C   UNL     1       7.250  -7.508   0.749  0.00  0.00    +0.000 A 
ATOM     30  O   UNL     1       6.215  -7.093   0.237  0.00  0.00    +0.000 OA
ATOM     31  C   UNL     1       8.446  -7.845   0.004  0.00  0.00    +0.000 A 
ATOM     32  H   UNL     1       6.537  -7.443   2.651  0.00  0.00    +0.000 HD
ENDBRANCH  19  22
ENDBRANCH  17  18
ENDBRANCH   4  17
TORSDOF 6
