REMARK  Name = 
REMARK  8 active torsions:
REMARK  status: ('A' for Active; 'I' for Inactive)
REMARK    1  A    between atoms: C_1  and  C_2
REMARK    2  A    between atoms: C_2  and  N_3
REMARK    3  A    between atoms: C_2  and  C_17
REMARK    4  A    between atoms: C_4  and  C_6
REMARK    5  A    between atoms: N_12  and  C_13
REMARK    6  A    between atoms: C_20  and  O_21
REMARK    7  A    between atoms: O_21  and  C_22
REMARK    8  A    between atoms: C_22  and  C_23
REMARK                            x       y       z     vdW  Elec       q    Type
REMARK                         _______ _______ _______ _____ _____    ______ ____
ROOT
ATOM      1  C   UNL     1       0.883   0.106  -0.078  0.00  0.00    +0.000 C 
ATOM      2  C   UNL     1       2.412   0.041  -0.068  0.00  0.00    +0.000 C 
ENDROOT
BRANCH   2   3
ATOM      3  C   UNL     1       2.917  -1.203  -0.778  0.00  0.00    +0.000 A 
ATOM      4  C   UNL     1       3.810  -1.098  -1.853  0.00  0.00    +0.000 A 
ATOM      5  C   UNL     1       4.345  -2.248  -2.443  0.00  0.00    +0.000 A 
ATOM      6  C   UNL     1       4.010  -3.511  -1.955  0.00  0.00    +0.000 A 
ATOM      7  C   UNL     1       3.073  -3.626  -0.929  0.00  0.00    +0.000 A 
ATOM      8  C   UNL     1       2.542  -2.483  -0.338  0.00  0.00    +0.000 A 
BRANCH   6   9
ATOM      9  O   UNL     1       4.654  -4.573  -2.532  0.00  0.00    +0.000 OA
BRANCH   9  10
ATOM     10  C   UNL     1       4.771  -5.720  -1.679  0.00  0.00    +0.000 C 
BRANCH  10  11
ATOM     11  C   UNL     1       5.926  -6.610  -2.074  0.00  0.00    +0.000 A 
ATOM     12  C   UNL     1       7.066  -6.087  -2.680  0.00  0.00    +0.000 A 
ATOM     13  C   UNL     1       8.140  -6.933  -2.934  0.00  0.00    +0.000 A 
ATOM     14  C   UNL     1       8.059  -8.269  -2.563  0.00  0.00    +0.000 A 
ATOM     15  C   UNL     1       6.899  -8.708  -1.950  0.00  0.00    +0.000 A 
ATOM     16  N   UNL     1       5.839  -7.913  -1.694  0.00  0.00    +0.000 NA
ENDBRANCH  10  11
ENDBRANCH   9  10
ENDBRANCH   6   9
ENDBRANCH   2   3
BRANCH   2  17
ATOM     17  N   UNL     1       2.920   0.035   1.290  0.00  0.00    +0.000 N 
ATOM     18  C   UNL     1       3.170   1.164   2.019  0.00  0.00    +0.000 C 
ATOM     19  O   UNL     1       3.107   2.291   1.539  0.00  0.00    +0.000 OA
ATOM     20  H   UNL     1       2.855  -0.848   1.782  0.00  0.00    +0.000 HD
BRANCH  18  21
ATOM     21  C   UNL     1       3.572   0.940   3.415  0.00  0.00    +0.000 A 
ATOM     22  C   UNL     1       4.386   1.861   4.060  0.00  0.00    +0.000 A 
ATOM     23  S   UNL     1       4.735   1.445   5.677  0.00  0.00    +0.000 S 
ATOM     24  C   UNL     1       3.779   0.040   5.582  0.00  0.00    +0.000 A 
ATOM     25  N   UNL     1       3.615  -0.767   6.661  0.00  0.00    +0.000 NA
ATOM     26  C   UNL     1       2.841  -1.784   6.459  0.00  0.00    +0.000 A 
ATOM     27  N   UNL     1       2.219  -2.092   5.268  0.00  0.00    +0.000 N 
ATOM     28  C   UNL     1       1.395  -3.275   5.145  0.00  0.00    +0.000 C 
ATOM     29  C   UNL     1       2.405  -1.312   4.131  0.00  0.00    +0.000 A 
ATOM     30  O   UNL     1       1.932  -1.616   3.037  0.00  0.00    +0.000 OA
ATOM     31  C   UNL     1       3.233  -0.133   4.325  0.00  0.00    +0.000 A 
ENDBRANCH  18  21
ENDBRANCH   2  17
TORSDOF 6
