REMARK  Name = 
REMARK  9 active torsions:
REMARK  status: ('A' for Active; 'I' for Inactive)
REMARK    1  A    between atoms: C_1  and  O_2
REMARK    2  A    between atoms: O_2  and  C_3
REMARK    3  A    between atoms: C_10  and  C_11
REMARK    4  A    between atoms: N_13  and  C_14
REMARK    5  A    between atoms: C_14  and  C_15
REMARK    6  A    between atoms: C_18  and  C_19
REMARK    7  A    between atoms: C_19  and  N_20
REMARK    8  A    between atoms: N_20  and  C_21
REMARK    9  A    between atoms: C_21  and  C_22
REMARK                            x       y       z     vdW  Elec       q    Type
REMARK                         _______ _______ _______ _____ _____    ______ ____
ROOT
ATOM      1  C   UNL     1       2.110  -2.005   2.694  0.00  0.00    +0.000 A 
ATOM      2  C   UNL     1       1.096  -2.736   3.328  0.00  0.00    +0.000 A 
ATOM      3  C   UNL     1       0.147  -2.093   4.132  0.00  0.00    +0.000 A 
ATOM      4  C   UNL     1       0.182  -0.703   4.320  0.00  0.00    +0.000 A 
ATOM      5  C   UNL     1       1.183   0.030   3.668  0.00  0.00    +0.000 A 
ATOM      6  C   UNL     1       2.133  -0.613   2.863  0.00  0.00    +0.000 A 
ENDROOT
BRANCH   1   7
ATOM      7  C   UNL     1       3.118  -2.701   1.810  0.00  0.00    +0.000 C 
BRANCH   7  10
ATOM      8  C   UNL     1       3.343  -3.382  -0.554  0.00  0.00    +0.000 C 
ATOM      9  O   UNL     1       4.433  -3.909  -0.344  0.00  0.00    +0.000 OA
ATOM     10  N   UNL     1       2.643  -2.775   0.449  0.00  0.00    +0.000 N 
ATOM     11  H   UNL     1       1.751  -2.344   0.253  0.00  0.00    +0.000 HD
BRANCH   8  19
ATOM     12  C   UNL     1       0.359  -2.199  -1.798  0.00  0.00    +0.000 A 
ATOM     13  N   UNL     1      -0.689  -1.791  -2.539  0.00  0.00    +0.000 NA
ATOM     14  C   UNL     1      -0.658  -2.029  -3.853  0.00  0.00    +0.000 A 
ATOM     15  N   UNL     1       0.307  -2.645  -4.533  0.00  0.00    +0.000 NA
ATOM     16  C   UNL     1       1.337  -3.025  -3.758  0.00  0.00    +0.000 A 
ATOM     17  S   UNL     1       2.656  -3.833  -4.455  0.00  0.00    +0.000 S 
ATOM     18  C   UNL     1       3.450  -3.938  -2.955  0.00  0.00    +0.000 A 
ATOM     19  C   UNL     1       2.742  -3.367  -1.902  0.00  0.00    +0.000 A 
ATOM     20  C   UNL     1       1.468  -2.836  -2.385  0.00  0.00    +0.000 A 
BRANCH  12  22
ATOM     21  C   UNL     1      -0.980  -1.802   0.080  0.00  0.00    +0.000 C 
ATOM     22  O   UNL     1       0.337  -1.934  -0.446  0.00  0.00    +0.000 OA
ENDBRANCH  12  22
ENDBRANCH   8  19
ENDBRANCH   7  10
ENDBRANCH   1   7
BRANCH   4  23
ATOM     23  C   UNL     1      -0.837  -0.018   5.212  0.00  0.00    +0.000 C 
BRANCH  23  24
ATOM     24  N   UNL     1      -0.768  -0.549   6.568  0.00  0.00    +0.000 NA
ATOM     25  H   UNL     1       0.170  -0.396   6.945  0.00  0.00    +0.000 HD
BRANCH  24  26
ATOM     26  C   UNL     1      -1.715   0.095   7.487  0.00  0.00    +0.000 C 
BRANCH  26  27
ATOM     27  C   UNL     1      -1.552  -0.456   8.891  0.00  0.00    +0.000 A 
ATOM     28  N   UNL     1      -0.332  -0.291   9.484  0.00  0.00    +0.000 NA
ATOM     29  C   UNL     1      -0.167  -0.825  10.716  0.00  0.00    +0.000 A 
ATOM     30  C   UNL     1      -1.159  -1.508  11.403  0.00  0.00    +0.000 A 
ATOM     31  C   UNL     1      -2.400  -1.652  10.793  0.00  0.00    +0.000 A 
ATOM     32  C   UNL     1      -2.597  -1.121   9.523  0.00  0.00    +0.000 A 
ATOM     33  F   UNL     1      -3.792  -1.264   8.932  0.00  0.00    +0.000 F 
ENDBRANCH  26  27
ENDBRANCH  24  26
ENDBRANCH  23  24
ENDBRANCH   4  23
TORSDOF 8
