REMARK  Name = 
REMARK  9 active torsions:
REMARK  status: ('A' for Active; 'I' for Inactive)
REMARK    1  A    between atoms: C_1  and  C_2
REMARK    2  A    between atoms: C_2  and  C_3
REMARK    3  A    between atoms: C_2  and  C_4
REMARK    4  A    between atoms: C_2  and  O_5
REMARK    5  A    between atoms: O_5  and  C_6
REMARK    6  A    between atoms: C_6  and  C_7
REMARK    7  A    between atoms: C_10  and  C_11
REMARK    8  A    between atoms: C_11  and  N_12
REMARK    9  A    between atoms: C_17  and  C_18
REMARK                            x       y       z     vdW  Elec       q    Type
REMARK                         _______ _______ _______ _____ _____    ______ ____
ROOT
ATOM      1  N   UNL     1       5.899   7.346  -3.014  0.00  0.00    +0.000 N 
ATOM      2  N   UNL     1       5.377   8.344  -2.251  0.00  0.00    +0.000 NA
ATOM      3  C   UNL     1       4.386   8.818  -3.011  0.00  0.00    +0.000 A 
ATOM      4  C   UNL     1       4.295   8.167  -4.259  0.00  0.00    +0.000 A 
ATOM      5  C   UNL     1       3.433   8.169  -5.360  0.00  0.00    +0.000 A 
ATOM      6  C   UNL     1       3.750   7.334  -6.442  0.00  0.00    +0.000 A 
ATOM      7  C   UNL     1       4.937   6.607  -6.385  0.00  0.00    +0.000 A 
ATOM      8  N   UNL     1       5.782   6.539  -5.320  0.00  0.00    +0.000 NA
ATOM      9  C   UNL     1       5.384   7.308  -4.285  0.00  0.00    +0.000 A 
ENDROOT
BRANCH   6  10
ATOM     10  C   UNL     1       2.764   7.231  -7.546  0.00  0.00    +0.000 C 
ATOM     11  N   UNL     1       3.057   6.478  -8.647  0.00  0.00    +0.000 N 
ATOM     12  O   UNL     1       1.676   7.792  -7.469  0.00  0.00    +0.000 OA
ATOM     13  H   UNL     1       3.908   5.966  -8.815  0.00  0.00    +0.000 HD
ATOM     14  H   UNL     1       2.319   6.398  -9.337  0.00  0.00    +0.000 HD
ENDBRANCH   6  10
BRANCH   1  15
ATOM     15  C   UNL     1       6.795   6.375  -2.415  0.00  0.00    +0.000 C 
BRANCH  15  19
ATOM     16  C   UNL     1       4.934   2.758  -1.074  0.00  0.00    +0.000 A 
ATOM     17  C   UNL     1       4.409   3.973  -0.637  0.00  0.00    +0.000 A 
ATOM     18  C   UNL     1       4.983   5.172  -1.082  0.00  0.00    +0.000 A 
ATOM     19  C   UNL     1       6.060   5.128  -1.971  0.00  0.00    +0.000 A 
ATOM     20  N   UNL     1       6.562   3.956  -2.426  0.00  0.00    +0.000 NA
ATOM     21  C   UNL     1       5.988   2.811  -1.976  0.00  0.00    +0.000 A 
BRANCH  16  22
ATOM     22  C   UNL     1       4.524   1.430  -0.493  0.00  0.00    +0.000 C 
BRANCH  22  23
ATOM     23  O   UNL     1       3.141   1.131  -0.668  0.00  0.00    +0.000 OA
BRANCH  23  25
ATOM     24  C   UNL     1       2.933  -0.203   1.393  0.00  0.00    +0.000 C 
ATOM     25  C   UNL     1       2.713  -0.140  -0.126  0.00  0.00    +0.000 C 
ATOM     26  C   UNL     1       3.405  -1.323  -0.823  0.00  0.00    +0.000 C 
ATOM     27  C   UNL     1       1.204  -0.251  -0.394  0.00  0.00    +0.000 C 
ENDBRANCH  23  25
ENDBRANCH  22  23
ENDBRANCH  16  22
ENDBRANCH  15  19
ENDBRANCH   1  15
TORSDOF 6
