REMARK  Name = 
REMARK  9 active torsions:
REMARK  status: ('A' for Active; 'I' for Inactive)
REMARK    1  A    between atoms: C_1  and  N_2
REMARK    2  A    between atoms: N_2  and  C_3
REMARK    3  A    between atoms: N_2  and  C_11
REMARK    4  A    between atoms: C_3  and  C_4
REMARK    5  A    between atoms: C_11  and  C_12
REMARK    6  A    between atoms: C_15  and  C_16
REMARK    7  A    between atoms: C_16  and  N_17
REMARK    8  A    between atoms: C_18  and  C_20
REMARK    9  A    between atoms: N_26  and  C_27
REMARK                            x       y       z     vdW  Elec       q    Type
REMARK                         _______ _______ _______ _____ _____    ______ ____
ROOT
ATOM      1  C   UNL     1       4.513   1.278  -0.492  0.00  0.00    +0.000 A 
ATOM      2  C   UNL     1       5.214   0.169   0.001  0.00  0.00    +0.000 A 
ATOM      3  C   UNL     1       6.615   0.130  -0.045  0.00  0.00    +0.000 A 
ATOM      4  C   UNL     1       7.348   1.206  -0.569  0.00  0.00    +0.000 A 
ATOM      5  C   UNL     1       6.646   2.314  -1.059  0.00  0.00    +0.000 A 
ATOM      6  C   UNL     1       5.247   2.351  -1.017  0.00  0.00    +0.000 A 
ENDROOT
BRANCH   1   7
ATOM      7  C   UNL     1       2.994   1.290  -0.551  0.00  0.00    +0.000 C 
BRANCH   7   9
ATOM      8  C   UNL     1       2.620   2.263   1.639  0.00  0.00    +0.000 C 
ATOM      9  N   UNL     1       2.305   1.136   0.749  0.00  0.00    +0.000 NA
BRANCH   9  10
ATOM     10  C   UNL     1       0.835   1.084   0.565  0.00  0.00    +0.000 C 
BRANCH  10  11
ATOM     11  C   UNL     1       0.357  -0.092  -0.265  0.00  0.00    +0.000 A 
ATOM     12  C   UNL     1       0.620  -1.409   0.147  0.00  0.00    +0.000 A 
ATOM     13  C   UNL     1       0.242  -2.488  -0.653  0.00  0.00    +0.000 A 
ATOM     14  C   UNL     1      -0.407  -2.253  -1.859  0.00  0.00    +0.000 A 
ATOM     15  F   UNL     1      -0.741  -3.288  -2.643  0.00  0.00    +0.000 F 
ATOM     16  C   UNL     1      -0.709  -0.960  -2.270  0.00  0.00    +0.000 A 
ATOM     17  C   UNL     1      -0.334   0.121  -1.471  0.00  0.00    +0.000 A 
ENDBRANCH  10  11
ENDBRANCH   9  10
ENDBRANCH   7   9
ENDBRANCH   1   7
BRANCH   4  18
ATOM     18  C   UNL     1       8.855   1.145  -0.668  0.00  0.00    +0.000 C 
BRANCH  18  19
ATOM     19  N   UNL     1       9.265   0.586  -1.934  0.00  0.00    +0.000 N 
ATOM     20  C   UNL     1      10.587   0.472  -2.287  0.00  0.00    +0.000 C 
ATOM     21  O   UNL     1      11.489   0.968  -1.616  0.00  0.00    +0.000 OA
ATOM     22  H   UNL     1       8.588  -0.020  -2.381  0.00  0.00    +0.000 HD
BRANCH  20  23
ATOM     23  C   UNL     1      10.863  -0.240  -3.543  0.00  0.00    +0.000 A 
ATOM     24  C   UNL     1      12.044  -0.005  -4.234  0.00  0.00    +0.000 A 
ATOM     25  S   UNL     1      12.167  -0.882  -5.693  0.00  0.00    +0.000 S 
ATOM     26  C   UNL     1      10.669  -1.644  -5.428  0.00  0.00    +0.000 A 
ATOM     27  N   UNL     1      10.176  -2.550  -6.314  0.00  0.00    +0.000 NA
ATOM     28  C   UNL     1       9.040  -3.068  -5.973  0.00  0.00    +0.000 A 
ATOM     29  N   UNL     1       8.338  -2.773  -4.825  0.00  0.00    +0.000 N 
ATOM     30  C   UNL     1       7.069  -3.406  -4.543  0.00  0.00    +0.000 C 
ATOM     31  C   UNL     1       8.813  -1.850  -3.900  0.00  0.00    +0.000 A 
ATOM     32  O   UNL     1       8.202  -1.570  -2.873  0.00  0.00    +0.000 OA
ATOM     33  C   UNL     1      10.081  -1.232  -4.248  0.00  0.00    +0.000 A 
ENDBRANCH  20  23
ENDBRANCH  18  19
ENDBRANCH   4  18
TORSDOF 7
