REMARK  Name = 
REMARK  4 active torsions:
REMARK  status: ('A' for Active; 'I' for Inactive)
REMARK    1  A    between atoms: C_2  and  C_4
REMARK    2  A    between atoms: N_8  and  C_9
REMARK    3  A    between atoms: C_9  and  C_10
REMARK    4  A    between atoms: C_14  and  C_15
REMARK                            x       y       z     vdW  Elec       q    Type
REMARK                         _______ _______ _______ _____ _____    ______ ____
ROOT
ATOM      1  C   UNL     1       7.906  -2.991  -1.083  0.00  0.00    +0.000 A 
ATOM      2  C   UNL     1       7.083  -4.111  -1.010  0.00  0.00    +0.000 A 
ATOM      3  C   UNL     1       6.418  -4.389   0.187  0.00  0.00    +0.000 A 
ATOM      4  C   UNL     1       6.590  -3.554   1.286  0.00  0.00    +0.000 A 
ATOM      5  N   UNL     1       5.916  -3.701   2.474  0.00  0.00    +0.000 N 
ATOM      6  N   UNL     1       7.386  -2.468   1.223  0.00  0.00    +0.000 NA
ATOM      7  C   UNL     1       8.035  -2.215   0.057  0.00  0.00    +0.000 A 
ATOM      8  H   UNL     1       6.249  -3.001   3.128  0.00  0.00    +0.000 HD
ENDROOT
BRANCH   1  10
ATOM      9  N   UNL     1       8.159  -3.033  -3.503  0.00  0.00    +0.000 N 
ATOM     10  C   UNL     1       8.654  -2.609  -2.299  0.00  0.00    +0.000 C 
ATOM     11  O   UNL     1       9.659  -1.915  -2.240  0.00  0.00    +0.000 OA
ATOM     12  H   UNL     1       8.630  -2.679  -4.327  0.00  0.00    +0.000 HD
ATOM     13  H   UNL     1       7.216  -3.373  -3.617  0.00  0.00    +0.000 HD
ENDBRANCH   1  10
BRANCH   5  14
ATOM     14  C   UNL     1       5.564  -4.985   3.044  0.00  0.00    +0.000 C 
BRANCH  14  15
ATOM     15  C   UNL     1       6.657  -5.657   3.851  0.00  0.00    +0.000 A 
ATOM     16  C   UNL     1       7.650  -4.953   4.537  0.00  0.00    +0.000 A 
ATOM     17  C   UNL     1       8.554  -5.626   5.362  0.00  0.00    +0.000 A 
ATOM     18  C   UNL     1       8.463  -7.011   5.529  0.00  0.00    +0.000 A 
ATOM     19  C   UNL     1       7.463  -7.756   4.885  0.00  0.00    +0.000 A 
ATOM     20  C   UNL     1       6.582  -7.054   4.038  0.00  0.00    +0.000 A 
BRANCH  19  21
ATOM     21  C   UNL     1       7.296  -9.205   5.128  0.00  0.00    +0.000 A 
ATOM     22  C   UNL     1       6.892 -10.099   4.126  0.00  0.00    +0.000 A 
ATOM     23  C   UNL     1       6.692 -11.450   4.414  0.00  0.00    +0.000 A 
ATOM     24  C   UNL     1       6.914 -11.887   5.707  0.00  0.00    +0.000 A 
ATOM     25  N   UNL     1       7.313 -11.078   6.706  0.00  0.00    +0.000 NA
ATOM     26  C   UNL     1       7.488  -9.769   6.394  0.00  0.00    +0.000 A 
ENDBRANCH  19  21
ENDBRANCH  14  15
ENDBRANCH   5  14
TORSDOF 4
