REMARK  Name = 
REMARK  7 active torsions:
REMARK  status: ('A' for Active; 'I' for Inactive)
REMARK    1  A    between atoms: C_1  and  C_2
REMARK    2  A    between atoms: C_2  and  O_3
REMARK    3  A    between atoms: O_3  and  C_4
REMARK    4  A    between atoms: C_8  and  C_9
REMARK    5  A    between atoms: C_10  and  C_11
REMARK    6  A    between atoms: C_14  and  C_15
REMARK    7  A    between atoms: C_22  and  O_23
REMARK                            x       y       z     vdW  Elec       q    Type
REMARK                         _______ _______ _______ _____ _____    ______ ____
ROOT
ATOM      1  C   UNL     1       4.162  -0.099  -1.882  0.00  0.00    +0.000 A 
ATOM      2  C   UNL     1       5.023  -1.157  -1.605  0.00  0.00    +0.000 A 
ATOM      3  C   UNL     1       6.271  -1.227  -2.220  0.00  0.00    +0.000 A 
ATOM      4  C   UNL     1       6.647  -0.261  -3.150  0.00  0.00    +0.000 A 
ATOM      5  C   UNL     1       5.763   0.767  -3.501  0.00  0.00    +0.000 A 
ATOM      6  C   UNL     1       4.534   0.856  -2.834  0.00  0.00    +0.000 A 
ENDROOT
BRANCH   5   7
ATOM      7  C   UNL     1       6.083   1.753  -4.541  0.00  0.00    +0.000 C 
ATOM      8  C   UNL     1       6.813   1.470  -5.634  0.00  0.00    +0.000 C 
BRANCH   8   9
ATOM      9  C   UNL     1       7.052   2.428  -6.721  0.00  0.00    +0.000 A 
ATOM     10  C   UNL     1       7.842   2.075  -7.810  0.00  0.00    +0.000 A 
ATOM     11  C   UNL     1       8.029   3.006  -8.834  0.00  0.00    +0.000 A 
ATOM     12  C   UNL     1       7.424   4.263  -8.751  0.00  0.00    +0.000 A 
ATOM     13  C   UNL     1       6.647   4.517  -7.633  0.00  0.00    +0.000 A 
ATOM     14  N   UNL     1       6.451   3.636  -6.622  0.00  0.00    +0.000 NA
BRANCH  12  15
ATOM     15  C   UNL     1       7.641   5.247  -9.836  0.00  0.00    +0.000 C 
ATOM     16  N   UNL     1       7.058   6.481  -9.743  0.00  0.00    +0.000 N 
ATOM     17  O   UNL     1       8.338   4.973 -10.806  0.00  0.00    +0.000 OA
ATOM     18  H   UNL     1       6.482   6.814  -8.987  0.00  0.00    +0.000 HD
ATOM     19  H   UNL     1       7.247   7.125 -10.502  0.00  0.00    +0.000 HD
ENDBRANCH  12  15
ENDBRANCH   8   9
ENDBRANCH   5   7
BRANCH   1  20
ATOM     20  O   UNL     1       2.934   0.104  -1.298  0.00  0.00    +0.000 OA
BRANCH  20  22
ATOM     21  C   UNL     1       1.937  -2.006  -0.559  0.00  0.00    +0.000 C 
ATOM     22  C   UNL     1       2.520  -0.660  -0.134  0.00  0.00    +0.000 C 
ATOM     23  C   UNL     1       3.456  -0.653   1.117  0.00  0.00    +0.000 C 
ATOM     24  C   UNL     1       2.677   0.566   1.642  0.00  0.00    +0.000 C 
ATOM     25  C   UNL     1       1.497   0.116   0.760  0.00  0.00    +0.000 C 
BRANCH  24  26
ATOM     26  O   UNL     1       2.445   0.613   3.061  0.00  0.00    +0.000 OA
ATOM     27  H   UNL     1       2.093  -0.260   3.304  0.00  0.00    +0.000 HD
ENDBRANCH  24  26
ENDBRANCH  20  22
ENDBRANCH   1  20
TORSDOF 6
