REMARK  Name = 
REMARK  5 active torsions:
REMARK  status: ('A' for Active; 'I' for Inactive)
REMARK    1  A    between atoms: N_1  and  C_2
REMARK    2  A    between atoms: C_2  and  C_3
REMARK    3  A    between atoms: C_6  and  C_7
REMARK    4  A    between atoms: C_7  and  N_8
REMARK    5  A    between atoms: C_13  and  C_14
REMARK                            x       y       z     vdW  Elec       q    Type
REMARK                         _______ _______ _______ _____ _____    ______ ____
ROOT
ATOM      1  N   UNL     1       3.157   6.551  -0.296  0.00  0.00    +0.000 N 
ATOM      2  C   UNL     1       2.361   7.092   0.689  0.00  0.00    +0.000 A 
ATOM      3  C   UNL     1       1.613   8.104   0.124  0.00  0.00    +0.000 A 
ATOM      4  C   UNL     1       1.971   8.189  -1.246  0.00  0.00    +0.000 A 
ATOM      5  C   UNL     1       1.602   9.008  -2.326  0.00  0.00    +0.000 A 
ATOM      6  C   UNL     1       2.215   8.784  -3.565  0.00  0.00    +0.000 A 
ATOM      7  C   UNL     1       3.144   7.751  -3.664  0.00  0.00    +0.000 A 
ATOM      8  N   UNL     1       3.537   6.937  -2.657  0.00  0.00    +0.000 NA
ATOM      9  C   UNL     1       2.927   7.203  -1.484  0.00  0.00    +0.000 A 
ENDROOT
BRANCH   6  10
ATOM     10  C   UNL     1       1.921   9.624  -4.768  0.00  0.00    +0.000 C 
ATOM     11  F   UNL     1       1.005  10.606  -4.535  0.00  0.00    +0.000 F 
ATOM     12  F   UNL     1       3.029  10.258  -5.244  0.00  0.00    +0.000 F 
ATOM     13  F   UNL     1       1.431   8.898  -5.810  0.00  0.00    +0.000 F 
ENDBRANCH   6  10
BRANCH   1  14
ATOM     14  C   UNL     1       4.188   5.541  -0.084  0.00  0.00    +0.000 C 
BRANCH  14  18
ATOM     15  C   UNL     1       2.659   1.480  -0.149  0.00  0.00    +0.000 A 
ATOM     16  C   UNL     1       2.595   2.286  -1.294  0.00  0.00    +0.000 A 
ATOM     17  C   UNL     1       3.088   3.594  -1.276  0.00  0.00    +0.000 A 
ATOM     18  C   UNL     1       3.648   4.132  -0.109  0.00  0.00    +0.000 A 
ATOM     19  C   UNL     1       3.736   3.316   1.028  0.00  0.00    +0.000 A 
ATOM     20  C   UNL     1       3.248   2.005   1.007  0.00  0.00    +0.000 A 
BRANCH  15  21
ATOM     21  C   UNL     1       2.060   0.096  -0.149  0.00  0.00    +0.000 C 
BRANCH  21  22
ATOM     22  N   UNL     1       2.684  -0.779  -1.135  0.00  0.00    +0.000 NA
ATOM     23  H   UNL     1       2.275  -1.708  -1.059  0.00  0.00    +0.000 HD
ATOM     24  H   UNL     1       3.672  -0.878  -0.907  0.00  0.00    +0.000 HD
ENDBRANCH  21  22
ENDBRANCH  15  21
ENDBRANCH  14  18
ENDBRANCH   1  14
TORSDOF 5
