REMARK  Name = 
REMARK  10 active torsions:
REMARK  status: ('A' for Active; 'I' for Inactive)
REMARK    1  A    between atoms: C_1  and  O_2
REMARK    2  A    between atoms: O_2  and  C_3
REMARK    3  A    between atoms: C_6  and  C_7
REMARK    4  A    between atoms: C_11  and  C_12
REMARK    5  A    between atoms: C_12  and  C_13
REMARK    6  A    between atoms: C_12  and  C_14
REMARK    7  A    between atoms: C_12  and  C_15
REMARK    8  A    between atoms: C_15  and  N_16
REMARK    9  A    between atoms: N_16  and  C_17
REMARK   10  A    between atoms: C_20  and  C_21
REMARK                            x       y       z     vdW  Elec       q    Type
REMARK                         _______ _______ _______ _____ _____    ______ ____
ROOT
ATOM      1  C   UNL     1       7.008   5.061   5.813  0.00  0.00    +0.000 C 
ATOM      2  C   UNL     1       8.552   5.174   5.761  0.00  0.00    +0.000 C 
ATOM      3  C   UNL     1       6.472   6.192   6.725  0.00  0.00    +0.000 C 
ENDROOT
BRANCH   1   8
ATOM      4  C   UNL     1       5.185   4.428   2.442  0.00  0.00    +0.000 A 
ATOM      5  C   UNL     1       5.432   5.676   1.873  0.00  0.00    +0.000 A 
ATOM      6  N   UNL     1       6.154   6.665   2.450  0.00  0.00    +0.000 NA
ATOM      7  C   UNL     1       6.641   6.421   3.684  0.00  0.00    +0.000 A 
ATOM      8  C   UNL     1       6.459   5.230   4.389  0.00  0.00    +0.000 A 
ATOM      9  C   UNL     1       5.750   4.225   3.711  0.00  0.00    +0.000 A 
BRANCH   4  13
ATOM     10  C   UNL     1       2.707   1.472   0.462  0.00  0.00    +0.000 A 
ATOM     11  C   UNL     1       2.756   1.552   1.858  0.00  0.00    +0.000 A 
ATOM     12  C   UNL     1       3.566   2.496   2.502  0.00  0.00    +0.000 A 
ATOM     13  C   UNL     1       4.364   3.394   1.773  0.00  0.00    +0.000 A 
ATOM     14  C   UNL     1       4.314   3.291   0.374  0.00  0.00    +0.000 A 
ATOM     15  C   UNL     1       3.487   2.362  -0.281  0.00  0.00    +0.000 A 
ATOM     16 CL   UNL     1       3.457   2.489  -2.005  0.00  0.00    +0.000 Cl
BRANCH  10  18
ATOM     17  C   UNL     1       2.142  -0.171  -1.169  0.00  0.00    +0.000 C 
ATOM     18  O   UNL     1       1.803   0.550   0.009  0.00  0.00    +0.000 OA
ENDBRANCH  10  18
ENDBRANCH   4  13
ENDBRANCH   1   8
BRANCH   1  19
ATOM     19  C   UNL     1       6.684   3.685   6.487  0.00  0.00    +0.000 C 
BRANCH  19  20
ATOM     20  N   UNL     1       5.251   3.421   6.600  0.00  0.00    +0.000 N 
ATOM     21  H   UNL     1       4.616   4.204   6.481  0.00  0.00    +0.000 HD
BRANCH  20  22
ATOM     22  C   UNL     1       4.730   2.255   7.131  0.00  0.00    +0.000 A 
ATOM     23  C   UNL     1       5.516   1.195   7.587  0.00  0.00    +0.000 A 
ATOM     24  C   UNL     1       4.927   0.027   8.070  0.00  0.00    +0.000 A 
ATOM     25  C   UNL     1       3.543  -0.063   8.065  0.00  0.00    +0.000 A 
ATOM     26  N   UNL     1       2.726   0.921   7.606  0.00  0.00    +0.000 NA
ATOM     27  C   UNL     1       3.346   2.038   7.151  0.00  0.00    +0.000 A 
BRANCH  25  28
ATOM     28  C   UNL     1       2.881  -1.295   8.599  0.00  0.00    +0.000 C 
ATOM     29  N   UNL     1       1.513  -1.287   8.568  0.00  0.00    +0.000 N 
ATOM     30  O   UNL     1       3.515  -2.243   9.043  0.00  0.00    +0.000 OA
ATOM     31  H   UNL     1       1.026  -0.473   8.211  0.00  0.00    +0.000 HD
ATOM     32  H   UNL     1       1.000  -2.073   8.940  0.00  0.00    +0.000 HD
ENDBRANCH  25  28
ENDBRANCH  20  22
ENDBRANCH  19  20
ENDBRANCH   1  19
TORSDOF 7
