REMARK  Name = 
REMARK  3 active torsions:
REMARK  status: ('A' for Active; 'I' for Inactive)
REMARK    1  A    between atoms: C_5  and  C_6
REMARK    2  A    between atoms: C_6  and  C_7
REMARK    3  A    between atoms: C_11  and  C_12
REMARK                            x       y       z     vdW  Elec       q    Type
REMARK                         _______ _______ _______ _____ _____    ______ ____
ROOT
ATOM      1  C   UNL     1       6.709   1.517  -0.239  0.00  0.00    +0.000 A 
ATOM      2  C   UNL     1       6.273   2.604  -1.012  0.00  0.00    +0.000 A 
ATOM      3  C   UNL     1       6.485   3.919  -0.594  0.00  0.00    +0.000 A 
ATOM      4  C   UNL     1       7.171   4.176   0.592  0.00  0.00    +0.000 A 
ATOM      5  C   UNL     1       7.673   3.121   1.361  0.00  0.00    +0.000 A 
ATOM      6  C   UNL     1       7.421   1.806   0.938  0.00  0.00    +0.000 A 
ENDROOT
BRANCH   5   7
ATOM      7  C   UNL     1       8.507   3.396   2.599  0.00  0.00    +0.000 C 
ATOM      8  C   UNL     1       9.920   2.810   2.444  0.00  0.00    +0.000 C 
ATOM      9  C   UNL     1      10.727   2.996   3.719  0.00  0.00    +0.000 C 
ATOM     10  O   UNL     1      10.039   2.430   4.834  0.00  0.00    +0.000 OA
ATOM     11  C   UNL     1       8.785   3.067   5.073  0.00  0.00    +0.000 C 
ATOM     12  C   UNL     1       7.849   2.876   3.886  0.00  0.00    +0.000 C 
ENDBRANCH   5   7
BRANCH   1  13
ATOM     13  C   UNL     1       6.395   0.076  -0.639  0.00  0.00    +0.000 C 
ATOM     14  C   UNL     1       5.786  -0.833   0.427  0.00  0.00    +0.000 C 
ATOM     15  C   UNL     1       4.918  -0.311  -0.671  0.00  0.00    +0.000 C 
BRANCH  13  20
ATOM     16  F   UNL     1       9.807  -2.306  -4.374  0.00  0.00    +0.000 F 
ATOM     17  C   UNL     1       9.010  -1.726  -3.463  0.00  0.00    +0.000 A 
ATOM     18  C   UNL     1       7.682  -1.505  -3.763  0.00  0.00    +0.000 A 
ATOM     19  N   UNL     1       6.819  -0.924  -2.894  0.00  0.00    +0.000 NA
ATOM     20  C   UNL     1       7.323  -0.564  -1.676  0.00  0.00    +0.000 A 
ATOM     21  C   UNL     1       8.676  -0.808  -1.406  0.00  0.00    +0.000 A 
ATOM     22  N   UNL     1       9.549  -1.388  -2.275  0.00  0.00    +0.000 NA
ENDBRANCH  13  20
ENDBRANCH   1  13
TORSDOF 3
