REMARK  Name = 
REMARK  4 active torsions:
REMARK  status: ('A' for Active; 'I' for Inactive)
REMARK    1  A    between atoms: C_2  and  C_3
REMARK    2  A    between atoms: C_6  and  C_7
REMARK    3  A    between atoms: C_7  and  N_8
REMARK    4  A    between atoms: C_12  and  C_13
REMARK                            x       y       z     vdW  Elec       q    Type
REMARK                         _______ _______ _______ _____ _____    ______ ____
ROOT
ATOM      1  N   UNL     1       4.125   1.297   0.842  0.00  0.00    +0.000 N 
ATOM      2  C   UNL     1       4.279   2.582   0.349  0.00  0.00    +0.000 A 
ATOM      3  C   UNL     1       3.754   3.073  -0.847  0.00  0.00    +0.000 A 
ATOM      4  N   UNL     1       3.946   4.349  -1.295  0.00  0.00    +0.000 NA
ATOM      5  C   UNL     1       4.680   5.136  -0.460  0.00  0.00    +0.000 A 
ATOM      6  C   UNL     1       5.180   4.669   0.743  0.00  0.00    +0.000 A 
ATOM      7  N   UNL     1       4.993   3.393   1.163  0.00  0.00    +0.000 NA
ATOM      8  H   UNL     1       4.708   1.210   1.670  0.00  0.00    +0.000 HD
ENDROOT
BRANCH   5   9
ATOM      9  C   UNL     1       4.960   6.541  -0.863  0.00  0.00    +0.000 C 
ATOM     10  N   UNL     1       4.459   6.955  -2.067  0.00  0.00    +0.000 N 
ATOM     11  O   UNL     1       5.615   7.298  -0.154  0.00  0.00    +0.000 OA
ATOM     12  H   UNL     1       3.921   6.332  -2.656  0.00  0.00    +0.000 HD
ATOM     13  H   UNL     1       4.634   7.907  -2.362  0.00  0.00    +0.000 HD
ENDBRANCH   5   9
BRANCH   1  14
ATOM     14  C   UNL     1       3.759   0.097   0.096  0.00  0.00    +0.000 C 
ATOM     15  C   UNL     1       4.706  -0.561  -0.886  0.00  0.00    +0.000 C 
ATOM     16  C   UNL     1       4.569  -1.145   0.478  0.00  0.00    +0.000 C 
BRANCH  14  20
ATOM     17  C   UNL     1      -0.505  -0.657  -0.324  0.00  0.00    +0.000 A 
ATOM     18  C   UNL     1       0.270  -0.429  -1.462  0.00  0.00    +0.000 A 
ATOM     19  C   UNL     1       1.633  -0.152  -1.333  0.00  0.00    +0.000 A 
ATOM     20  C   UNL     1       2.256  -0.106  -0.071  0.00  0.00    +0.000 A 
ATOM     21  C   UNL     1       1.437  -0.282   1.059  0.00  0.00    +0.000 A 
ATOM     22  C   UNL     1       0.076  -0.568   0.939  0.00  0.00    +0.000 A 
BRANCH  17  24
ATOM     23  N   UNL     1      -3.007  -1.292  -0.555  0.00  0.00    +0.000 NA
ATOM     24  C   UNL     1      -1.886  -0.997  -0.452  0.00  0.00    +0.000 C 
ENDBRANCH  17  24
ENDBRANCH  14  20
ENDBRANCH   1  14
TORSDOF 4
