REMARK  Name = 
REMARK  7 active torsions:
REMARK  status: ('A' for Active; 'I' for Inactive)
REMARK    1  A    between atoms: C_1  and  C_2
REMARK    2  A    between atoms: C_2  and  N_3
REMARK    3  A    between atoms: C_2  and  C_16
REMARK    4  A    between atoms: C_4  and  C_6
REMARK    5  A    between atoms: C_19  and  C_20
REMARK    6  A    between atoms: C_20  and  N_21
REMARK    7  A    between atoms: C_22  and  C_24
REMARK                            x       y       z     vdW  Elec       q    Type
REMARK                         _______ _______ _______ _____ _____    ______ ____
ROOT
ATOM      1  C   UNL     1       3.601  -1.001   0.164  0.00  0.00    +0.000 C 
ATOM      2  C   UNL     1       2.543   0.088  -0.032  0.00  0.00    +0.000 C 
ENDROOT
BRANCH   2   3
ATOM      3  C   UNL     1       3.017   1.309  -0.809  0.00  0.00    +0.000 A 
ATOM      4  C   UNL     1       2.424   2.554  -0.539  0.00  0.00    +0.000 A 
ATOM      5  C   UNL     1       2.779   3.698  -1.263  0.00  0.00    +0.000 A 
ATOM      6  C   UNL     1       3.725   3.627  -2.291  0.00  0.00    +0.000 A 
ATOM      7  C   UNL     1       4.335   2.394  -2.552  0.00  0.00    +0.000 A 
ATOM      8  C   UNL     1       3.976   1.246  -1.830  0.00  0.00    +0.000 A 
BRANCH   6   9
ATOM      9  C   UNL     1       4.082   4.851  -3.091  0.00  0.00    +0.000 C 
BRANCH   9  10
ATOM     10  N   UNL     1       5.151   5.594  -2.472  0.00  0.00    +0.000 N 
ATOM     11  C   UNL     1       5.681   6.716  -3.065  0.00  0.00    +0.000 C 
ATOM     12  O   UNL     1       5.301   7.127  -4.160  0.00  0.00    +0.000 OA
ATOM     13  H   UNL     1       5.429   5.340  -1.537  0.00  0.00    +0.000 HD
BRANCH  11  14
ATOM     14  C   UNL     1       6.705   7.381  -2.307  0.00  0.00    +0.000 A 
ATOM     15  C   UNL     1       7.324   7.105  -1.101  0.00  0.00    +0.000 A 
ATOM     16  C   UNL     1       8.252   8.144  -0.914  0.00  0.00    +0.000 A 
ATOM     17  N   UNL     1       8.238   9.023  -1.916  0.00  0.00    +0.000 NA
ATOM     18  N   UNL     1       7.296   8.536  -2.748  0.00  0.00    +0.000 N 
ATOM     19  H   UNL     1       7.095   9.035  -3.609  0.00  0.00    +0.000 HD
ENDBRANCH  11  14
ENDBRANCH   9  10
ENDBRANCH   6   9
ENDBRANCH   2   3
BRANCH   2  20
ATOM     20  N   UNL     1       1.365  -0.463  -0.680  0.00  0.00    +0.000 N 
ATOM     21  C   UNL     1       0.396  -1.144   0.014  0.00  0.00    +0.000 C 
ATOM     22  O   UNL     1       0.409  -1.238   1.239  0.00  0.00    +0.000 OA
ATOM     23  H   UNL     1       1.407  -0.552  -1.689  0.00  0.00    +0.000 HD
BRANCH  21  24
ATOM     24  C   UNL     1      -0.699  -1.706  -0.782  0.00  0.00    +0.000 A 
ATOM     25  C   UNL     1      -1.955  -1.875  -0.214  0.00  0.00    +0.000 A 
ATOM     26  S   UNL     1      -3.108  -2.526  -1.289  0.00  0.00    +0.000 S 
ATOM     27  C   UNL     1      -1.955  -2.658  -2.533  0.00  0.00    +0.000 A 
ATOM     28  N   UNL     1      -2.285  -3.192  -3.740  0.00  0.00    +0.000 NA
ATOM     29  C   UNL     1      -1.300  -3.277  -4.571  0.00  0.00    +0.000 A 
ATOM     30  N   UNL     1      -0.018  -2.867  -4.309  0.00  0.00    +0.000 N 
ATOM     31  C   UNL     1       0.348  -2.267  -3.127  0.00  0.00    +0.000 A 
ATOM     32  O   UNL     1       1.479  -1.824  -2.959  0.00  0.00    +0.000 OA
ATOM     33  C   UNL     1      -0.715  -2.183  -2.143  0.00  0.00    +0.000 A 
ATOM     34  H   UNL     1       0.701  -2.942  -5.013  0.00  0.00    +0.000 HD
ENDBRANCH  21  24
ENDBRANCH   2  20
TORSDOF 6
