REMARK  Name = 
REMARK  6 active torsions:
REMARK  status: ('A' for Active; 'I' for Inactive)
REMARK    1  A    between atoms: C_2  and  C_25
REMARK    2  A    between atoms: N_3  and  C_4
REMARK    3  A    between atoms: C_4  and  C_5
REMARK    4  A    between atoms: C_8  and  C_9
REMARK    5  A    between atoms: C_9  and  N_10
REMARK    6  A    between atoms: C_11  and  C_13
REMARK                            x       y       z     vdW  Elec       q    Type
REMARK                         _______ _______ _______ _____ _____    ______ ____
ROOT
ATOM      1  C   UNL     1       3.296   2.414  -2.754  0.00  0.00    +0.000 A 
ATOM      2  C   UNL     1       3.091   3.797  -2.851  0.00  0.00    +0.000 A 
ATOM      3  C   UNL     1       3.949   4.595  -3.618  0.00  0.00    +0.000 A 
ATOM      4  C   UNL     1       5.018   4.025  -4.321  0.00  0.00    +0.000 A 
ATOM      5  C   UNL     1       5.239   2.646  -4.202  0.00  0.00    +0.000 A 
ATOM      6  C   UNL     1       4.380   1.847  -3.438  0.00  0.00    +0.000 A 
ENDROOT
BRANCH   1   7
ATOM      7  C   UNL     1       2.365   1.556  -1.939  0.00  0.00    +0.000 C 
BRANCH   7  10
ATOM      8  O   UNL     1       0.228  -0.015  -0.935  0.00  0.00    +0.000 OA
ATOM      9  C   UNL     1       0.266   0.306  -2.113  0.00  0.00    +0.000 C 
ATOM     10  N   UNL     1       1.234   1.087  -2.700  0.00  0.00    +0.000 N 
ATOM     11  H   UNL     1       1.170   1.251  -3.701  0.00  0.00    +0.000 HD
BRANCH   9  12
ATOM     12  C   UNL     1      -0.804  -0.180  -3.054  0.00  0.00    +0.000 C 
ATOM     13  C   UNL     1      -1.936  -1.009  -2.609  0.00  0.00    +0.000 C 
ATOM     14  C   UNL     1      -2.672  -1.227  -3.815  0.00  0.00    +0.000 C 
ATOM     15  C   UNL     1      -2.000  -0.569  -4.771  0.00  0.00    +0.000 C 
ATOM     16  N   UNL     1      -0.850   0.080  -4.341  0.00  0.00    +0.000 NA
ENDBRANCH   9  12
ENDBRANCH   7  10
ENDBRANCH   1   7
BRANCH   4  17
ATOM     17  C   UNL     1       5.920   4.874  -5.184  0.00  0.00    +0.000 C 
BRANCH  17  18
ATOM     18  N   UNL     1       7.025   5.418  -4.438  0.00  0.00    +0.000 N 
ATOM     19  C   UNL     1       7.931   6.263  -5.029  0.00  0.00    +0.000 C 
ATOM     20  O   UNL     1       7.808   6.647  -6.188  0.00  0.00    +0.000 OA
ATOM     21  H   UNL     1       7.268   4.951  -3.571  0.00  0.00    +0.000 HD
BRANCH  19  22
ATOM     22  C   UNL     1       9.036   6.736  -4.180  0.00  0.00    +0.000 A 
ATOM     23  C   UNL     1       9.687   7.919  -4.490  0.00  0.00    +0.000 A 
ATOM     24  S   UNL     1      10.911   8.342  -3.379  0.00  0.00    +0.000 S 
ATOM     25  C   UNL     1      10.651   6.925  -2.473  0.00  0.00    +0.000 A 
ATOM     26  N   UNL     1      11.406   6.649  -1.377  0.00  0.00    +0.000 NA
ATOM     27  C   UNL     1      11.122   5.526  -0.803  0.00  0.00    +0.000 A 
ATOM     28  N   UNL     1      10.148   4.659  -1.225  0.00  0.00    +0.000 N 
ATOM     29  C   UNL     1       9.342   4.911  -2.307  0.00  0.00    +0.000 A 
ATOM     30  O   UNL     1       8.448   4.136  -2.630  0.00  0.00    +0.000 OA
ATOM     31  C   UNL     1       9.629   6.154  -2.998  0.00  0.00    +0.000 A 
ATOM     32  H   UNL     1       9.967   3.800  -0.726  0.00  0.00    +0.000 HD
ENDBRANCH  19  22
ENDBRANCH  17  18
ENDBRANCH   4  17
TORSDOF 6
