REMARK  Name = 
REMARK  6 active torsions:
REMARK  status: ('A' for Active; 'I' for Inactive)
REMARK    1  A    between atoms: C_2  and  C_18
REMARK    2  A    between atoms: N_3  and  C_4
REMARK    3  A    between atoms: C_4  and  C_5
REMARK    4  A    between atoms: C_8  and  C_9
REMARK    5  A    between atoms: C_9  and  N_10
REMARK    6  A    between atoms: C_13  and  O_14
REMARK                            x       y       z     vdW  Elec       q    Type
REMARK                         _______ _______ _______ _____ _____    ______ ____
ROOT
ATOM      1  O   UNL     1       0.337   0.206  -0.145  0.00  0.00    +0.000 OA
ATOM      2  C   UNL     1       0.453   0.054  -1.356  0.00  0.00    +0.000 C 
ATOM      3  N   UNL     1       1.266   0.861  -2.125  0.00  0.00    +0.000 N 
ATOM      4  H   UNL     1       1.511   0.562  -3.061  0.00  0.00    +0.000 HD
ENDROOT
BRANCH   2   5
ATOM      5  C   UNL     1      -0.305  -0.969  -2.081  0.00  0.00    +0.000 A 
ATOM      6  C   UNL     1      -1.481  -1.475  -1.546  0.00  0.00    +0.000 A 
ATOM      7  S   UNL     1      -2.257  -2.609  -2.557  0.00  0.00    +0.000 S 
ATOM      8  C   UNL     1      -1.023  -2.497  -3.725  0.00  0.00    +0.000 A 
ATOM      9  N   UNL     1      -1.074  -3.226  -4.873  0.00  0.00    +0.000 NA
ATOM     10  C   UNL     1      -0.059  -3.060  -5.654  0.00  0.00    +0.000 A 
ATOM     11  N   UNL     1       1.008  -2.240  -5.389  0.00  0.00    +0.000 N 
ATOM     12  C   UNL     1       1.099  -1.485  -4.246  0.00  0.00    +0.000 A 
ATOM     13  O   UNL     1       2.067  -0.761  -4.038  0.00  0.00    +0.000 OA
ATOM     14  C   UNL     1      -0.031  -1.615  -3.343  0.00  0.00    +0.000 A 
ATOM     15  H   UNL     1       1.774  -2.159  -6.038  0.00  0.00    +0.000 HD
ENDBRANCH   2   5
BRANCH   3  16
ATOM     16  C   UNL     1       2.167   1.778  -1.496  0.00  0.00    +0.000 C 
BRANCH  16  17
ATOM     17  C   UNL     1       2.897   2.648  -2.483  0.00  0.00    +0.000 A 
ATOM     18  C   UNL     1       2.317   3.835  -2.945  0.00  0.00    +0.000 A 
ATOM     19  C   UNL     1       3.080   4.759  -3.662  0.00  0.00    +0.000 A 
ATOM     20  C   UNL     1       4.442   4.526  -3.904  0.00  0.00    +0.000 A 
ATOM     21  C   UNL     1       4.965   3.262  -3.596  0.00  0.00    +0.000 A 
ATOM     22  C   UNL     1       4.197   2.328  -2.895  0.00  0.00    +0.000 A 
BRANCH  20  23
ATOM     23  C   UNL     1       5.362   5.618  -4.431  0.00  0.00    +0.000 C 
BRANCH  23  24
ATOM     24  N   UNL     1       4.967   6.979  -4.026  0.00  0.00    +0.000 NA
ATOM     25  C   UNL     1       4.991   7.191  -2.570  0.00  0.00    +0.000 C 
ATOM     26  C   UNL     1       6.170   8.089  -2.223  0.00  0.00    +0.000 C 
ATOM     27  C   UNL     1       6.826   8.437  -3.544  0.00  0.00    +0.000 C 
ATOM     28  C   UNL     1       5.807   8.034  -4.610  0.00  0.00    +0.000 C 
BRANCH  27  29
ATOM     29  O   UNL     1       8.065   7.741  -3.665  0.00  0.00    +0.000 OA
ATOM     30  H   UNL     1       7.938   6.981  -4.255  0.00  0.00    +0.000 HD
ENDBRANCH  27  29
ENDBRANCH  23  24
ENDBRANCH  20  23
ENDBRANCH  16  17
ENDBRANCH   3  16
TORSDOF 6
