REMARK  Name = 
REMARK  10 active torsions:
REMARK  status: ('A' for Active; 'I' for Inactive)
REMARK    1  A    between atoms: N_1  and  C_2
REMARK    2  A    between atoms: C_2  and  C_3
REMARK    3  A    between atoms: C_3  and  N_4
REMARK    4  A    between atoms: C_3  and  C_20
REMARK    5  A    between atoms: N_4  and  C_5
REMARK    6  A    between atoms: C_5  and  C_6
REMARK    7  A    between atoms: C_9  and  C_10
REMARK    8  A    between atoms: C_10  and  N_11
REMARK    9  A    between atoms: N_11  and  C_12
REMARK   10  A    between atoms: C_12  and  C_13
REMARK                            x       y       z     vdW  Elec       q    Type
REMARK                         _______ _______ _______ _____ _____    ______ ____
ROOT
ATOM      1  N   UNL     1       0.495   1.251  -2.466  0.00  0.00    +0.000 NA
ATOM      2  H   UNL     1      -0.518   1.228  -2.343  0.00  0.00    +0.000 HD
ENDROOT
BRANCH   1   3
ATOM      3  C   UNL     1       0.969  -0.147  -2.349  0.00  0.00    +0.000 C 
BRANCH   3   4
ATOM      4  C   UNL     1       0.188  -0.969  -3.370  0.00  0.00    +0.000 A 
ATOM      5  C   UNL     1      -0.184  -0.526  -4.632  0.00  0.00    +0.000 A 
ATOM      6  S   UNL     1      -1.050  -1.686  -5.535  0.00  0.00    +0.000 S 
ATOM      7  C   UNL     1      -0.958  -2.821  -4.275  0.00  0.00    +0.000 A 
ATOM      8  N   UNL     1      -1.506  -4.062  -4.397  0.00  0.00    +0.000 NA
ATOM      9  C   UNL     1      -1.355  -4.814  -3.359  0.00  0.00    +0.000 A 
ATOM     10  N   UNL     1      -0.708  -4.442  -2.207  0.00  0.00    +0.000 N 
ATOM     11  C   UNL     1      -0.129  -3.202  -2.037  0.00  0.00    +0.000 A 
ATOM     12  O   UNL     1       0.446  -2.901  -0.999  0.00  0.00    +0.000 OA
ATOM     13  C   UNL     1      -0.275  -2.324  -3.179  0.00  0.00    +0.000 A 
ATOM     14  H   UNL     1      -0.631  -5.080  -1.430  0.00  0.00    +0.000 HD
ENDBRANCH   3   4
BRANCH   3  15
ATOM     15  C   UNL     1       2.515  -0.328  -2.513  0.00  0.00    +0.000 C 
BRANCH  15  16
ATOM     16  N   UNL     1       3.070   0.130  -3.793  0.00  0.00    +0.000 NA
ATOM     17  H   UNL     1       4.085   0.074  -3.769  0.00  0.00    +0.000 HD
ATOM     18  H   UNL     1       2.817   1.109  -3.929  0.00  0.00    +0.000 HD
ENDBRANCH  15  16
ENDBRANCH   3  15
ENDBRANCH   1   3
BRANCH   1  19
ATOM     19  C   UNL     1       1.059   2.126  -1.443  0.00  0.00    +0.000 C 
BRANCH  19  20
ATOM     20  C   UNL     1       0.486   3.524  -1.508  0.00  0.00    +0.000 A 
ATOM     21  C   UNL     1      -0.889   3.747  -1.350  0.00  0.00    +0.000 A 
ATOM     22  C   UNL     1      -1.402   5.045  -1.346  0.00  0.00    +0.000 A 
ATOM     23  C   UNL     1      -0.553   6.152  -1.484  0.00  0.00    +0.000 A 
ATOM     24  C   UNL     1       0.820   5.931  -1.647  0.00  0.00    +0.000 A 
ATOM     25  C   UNL     1       1.333   4.631  -1.662  0.00  0.00    +0.000 A 
BRANCH  23  26
ATOM     26  C   UNL     1      -1.110   7.557  -1.463  0.00  0.00    +0.000 C 
BRANCH  26  27
ATOM     27  N   UNL     1      -1.796   7.822  -0.201  0.00  0.00    +0.000 NA
ATOM     28  H   UNL     1      -1.131   7.696   0.563  0.00  0.00    +0.000 HD
BRANCH  27  29
ATOM     29  C   UNL     1      -2.304   9.186  -0.144  0.00  0.00    +0.000 C 
BRANCH  29  30
ATOM     30  C   UNL     1      -2.983   9.377   1.167  0.00  0.00    +0.000 A 
ATOM     31  C   UNL     1      -2.758  10.272   2.194  0.00  0.00    +0.000 A 
ATOM     32  C   UNL     1      -3.697   9.995   3.218  0.00  0.00    +0.000 A 
ATOM     33  C   UNL     1      -4.469   8.938   2.792  0.00  0.00    +0.000 A 
ATOM     34  N   UNL     1      -4.029   8.569   1.550  0.00  0.00    +0.000 N 
ATOM     35  H   UNL     1      -4.378   7.795   0.999  0.00  0.00    +0.000 HD
ENDBRANCH  29  30
ENDBRANCH  27  29
ENDBRANCH  26  27
ENDBRANCH  23  26
ENDBRANCH  19  20
ENDBRANCH   1  19
TORSDOF 10
