REMARK  Name = 
REMARK  12 active torsions:
REMARK  status: ('A' for Active; 'I' for Inactive)
REMARK    1  A    between atoms: C_1  and  N_2
REMARK    2  A    between atoms: N_2  and  C_3
REMARK    3  A    between atoms: N_2  and  C_4
REMARK    4  A    between atoms: C_4  and  C_5
REMARK    5  A    between atoms: C_5  and  N_6
REMARK    6  A    between atoms: C_7  and  C_9
REMARK    7  A    between atoms: N_13  and  C_14
REMARK    8  A    between atoms: C_14  and  C_15
REMARK    9  A    between atoms: C_15  and  C_16
REMARK   10  A    between atoms: C_15  and  C_17
REMARK   11  A    between atoms: C_15  and  C_18
REMARK   12  A    between atoms: C_22  and  C_23
REMARK                            x       y       z     vdW  Elec       q    Type
REMARK                         _______ _______ _______ _____ _____    ______ ____
ROOT
ATOM      1  C   UNL     1       6.916   1.419   4.279  0.00  0.00    +0.000 A 
ATOM      2  C   UNL     1       6.310   0.926   5.429  0.00  0.00    +0.000 A 
ATOM      3  C   UNL     1       6.854   1.251   6.673  0.00  0.00    +0.000 A 
ATOM      4  C   UNL     1       7.982   2.072   6.753  0.00  0.00    +0.000 A 
ATOM      5  N   UNL     1       8.532   2.306   8.022  0.00  0.00    +0.000 N 
ATOM      6  N   UNL     1       8.573   2.557   5.645  0.00  0.00    +0.000 NA
ATOM      7  C   UNL     1       8.041   2.217   4.440  0.00  0.00    +0.000 A 
ATOM      8  H   UNL     1       7.787   2.543   8.667  0.00  0.00    +0.000 HD
ENDROOT
BRANCH   1  10
ATOM      9  N   UNL     1       5.159   0.693   2.748  0.00  0.00    +0.000 N 
ATOM     10  C   UNL     1       6.474   1.072   2.910  0.00  0.00    +0.000 C 
ATOM     11  O   UNL     1       7.274   1.137   1.981  0.00  0.00    +0.000 OA
ATOM     12  H   UNL     1       4.471   0.891   3.464  0.00  0.00    +0.000 HD
BRANCH   9  13
ATOM     13  C   UNL     1       4.636   0.387   1.429  0.00  0.00    +0.000 C 
BRANCH  13  14
ATOM     14  C   UNL     1       3.379  -0.500   1.490  0.00  0.00    +0.000 C 
BRANCH  14  16
ATOM     15  C   UNL     1       1.736   1.293   1.635  0.00  0.00    +0.000 C 
ATOM     16  N   UNL     1       2.251   0.071   2.263  0.00  0.00    +0.000 NA
ATOM     17  C   UNL     1       1.168  -0.919   2.339  0.00  0.00    +0.000 C 
ENDBRANCH  14  16
ENDBRANCH  13  14
ENDBRANCH   9  13
ENDBRANCH   1  10
BRANCH   5  18
ATOM     18  C   UNL     1       9.656   3.252   8.064  0.00  0.00    +0.000 C 
BRANCH  18  19
ATOM     19  C   UNL     1      10.113   3.551   9.534  0.00  0.00    +0.000 C 
ATOM     20  C   UNL     1       8.985   4.272  10.313  0.00  0.00    +0.000 C 
ATOM     21  C   UNL     1      10.380   2.208  10.258  0.00  0.00    +0.000 C 
BRANCH  19  22
ATOM     22  C   UNL     1      11.354   4.480   9.517  0.00  0.00    +0.000 A 
ATOM     23  C   UNL     1      11.274   5.760   8.935  0.00  0.00    +0.000 A 
ATOM     24  C   UNL     1      12.365   6.637   8.939  0.00  0.00    +0.000 A 
ATOM     25  C   UNL     1      13.567   6.255   9.526  0.00  0.00    +0.000 A 
ATOM     26  C   UNL     1      13.681   4.991  10.104  0.00  0.00    +0.000 A 
ATOM     27  C   UNL     1      12.586   4.114  10.094  0.00  0.00    +0.000 A 
BRANCH  26  28
ATOM     28  C   UNL     1      14.915   4.591  10.715  0.00  0.00    +0.000 C 
ATOM     29  N   UNL     1      15.914   4.268  11.218  0.00  0.00    +0.000 NA
ENDBRANCH  26  28
ENDBRANCH  19  22
ENDBRANCH  18  19
ENDBRANCH   5  18
TORSDOF 8
