REMARK  Name = 
REMARK  9 active torsions:
REMARK  status: ('A' for Active; 'I' for Inactive)
REMARK    1  A    between atoms: C_1  and  C_2
REMARK    2  A    between atoms: C_2  and  C_3
REMARK    3  A    between atoms: C_5  and  O_6
REMARK    4  A    between atoms: O_6  and  C_7
REMARK    5  A    between atoms: C_11  and  C_12
REMARK    6  A    between atoms: C_12  and  C_13
REMARK    7  A    between atoms: C_13  and  N_14
REMARK    8  A    between atoms: N_14  and  C_15
REMARK    9  A    between atoms: C_18  and  C_19
REMARK                            x       y       z     vdW  Elec       q    Type
REMARK                         _______ _______ _______ _____ _____    ______ ____
ROOT
ATOM      1  C   UNL     1      -4.306   0.572   4.647  0.00  0.00    +0.000 C 
ENDROOT
BRANCH   1   6
ATOM      2  C   UNL     1      -3.926   0.666   0.833  0.00  0.00    +0.000 A 
ATOM      3  C   UNL     1      -5.240   0.468   0.407  0.00  0.00    +0.000 A 
ATOM      4  C   UNL     1      -6.252   0.278   1.339  0.00  0.00    +0.000 A 
ATOM      5  C   UNL     1      -5.963   0.300   2.702  0.00  0.00    +0.000 A 
ATOM      6  C   UNL     1      -4.657   0.531   3.167  0.00  0.00    +0.000 A 
ATOM      7  C   UNL     1      -3.649   0.723   2.207  0.00  0.00    +0.000 A 
ATOM      8  F   UNL     1      -2.391   0.947   2.621  0.00  0.00    +0.000 F 
BRANCH   2   9
ATOM      9  O   UNL     1      -2.872   0.808  -0.043  0.00  0.00    +0.000 OA
BRANCH   9  14
ATOM     10  C   UNL     1      -2.922  -1.302  -4.016  0.00  0.00    +0.000 C 
ATOM     11  C   UNL     1      -2.203  -1.298  -2.667  0.00  0.00    +0.000 C 
ATOM     12  C   UNL     1      -1.124  -2.374  -2.605  0.00  0.00    +0.000 C 
ATOM     13  C   UNL     1      -3.162  -1.306  -1.450  0.00  0.00    +0.000 C 
ATOM     14  C   UNL     1      -3.023   0.239  -1.367  0.00  0.00    +0.000 C 
ATOM     15  C   UNL     1      -1.722   0.102  -2.191  0.00  0.00    +0.000 C 
ENDBRANCH   9  14
ENDBRANCH   2   9
ENDBRANCH   1   6
BRANCH   1  16
ATOM     16  C   UNL     1      -5.495   0.279   5.576  0.00  0.00    +0.000 C 
BRANCH  16  17
ATOM     17  N   UNL     1      -5.172   0.385   6.994  0.00  0.00    +0.000 N 
ATOM     18  H   UNL     1      -4.257   0.029   7.260  0.00  0.00    +0.000 HD
BRANCH  17  19
ATOM     19  C   UNL     1      -6.172   0.082   7.932  0.00  0.00    +0.000 A 
ATOM     20  C   UNL     1      -7.512  -0.154   7.592  0.00  0.00    +0.000 A 
ATOM     21  C   UNL     1      -8.495  -0.342   8.573  0.00  0.00    +0.000 A 
ATOM     22  C   UNL     1      -8.160  -0.279   9.925  0.00  0.00    +0.000 A 
ATOM     23  C   UNL     1      -6.836  -0.025  10.286  0.00  0.00    +0.000 A 
ATOM     24  C   UNL     1      -5.858   0.156   9.295  0.00  0.00    +0.000 A 
BRANCH  22  25
ATOM     25  C   UNL     1      -9.248  -0.436  10.925  0.00  0.00    +0.000 C 
ATOM     26  N   UNL     1      -8.899  -0.848  12.180  0.00  0.00    +0.000 N 
ATOM     27  O   UNL     1     -10.425  -0.240  10.637  0.00  0.00    +0.000 OA
ATOM     28  H   UNL     1      -7.995  -1.245  12.392  0.00  0.00    +0.000 HD
ATOM     29  H   UNL     1      -9.664  -1.046  12.814  0.00  0.00    +0.000 HD
ENDBRANCH  22  25
ENDBRANCH  17  19
ENDBRANCH  16  17
ENDBRANCH   1  16
TORSDOF 7
