REMARK  Name = 
REMARK  6 active torsions:
REMARK  status: ('A' for Active; 'I' for Inactive)
REMARK    1  A    between atoms: C_2  and  C_3
REMARK    2  A    between atoms: C_6  and  N_7
REMARK    3  A    between atoms: N_7  and  C_8
REMARK    4  A    between atoms: C_8  and  C_9
REMARK    5  A    between atoms: C_9  and  C_12
REMARK    6  A    between atoms: C_16  and  C_17
REMARK                            x       y       z     vdW  Elec       q    Type
REMARK                         _______ _______ _______ _____ _____    ______ ____
ROOT
ATOM      1  C   UNL     1       6.038  -1.016   0.277  0.00  0.00    +0.000 C 
ATOM      2  F   UNL     1       6.467  -0.331  -0.823  0.00  0.00    +0.000 F 
ATOM      3  F   UNL     1       6.266  -0.178   1.335  0.00  0.00    +0.000 F 
ENDROOT
BRANCH   1   4
ATOM      4  C   UNL     1       6.755  -2.346   0.433  0.00  0.00    +0.000 A 
ATOM      5  C   UNL     1       7.023  -2.861   1.706  0.00  0.00    +0.000 A 
ATOM      6  C   UNL     1       7.636  -4.103   1.844  0.00  0.00    +0.000 A 
ATOM      7  C   UNL     1       7.974  -4.849   0.712  0.00  0.00    +0.000 A 
ATOM      8  C   UNL     1       7.705  -4.378  -0.585  0.00  0.00    +0.000 A 
ATOM      9  C   UNL     1       7.106  -3.108  -0.700  0.00  0.00    +0.000 A 
BRANCH   8  10
ATOM     10  C   UNL     1       8.003  -5.200  -1.777  0.00  0.00    +0.000 A 
ATOM     11  C   UNL     1       7.819  -6.591  -1.782  0.00  0.00    +0.000 A 
ATOM     12  N   UNL     1       8.043  -7.411  -2.841  0.00  0.00    +0.000 NA
ATOM     13  C   UNL     1       8.472  -6.818  -3.976  0.00  0.00    +0.000 A 
ATOM     14  C   UNL     1       8.687  -5.458  -4.084  0.00  0.00    +0.000 A 
ATOM     15  F   UNL     1       9.107  -4.925  -5.238  0.00  0.00    +0.000 F 
ATOM     16  C   UNL     1       8.458  -4.643  -2.981  0.00  0.00    +0.000 A 
ENDBRANCH   8  10
ENDBRANCH   1   4
BRANCH   1  17
ATOM     17  C   UNL     1       4.508  -1.249   0.168  0.00  0.00    +0.000 C 
BRANCH  17  18
ATOM     18  N   UNL     1       3.722  -0.006   0.069  0.00  0.00    +0.000 N 
ATOM     19  H   UNL     1       4.103   0.776   0.602  0.00  0.00    +0.000 HD
BRANCH  18  23
ATOM     20  C   UNL     1      -0.483   0.001  -0.299  0.00  0.00    +0.000 A 
ATOM     21  C   UNL     1       0.197  -1.212  -0.201  0.00  0.00    +0.000 A 
ATOM     22  C   UNL     1       1.590  -1.230  -0.055  0.00  0.00    +0.000 A 
ATOM     23  C   UNL     1       2.330  -0.044   0.027  0.00  0.00    +0.000 A 
ATOM     24  C   UNL     1       1.630   1.166  -0.082  0.00  0.00    +0.000 A 
ATOM     25  C   UNL     1       0.238   1.195  -0.241  0.00  0.00    +0.000 A 
BRANCH  20  27
ATOM     26  N   UNL     1      -3.056   0.023  -0.625  0.00  0.00    +0.000 NA
ATOM     27  C   UNL     1      -1.904   0.018  -0.477  0.00  0.00    +0.000 C 
ENDBRANCH  20  27
ENDBRANCH  18  23
ENDBRANCH  17  18
ENDBRANCH   1  17
TORSDOF 6
