REMARK  Name = 
REMARK  5 active torsions:
REMARK  status: ('A' for Active; 'I' for Inactive)
REMARK    1  A    between atoms: C_2  and  C_4
REMARK    2  A    between atoms: C_7  and  N_8
REMARK    3  A    between atoms: N_8  and  C_9
REMARK    4  A    between atoms: C_9  and  C_10
REMARK    5  A    between atoms: C_13  and  C_14
REMARK                            x       y       z     vdW  Elec       q    Type
REMARK                         _______ _______ _______ _____ _____    ______ ____
ROOT
ATOM      1  N   UNL     1       5.299  -4.773   0.422  0.00  0.00    +0.000 N 
ATOM      2  H   UNL     1       5.379  -4.935   1.423  0.00  0.00    +0.000 HD
ENDROOT
BRANCH   1   6
ATOM      3  C   UNL     1       3.379  -1.197  -0.240  0.00  0.00    +0.000 A 
ATOM      4  C   UNL     1       2.931  -2.359  -0.847  0.00  0.00    +0.000 A 
ATOM      5  N   UNL     1       3.528  -3.567  -0.649  0.00  0.00    +0.000 NA
ATOM      6  C   UNL     1       4.588  -3.587   0.188  0.00  0.00    +0.000 A 
ATOM      7  C   UNL     1       5.023  -2.397   0.792  0.00  0.00    +0.000 A 
ATOM      8  N   UNL     1       4.444  -1.182   0.606  0.00  0.00    +0.000 NA
BRANCH   3  10
ATOM      9  N   UNL     1       3.271   1.202   0.067  0.00  0.00    +0.000 N 
ATOM     10  C   UNL     1       2.707   0.101  -0.521  0.00  0.00    +0.000 C 
ATOM     11  O   UNL     1       1.719   0.184  -1.239  0.00  0.00    +0.000 OA
ATOM     12  H   UNL     1       2.881   2.117  -0.109  0.00  0.00    +0.000 HD
ATOM     13  H   UNL     1       4.104   1.101   0.635  0.00  0.00    +0.000 HD
ENDBRANCH   3  10
ENDBRANCH   1   6
BRANCH   1  14
ATOM     14  C   UNL     1       4.792  -5.949  -0.277  0.00  0.00    +0.000 C 
BRANCH  14  15
ATOM     15  C   UNL     1       5.651  -7.139   0.073  0.00  0.00    +0.000 A 
ATOM     16  C   UNL     1       7.025  -7.154  -0.181  0.00  0.00    +0.000 A 
ATOM     17  C   UNL     1       7.788  -8.268   0.167  0.00  0.00    +0.000 A 
ATOM     18  C   UNL     1       7.162  -9.363   0.766  0.00  0.00    +0.000 A 
ATOM     19  N   UNL     1       5.818  -9.369   1.006  0.00  0.00    +0.000 NA
ATOM     20  C   UNL     1       5.104  -8.274   0.655  0.00  0.00    +0.000 A 
BRANCH  18  21
ATOM     21  C   UNL     1       7.986 -10.580   1.172  0.00  0.00    +0.000 C 
ATOM     22  F   UNL     1       9.319 -10.445   0.896  0.00  0.00    +0.000 F 
ATOM     23  F   UNL     1       7.923 -10.847   2.509  0.00  0.00    +0.000 F 
ATOM     24  F   UNL     1       7.602 -11.726   0.539  0.00  0.00    +0.000 F 
ENDBRANCH  18  21
ENDBRANCH  14  15
ENDBRANCH   1  14
TORSDOF 5
