REMARK  Name = 
REMARK  4 active torsions:
REMARK  status: ('A' for Active; 'I' for Inactive)
REMARK    1  A    between atoms: C_2  and  C_4
REMARK    2  A    between atoms: N_8  and  C_9
REMARK    3  A    between atoms: C_9  and  C_10
REMARK    4  A    between atoms: C_14  and  C_15
REMARK                            x       y       z     vdW  Elec       q    Type
REMARK                         _______ _______ _______ _____ _____    ______ ____
ROOT
ATOM      1  C   UNL     1       5.240  -5.152  -2.898  0.00  0.00    +0.000 C 
ATOM      2  C   UNL     1       5.346  -4.847  -4.387  0.00  0.00    +0.000 C 
ATOM      3  C   UNL     1       4.043  -5.293  -3.817  0.00  0.00    +0.000 C 
ENDROOT
BRANCH   1   8
ATOM      4  C   UNL     1       3.340  -2.991   1.432  0.00  0.00    +0.000 A 
ATOM      5  C   UNL     1       2.635  -3.555   0.372  0.00  0.00    +0.000 A 
ATOM      6  C   UNL     1       3.325  -3.935  -0.782  0.00  0.00    +0.000 A 
ATOM      7  C   UNL     1       4.698  -3.737  -0.860  0.00  0.00    +0.000 A 
ATOM      8  N   UNL     1       5.443  -3.985  -2.018  0.00  0.00    +0.000 N 
ATOM      9  N   UNL     1       5.392  -3.191   0.162  0.00  0.00    +0.000 NA
ATOM     10  C   UNL     1       4.707  -2.827   1.277  0.00  0.00    +0.000 A 
ATOM     11  H   UNL     1       6.411  -3.813  -1.747  0.00  0.00    +0.000 HD
BRANCH   4  13
ATOM     12  N   UNL     1       1.504  -3.095   3.020  0.00  0.00    +0.000 N 
ATOM     13  C   UNL     1       2.696  -2.524   2.676  0.00  0.00    +0.000 C 
ATOM     14  O   UNL     1       3.220  -1.676   3.387  0.00  0.00    +0.000 OA
ATOM     15  H   UNL     1       1.126  -2.833   3.923  0.00  0.00    +0.000 HD
ATOM     16  H   UNL     1       1.170  -3.954   2.608  0.00  0.00    +0.000 HD
ENDBRANCH   4  13
ENDBRANCH   1   8
BRANCH   1  17
ATOM     17  C   UNL     1       5.894  -6.422  -2.361  0.00  0.00    +0.000 A 
ATOM     18  C   UNL     1       7.194  -6.800  -2.726  0.00  0.00    +0.000 A 
ATOM     19  C   UNL     1       7.821  -7.899  -2.141  0.00  0.00    +0.000 A 
ATOM     20  C   UNL     1       7.162  -8.636  -1.156  0.00  0.00    +0.000 A 
ATOM     21  C   UNL     1       5.865  -8.296  -0.743  0.00  0.00    +0.000 A 
ATOM     22  C   UNL     1       5.246  -7.206  -1.383  0.00  0.00    +0.000 A 
BRANCH  21  23
ATOM     23  C   UNL     1       5.200  -8.997   0.379  0.00  0.00    +0.000 A 
ATOM     24  C   UNL     1       5.918  -9.382   1.518  0.00  0.00    +0.000 A 
ATOM     25  C   UNL     1       5.255  -9.988   2.576  0.00  0.00    +0.000 A 
ATOM     26  N   UNL     1       3.933 -10.236   2.584  0.00  0.00    +0.000 NA
ATOM     27  C   UNL     1       3.245  -9.866   1.486  0.00  0.00    +0.000 A 
ATOM     28  C   UNL     1       3.823  -9.260   0.376  0.00  0.00    +0.000 A 
ENDBRANCH  21  23
ENDBRANCH   1  17
TORSDOF 4
