REMARK  Name = 
REMARK  5 active torsions:
REMARK  status: ('A' for Active; 'I' for Inactive)
REMARK    1  A    between atoms: C_1  and  O_2
REMARK    2  A    between atoms: O_2  and  C_3
REMARK    3  A    between atoms: C_5  and  C_6
REMARK    4  A    between atoms: C_6  and  N_7
REMARK    5  A    between atoms: C_11  and  C_12
REMARK                            x       y       z     vdW  Elec       q    Type
REMARK                         _______ _______ _______ _____ _____    ______ ____
ROOT
ATOM      1  N   UNL     1       3.034   5.536  -1.830  0.00  0.00    +0.000 N 
ATOM      2  C   UNL     1       4.255   6.134  -2.138  0.00  0.00    +0.000 A 
ATOM      3  N   UNL     1       5.402   5.640  -1.648  0.00  0.00    +0.000 NA
ATOM      4  C   UNL     1       6.542   6.296  -1.952  0.00  0.00    +0.000 A 
ATOM      5  C   UNL     1       6.580   7.430  -2.726  0.00  0.00    +0.000 A 
ATOM      6  C   UNL     1       5.359   7.862  -3.183  0.00  0.00    +0.000 A 
ATOM      7  N   UNL     1       4.191   7.232  -2.912  0.00  0.00    +0.000 NA
ATOM      8  H   UNL     1       2.311   6.183  -2.115  0.00  0.00    +0.000 HD
ENDROOT
BRANCH   5   9
ATOM      9  C   UNL     1       7.854   8.122  -2.958  0.00  0.00    +0.000 C 
ATOM     10  N   UNL     1       7.957   8.944  -4.044  0.00  0.00    +0.000 N 
ATOM     11  O   UNL     1       8.804   7.952  -2.206  0.00  0.00    +0.000 OA
ATOM     12  H   UNL     1       7.307   8.943  -4.818  0.00  0.00    +0.000 HD
ATOM     13  H   UNL     1       8.879   9.331  -4.215  0.00  0.00    +0.000 HD
ENDBRANCH   5   9
BRANCH   1  14
ATOM     14  C   UNL     1       2.860   4.760  -0.593  0.00  0.00    +0.000 C 
ATOM     15  C   UNL     1       3.080   5.372   0.780  0.00  0.00    +0.000 C 
ATOM     16  C   UNL     1       1.686   5.188   0.283  0.00  0.00    +0.000 C 
BRANCH  14  19
ATOM     17  C   UNL     1       4.678   1.394  -0.661  0.00  0.00    +0.000 A 
ATOM     18  C   UNL     1       4.452   2.754  -0.520  0.00  0.00    +0.000 A 
ATOM     19  C   UNL     1       3.166   3.272  -0.740  0.00  0.00    +0.000 A 
ATOM     20  C   UNL     1       2.172   2.356  -1.108  0.00  0.00    +0.000 A 
ATOM     21  C   UNL     1       2.488   1.010  -1.210  0.00  0.00    +0.000 A 
ATOM     22  N   UNL     1       3.717   0.507  -0.990  0.00  0.00    +0.000 NA
BRANCH  17  24
ATOM     23  C   UNL     1       6.103  -0.457  -0.588  0.00  0.00    +0.000 C 
ATOM     24  O   UNL     1       5.972   0.956  -0.455  0.00  0.00    +0.000 OA
ENDBRANCH  17  24
ENDBRANCH  14  19
ENDBRANCH   1  14
TORSDOF 4
