REMARK  Name = 
REMARK  9 active torsions:
REMARK  status: ('A' for Active; 'I' for Inactive)
REMARK    1  A    between atoms: C_1  and  C_2
REMARK    2  A    between atoms: C_2  and  C_3
REMARK    3  A    between atoms: C_3  and  N_4
REMARK    4  A    between atoms: N_4  and  C_5
REMARK    5  A    between atoms: C_5  and  C_6
REMARK    6  A    between atoms: C_9  and  C_10
REMARK    7  A    between atoms: C_10  and  N_11
REMARK    8  A    between atoms: C_12  and  C_14
REMARK    9  A    between atoms: C_21  and  C_23
REMARK                            x       y       z     vdW  Elec       q    Type
REMARK                         _______ _______ _______ _____ _____    ______ ____
ROOT
ATOM      1  N   UNL     1       4.563  -0.159   1.310  0.00  0.00    +0.000 N 
ATOM      2  C   UNL     1       4.937   0.810   2.275  0.00  0.00    +0.000 C 
ATOM      3  O   UNL     1       4.512   0.722   3.427  0.00  0.00    +0.000 OA
ENDROOT
BRANCH   2   4
ATOM      4  C   UNL     1       5.789   1.974   1.934  0.00  0.00    +0.000 A 
ATOM      5  C   UNL     1       5.804   2.663   0.738  0.00  0.00    +0.000 A 
ATOM      6  S   UNL     1       6.708   4.101   0.721  0.00  0.00    +0.000 S 
ATOM      7  C   UNL     1       7.183   3.849   2.322  0.00  0.00    +0.000 A 
ATOM      8  N   UNL     1       7.985   4.752   2.935  0.00  0.00    +0.000 NA
ATOM      9  C   UNL     1       8.272   4.451   4.155  0.00  0.00    +0.000 A 
ATOM     10  N   UNL     1       7.840   3.321   4.805  0.00  0.00    +0.000 N 
ATOM     11  C   UNL     1       7.116   2.325   4.188  0.00  0.00    +0.000 A 
ATOM     12  O   UNL     1       6.960   1.236   4.723  0.00  0.00    +0.000 OA
ATOM     13  C   UNL     1       6.680   2.670   2.844  0.00  0.00    +0.000 A 
ATOM     14  H   UNL     1       8.171   3.106   5.735  0.00  0.00    +0.000 HD
ENDBRANCH   2   4
BRANCH   1  15
ATOM     15  C   UNL     1       3.749  -1.298   1.785  0.00  0.00    +0.000 C 
BRANCH  15  17
ATOM     16  C   UNL     1       5.638  -2.582   3.022  0.00  0.00    +0.000 C 
ATOM     17  C   UNL     1       4.508  -2.625   2.004  0.00  0.00    +0.000 C 
ENDBRANCH  15  17
ENDBRANCH   1  15
BRANCH   1  18
ATOM     18  C   UNL     1       5.143  -0.292  -0.027  0.00  0.00    +0.000 C 
BRANCH  18  19
ATOM     19  C   UNL     1       4.330   0.149  -1.246  0.00  0.00    +0.000 A 
ATOM     20  C   UNL     1       3.621   1.355  -1.321  0.00  0.00    +0.000 A 
ATOM     21  C   UNL     1       3.360   1.965  -2.561  0.00  0.00    +0.000 A 
ATOM     22  C   UNL     1       3.646   1.305  -3.761  0.00  0.00    +0.000 A 
ATOM     23  C   UNL     1       4.174   0.012  -3.687  0.00  0.00    +0.000 A 
ATOM     24  C   UNL     1       4.528  -0.547  -2.451  0.00  0.00    +0.000 A 
BRANCH  22  25
ATOM     25  C   UNL     1       3.424   1.978  -5.095  0.00  0.00    +0.000 C 
BRANCH  25  26
ATOM     26  N   UNL     1       4.637   2.581  -5.604  0.00  0.00    +0.000 N 
ATOM     27  C   UNL     1       4.682   3.214  -6.831  0.00  0.00    +0.000 C 
ATOM     28  O   UNL     1       3.685   3.287  -7.547  0.00  0.00    +0.000 OA
ATOM     29  H   UNL     1       5.473   2.568  -5.035  0.00  0.00    +0.000 HD
BRANCH  27  30
ATOM     30  C   UNL     1       5.968   3.770  -7.213  0.00  0.00    +0.000 A 
ATOM     31  C   UNL     1       6.286   4.450  -8.375  0.00  0.00    +0.000 A 
ATOM     32  N   UNL     1       7.602   4.865  -8.496  0.00  0.00    +0.000 NA
ATOM     33  C   UNL     1       8.268   4.498  -7.425  0.00  0.00    +0.000 A 
ATOM     34  S   UNL     1       7.373   3.655  -6.231  0.00  0.00    +0.000 S 
ENDBRANCH  27  30
ENDBRANCH  25  26
ENDBRANCH  22  25
ENDBRANCH  18  19
ENDBRANCH   1  18
TORSDOF 8
