REMARK  Name = 
REMARK  8 active torsions:
REMARK  status: ('A' for Active; 'I' for Inactive)
REMARK    1  A    between atoms: C_1  and  O_2
REMARK    2  A    between atoms: O_2  and  C_3
REMARK    3  A    between atoms: C_8  and  C_9
REMARK    4  A    between atoms: N_11  and  C_12
REMARK    5  A    between atoms: C_12  and  C_13
REMARK    6  A    between atoms: C_16  and  C_17
REMARK    7  A    between atoms: C_17  and  N_18
REMARK    8  A    between atoms: C_19  and  C_21
REMARK                            x       y       z     vdW  Elec       q    Type
REMARK                         _______ _______ _______ _____ _____    ______ ____
ROOT
ATOM      1  C   UNL     1       2.936   3.625  -2.354  0.00  0.00    +0.000 A 
ATOM      2  C   UNL     1       2.372   2.468  -2.908  0.00  0.00    +0.000 A 
ATOM      3  C   UNL     1       1.381   2.558  -3.893  0.00  0.00    +0.000 A 
ATOM      4  C   UNL     1       0.951   3.807  -4.360  0.00  0.00    +0.000 A 
ATOM      5  C   UNL     1       1.509   4.963  -3.798  0.00  0.00    +0.000 A 
ATOM      6  C   UNL     1       2.499   4.873  -2.814  0.00  0.00    +0.000 A 
ENDROOT
BRANCH   1   7
ATOM      7  C   UNL     1       4.026   3.532  -1.316  0.00  0.00    +0.000 C 
BRANCH   7  10
ATOM      8  C   UNL     1       6.489   3.444  -1.202  0.00  0.00    +0.000 C 
ATOM      9  O   UNL     1       6.484   3.441   0.028  0.00  0.00    +0.000 OA
ATOM     10  N   UNL     1       5.330   3.521  -1.932  0.00  0.00    +0.000 N 
ATOM     11  H   UNL     1       5.394   3.518  -2.945  0.00  0.00    +0.000 HD
BRANCH   8  17
ATOM     12  C   UNL     1       7.898   3.368  -3.369  0.00  0.00    +0.000 A 
ATOM     13  C   UNL     1       9.158   3.182  -3.959  0.00  0.00    +0.000 A 
ATOM     14  C   UNL     1      10.299   2.989  -3.175  0.00  0.00    +0.000 A 
ATOM     15  C   UNL     1      10.196   2.986  -1.790  0.00  0.00    +0.000 A 
ATOM     16  C   UNL     1       8.949   3.154  -1.187  0.00  0.00    +0.000 A 
ATOM     17  C   UNL     1       7.785   3.332  -1.961  0.00  0.00    +0.000 A 
BRANCH  12  19
ATOM     18  C   UNL     1       6.888   3.755  -5.507  0.00  0.00    +0.000 C 
ATOM     19  O   UNL     1       6.756   3.578  -4.101  0.00  0.00    +0.000 OA
ENDBRANCH  12  19
ENDBRANCH   8  17
ENDBRANCH   7  10
ENDBRANCH   1   7
BRANCH   4  20
ATOM     20  C   UNL     1      -0.127   3.914  -5.410  0.00  0.00    +0.000 C 
BRANCH  20  21
ATOM     21  N   UNL     1      -1.432   3.971  -4.802  0.00  0.00    +0.000 N 
ATOM     22  C   UNL     1      -2.579   3.999  -5.553  0.00  0.00    +0.000 C 
ATOM     23  O   UNL     1      -2.561   3.920  -6.778  0.00  0.00    +0.000 OA
ATOM     24  H   UNL     1      -1.466   4.277  -3.836  0.00  0.00    +0.000 HD
BRANCH  22  25
ATOM     25  C   UNL     1      -3.842   4.060  -4.804  0.00  0.00    +0.000 A 
ATOM     26  C   UNL     1      -5.017   3.606  -5.387  0.00  0.00    +0.000 A 
ATOM     27  S   UNL     1      -6.368   3.676  -4.346  0.00  0.00    +0.000 S 
ATOM     28  C   UNL     1      -5.441   4.368  -3.099  0.00  0.00    +0.000 A 
ATOM     29  N   UNL     1      -6.004   4.696  -1.905  0.00  0.00    +0.000 NA
ATOM     30  C   UNL     1      -5.192   5.240  -1.063  0.00  0.00    +0.000 A 
ATOM     31  N   UNL     1      -3.865   5.488  -1.306  0.00  0.00    +0.000 N 
ATOM     32  C   UNL     1      -3.250   5.159  -2.488  0.00  0.00    +0.000 A 
ATOM     33  O   UNL     1      -2.056   5.376  -2.666  0.00  0.00    +0.000 OA
ATOM     34  C   UNL     1      -4.119   4.538  -3.470  0.00  0.00    +0.000 A 
ATOM     35  H   UNL     1      -3.281   5.918  -0.605  0.00  0.00    +0.000 HD
ENDBRANCH  22  25
ENDBRANCH  20  21
ENDBRANCH   4  20
TORSDOF 7
