REMARK  Name = 
REMARK  6 active torsions:
REMARK  status: ('A' for Active; 'I' for Inactive)
REMARK    1  A    between atoms: C_2  and  C_19
REMARK    2  A    between atoms: N_3  and  C_4
REMARK    3  A    between atoms: C_4  and  C_5
REMARK    4  A    between atoms: C_8  and  C_9
REMARK    5  A    between atoms: C_9  and  O_10
REMARK    6  A    between atoms: O_10  and  C_11
REMARK                            x       y       z     vdW  Elec       q    Type
REMARK                         _______ _______ _______ _____ _____    ______ ____
ROOT
ATOM      1  O   UNL     1       2.488  -0.081  -2.815  0.00  0.00    +0.000 OA
ATOM      2  C   UNL     1       1.533  -0.852  -2.853  0.00  0.00    +0.000 C 
ATOM      3  N   UNL     1       1.414  -1.911  -1.993  0.00  0.00    +0.000 N 
ATOM      4  H   UNL     1       0.752  -2.652  -2.200  0.00  0.00    +0.000 HD
ENDROOT
BRANCH   2   5
ATOM      5  C   UNL     1       0.421  -0.650  -3.791  0.00  0.00    +0.000 A 
ATOM      6  C   UNL     1       0.178   0.613  -4.315  0.00  0.00    +0.000 A 
ATOM      7  S   UNL     1      -1.164   0.669  -5.368  0.00  0.00    +0.000 S 
ATOM      8  C   UNL     1      -1.441  -1.000  -5.194  0.00  0.00    +0.000 A 
ATOM      9  N   UNL     1      -2.450  -1.619  -5.870  0.00  0.00    +0.000 NA
ATOM     10  C   UNL     1      -2.518  -2.893  -5.671  0.00  0.00    +0.000 A 
ATOM     11  N   UNL     1      -1.678  -3.604  -4.856  0.00  0.00    +0.000 N 
ATOM     12  C   UNL     1      -0.689  -3.013  -4.108  0.00  0.00    +0.000 A 
ATOM     13  O   UNL     1      -0.028  -3.664  -3.307  0.00  0.00    +0.000 OA
ATOM     14  C   UNL     1      -0.540  -1.587  -4.323  0.00  0.00    +0.000 A 
ATOM     15  H   UNL     1      -1.798  -4.598  -4.723  0.00  0.00    +0.000 HD
ENDBRANCH   2   5
BRANCH   3  16
ATOM     16  C   UNL     1       2.446  -2.267  -1.046  0.00  0.00    +0.000 C 
BRANCH  16  17
ATOM     17  C   UNL     1       3.381  -3.316  -1.598  0.00  0.00    +0.000 A 
ATOM     18  C   UNL     1       4.529  -2.939  -2.288  0.00  0.00    +0.000 A 
ATOM     19  C   UNL     1       5.368  -3.929  -2.793  0.00  0.00    +0.000 A 
ATOM     20  C   UNL     1       5.031  -5.272  -2.627  0.00  0.00    +0.000 A 
ATOM     21  C   UNL     1       3.862  -5.556  -1.931  0.00  0.00    +0.000 A 
ATOM     22  N   UNL     1       3.034  -4.617  -1.420  0.00  0.00    +0.000 NA
BRANCH  20  23
ATOM     23  C   UNL     1       5.884  -6.377  -3.186  0.00  0.00    +0.000 C 
BRANCH  23  24
ATOM     24  O   UNL     1       6.863  -6.763  -2.221  0.00  0.00    +0.000 OA
BRANCH  24  25
ATOM     25  C   UNL     1       7.623  -7.831  -2.661  0.00  0.00    +0.000 A 
ATOM     26  C   UNL     1       8.624  -8.281  -1.814  0.00  0.00    +0.000 A 
ATOM     27  C   UNL     1       9.393  -9.368  -2.222  0.00  0.00    +0.000 A 
ATOM     28  C   UNL     1       9.133  -9.964  -3.454  0.00  0.00    +0.000 A 
ATOM     29  C   UNL     1       8.117  -9.440  -4.233  0.00  0.00    +0.000 A 
ATOM     30  N   UNL     1       7.356  -8.388  -3.864  0.00  0.00    +0.000 NA
ENDBRANCH  24  25
ENDBRANCH  23  24
ENDBRANCH  20  23
ENDBRANCH  16  17
ENDBRANCH   3  16
TORSDOF 6
