REMARK  Name = 
REMARK  8 active torsions:
REMARK  status: ('A' for Active; 'I' for Inactive)
REMARK    1  A    between atoms: C_1  and  C_2
REMARK    2  A    between atoms: C_2  and  N_3
REMARK    3  A    between atoms: C_2  and  C_25
REMARK    4  A    between atoms: N_3  and  C_4
REMARK    5  A    between atoms: C_4  and  C_5
REMARK    6  A    between atoms: C_8  and  C_9
REMARK    7  A    between atoms: C_9  and  N_10
REMARK    8  A    between atoms: C_11  and  C_13
REMARK                            x       y       z     vdW  Elec       q    Type
REMARK                         _______ _______ _______ _____ _____    ______ ____
ROOT
ATOM      1  C   UNL     1       2.939  -2.847  -2.374  0.00  0.00    +0.000 A 
ATOM      2  C   UNL     1       3.699  -2.239  -3.385  0.00  0.00    +0.000 A 
ATOM      3  C   UNL     1       4.074  -2.957  -4.526  0.00  0.00    +0.000 A 
ATOM      4  C   UNL     1       3.696  -4.297  -4.682  0.00  0.00    +0.000 A 
ATOM      5  C   UNL     1       2.987  -4.921  -3.648  0.00  0.00    +0.000 A 
ATOM      6  C   UNL     1       2.605  -4.202  -2.512  0.00  0.00    +0.000 A 
ENDROOT
BRANCH   1   7
ATOM      7  C   UNL     1       2.488  -2.074  -1.153  0.00  0.00    +0.000 C 
BRANCH   7   8
ATOM      8  N   UNL     1       1.528  -1.025  -1.504  0.00  0.00    +0.000 NA
ATOM      9  H   UNL     1       1.978  -0.386  -2.159  0.00  0.00    +0.000 HD
BRANCH   8  11
ATOM     10  C   UNL     1       0.244  -1.096   0.637  0.00  0.00    +0.000 C 
ATOM     11  C   UNL     1       1.062  -0.247  -0.346  0.00  0.00    +0.000 C 
BRANCH  11  12
ATOM     12  C   UNL     1       0.217   0.902  -0.839  0.00  0.00    +0.000 A 
ATOM     13  C   UNL     1      -0.966   0.881  -1.557  0.00  0.00    +0.000 A 
ATOM     14  N   UNL     1      -1.524   2.112  -1.844  0.00  0.00    +0.000 NA
ATOM     15  C   UNL     1      -0.755   3.057  -1.353  0.00  0.00    +0.000 A 
ATOM     16  S   UNL     1       0.654   2.535  -0.527  0.00  0.00    +0.000 S 
ENDBRANCH  11  12
ENDBRANCH   8  11
ENDBRANCH   7   8
ENDBRANCH   1   7
BRANCH   4  17
ATOM     17  C   UNL     1       4.079  -5.077  -5.913  0.00  0.00    +0.000 C 
BRANCH  17  18
ATOM     18  N   UNL     1       5.355  -5.716  -5.731  0.00  0.00    +0.000 N 
ATOM     19  C   UNL     1       5.964  -6.423  -6.736  0.00  0.00    +0.000 C 
ATOM     20  O   UNL     1       5.483  -6.507  -7.860  0.00  0.00    +0.000 OA
ATOM     21  H   UNL     1       5.645  -5.871  -4.771  0.00  0.00    +0.000 HD
BRANCH  19  22
ATOM     22  C   UNL     1       7.267  -7.015  -6.406  0.00  0.00    +0.000 A 
ATOM     23  C   UNL     1       8.163  -7.321  -7.421  0.00  0.00    +0.000 A 
ATOM     24  S   UNL     1       9.662  -7.909  -6.853  0.00  0.00    +0.000 S 
ATOM     25  C   UNL     1       9.143  -7.828  -5.235  0.00  0.00    +0.000 A 
ATOM     26  N   UNL     1       9.964  -8.204  -4.216  0.00  0.00    +0.000 NA
ATOM     27  C   UNL     1       9.431  -8.121  -3.043  0.00  0.00    +0.000 A 
ATOM     28  N   UNL     1       8.149  -7.700  -2.796  0.00  0.00    +0.000 N 
ATOM     29  C   UNL     1       7.289  -7.302  -3.790  0.00  0.00    +0.000 A 
ATOM     30  O   UNL     1       6.153  -6.918  -3.530  0.00  0.00    +0.000 OA
ATOM     31  C   UNL     1       7.845  -7.364  -5.129  0.00  0.00    +0.000 A 
ATOM     32  H   UNL     1       7.789  -7.664  -1.854  0.00  0.00    +0.000 HD
ENDBRANCH  19  22
ENDBRANCH  17  18
ENDBRANCH   4  17
TORSDOF 7
