REMARK  Name = 
REMARK  9 active torsions:
REMARK  status: ('A' for Active; 'I' for Inactive)
REMARK    1  A    between atoms: C_1  and  O_2
REMARK    2  A    between atoms: O_2  and  C_3
REMARK    3  A    between atoms: C_10  and  C_11
REMARK    4  A    between atoms: N_13  and  C_14
REMARK    5  A    between atoms: C_14  and  C_15
REMARK    6  A    between atoms: C_18  and  C_19
REMARK    7  A    between atoms: C_19  and  C_20
REMARK    8  A    between atoms: C_20  and  N_21
REMARK    9  A    between atoms: N_21  and  C_22
REMARK                            x       y       z     vdW  Elec       q    Type
REMARK                         _______ _______ _______ _____ _____    ______ ____
ROOT
ATOM      1  C   UNL     1       2.879   0.980   3.204  0.00  0.00    +0.000 C 
ENDROOT
BRANCH   1   2
ATOM      2  C   UNL     1       1.804   1.969   2.834  0.00  0.00    +0.000 A 
ATOM      3  C   UNL     1       0.506   1.527   2.565  0.00  0.00    +0.000 A 
ATOM      4  C   UNL     1      -0.485   2.426   2.163  0.00  0.00    +0.000 A 
ATOM      5  C   UNL     1      -0.210   3.793   2.010  0.00  0.00    +0.000 A 
ATOM      6  C   UNL     1       1.088   4.236   2.301  0.00  0.00    +0.000 A 
ATOM      7  C   UNL     1       2.086   3.334   2.699  0.00  0.00    +0.000 A 
BRANCH   5   8
ATOM      8  C   UNL     1      -1.247   4.798   1.530  0.00  0.00    +0.000 C 
BRANCH   8   9
ATOM      9  C   UNL     1      -2.624   4.199   1.213  0.00  0.00    +0.000 C 
BRANCH   9  10
ATOM     10  N   UNL     1      -3.560   5.185   0.689  0.00  0.00    +0.000 N 
ATOM     11  H   UNL     1      -3.506   6.110   1.108  0.00  0.00    +0.000 HD
BRANCH  10  12
ATOM     12  C   UNL     1      -4.880   4.794   0.423  0.00  0.00    +0.000 A 
ATOM     13  C   UNL     1      -5.336   3.470   0.504  0.00  0.00    +0.000 A 
ATOM     14  C   UNL     1      -6.639   3.121   0.131  0.00  0.00    +0.000 A 
ATOM     15  C   UNL     1      -7.507   4.090  -0.359  0.00  0.00    +0.000 A 
ATOM     16  C   UNL     1      -7.070   5.407  -0.470  0.00  0.00    +0.000 A 
ATOM     17  C   UNL     1      -5.769   5.751  -0.084  0.00  0.00    +0.000 A 
ENDBRANCH  10  12
ENDBRANCH   9  10
ENDBRANCH   8   9
ENDBRANCH   5   8
ENDBRANCH   1   2
BRANCH   1  20
ATOM     18  C   UNL     1       4.535  -0.472   2.111  0.00  0.00    +0.000 C 
ATOM     19  O   UNL     1       4.889  -0.927   3.196  0.00  0.00    +0.000 OA
ATOM     20  N   UNL     1       3.552   0.477   2.030  0.00  0.00    +0.000 N 
ATOM     21  H   UNL     1       3.304   0.880   1.137  0.00  0.00    +0.000 HD
BRANCH  18  29
ATOM     22  C   UNL     1       3.958   0.228  -1.214  0.00  0.00    +0.000 A 
ATOM     23  N   UNL     1       3.956   0.326  -2.559  0.00  0.00    +0.000 NA
ATOM     24  C   UNL     1       4.846  -0.397  -3.245  0.00  0.00    +0.000 A 
ATOM     25  N   UNL     1       5.756  -1.227  -2.744  0.00  0.00    +0.000 NA
ATOM     26  C   UNL     1       5.727  -1.290  -1.399  0.00  0.00    +0.000 A 
ATOM     27  S   UNL     1       6.819  -2.302  -0.589  0.00  0.00    +0.000 S 
ATOM     28  C   UNL     1       6.191  -1.850   0.924  0.00  0.00    +0.000 A 
ATOM     29  C   UNL     1       5.155  -0.924   0.852  0.00  0.00    +0.000 A 
ATOM     30  C   UNL     1       4.877  -0.597  -0.542  0.00  0.00    +0.000 A 
BRANCH  22  32
ATOM     31  C   UNL     1       1.872   1.263  -1.277  0.00  0.00    +0.000 C 
ATOM     32  O   UNL     1       3.048   0.994  -0.514  0.00  0.00    +0.000 OA
ENDBRANCH  22  32
ENDBRANCH  18  29
ENDBRANCH   1  20
TORSDOF 8
