REMARK  Name = 
REMARK  10 active torsions:
REMARK  status: ('A' for Active; 'I' for Inactive)
REMARK    1  A    between atoms: N_1  and  C_2
REMARK    2  A    between atoms: C_2  and  C_3
REMARK    3  A    between atoms: C_3  and  N_4
REMARK    4  A    between atoms: N_4  and  C_5
REMARK    5  A    between atoms: N_4  and  C_13
REMARK    6  A    between atoms: C_5  and  C_6
REMARK    7  A    between atoms: C_13  and  C_14
REMARK    8  A    between atoms: C_17  and  C_18
REMARK    9  A    between atoms: C_18  and  N_19
REMARK   10  A    between atoms: C_20  and  C_22
REMARK                            x       y       z     vdW  Elec       q    Type
REMARK                         _______ _______ _______ _____ _____    ______ ____
ROOT
ATOM      1  C   UNL     1       6.448  -2.724   0.930  0.00  0.00    +0.000 A 
ATOM      2  C   UNL     1       7.064  -3.973   0.989  0.00  0.00    +0.000 A 
ATOM      3  C   UNL     1       8.457  -4.038   0.996  0.00  0.00    +0.000 A 
ATOM      4  C   UNL     1       9.208  -2.862   0.931  0.00  0.00    +0.000 A 
ATOM      5  C   UNL     1       8.506  -1.663   0.875  0.00  0.00    +0.000 A 
ATOM      6  N   UNL     1       7.157  -1.568   0.869  0.00  0.00    +0.000 NA
ENDROOT
BRANCH   1   7
ATOM      7  C   UNL     1       4.932  -2.606   0.952  0.00  0.00    +0.000 C 
BRANCH   7   8
ATOM      8  N   UNL     1       4.270  -3.081   2.204  0.00  0.00    +0.000 NA
BRANCH   8   9
ATOM      9  C   UNL     1       4.758  -2.273   3.352  0.00  0.00    +0.000 C 
BRANCH   9  10
ATOM     10  C   UNL     1       4.219  -2.719   4.730  0.00  0.00    +0.000 C 
BRANCH  10  11
ATOM     11  N   UNL     1       4.787  -1.928   5.825  0.00  0.00    +0.000 NA
ATOM     12  H   UNL     1       4.422  -2.278   6.710  0.00  0.00    +0.000 HD
ATOM     13  H   UNL     1       4.462  -0.964   5.748  0.00  0.00    +0.000 HD
ENDBRANCH  10  11
ENDBRANCH   9  10
ENDBRANCH   8   9
BRANCH   8  14
ATOM     14  C   UNL     1       2.796  -2.984   2.076  0.00  0.00    +0.000 C 
BRANCH  14  15
ATOM     15  C   UNL     1       2.250  -3.803   0.922  0.00  0.00    +0.000 A 
ATOM     16  C   UNL     1       2.371  -5.201   0.924  0.00  0.00    +0.000 A 
ATOM     17  C   UNL     1       2.054  -5.938  -0.217  0.00  0.00    +0.000 A 
ATOM     18  C   UNL     1       1.614  -5.284  -1.369  0.00  0.00    +0.000 A 
ATOM     19  C   UNL     1       1.439  -3.902  -1.356  0.00  0.00    +0.000 A 
ATOM     20 CL   UNL     1       0.921  -3.092  -2.783  0.00  0.00    +0.000 Cl
ATOM     21  C   UNL     1       1.729  -3.162  -0.212  0.00  0.00    +0.000 A 
ENDBRANCH  14  15
ENDBRANCH   8  14
ENDBRANCH   7   8
ENDBRANCH   1   7
BRANCH   4  22
ATOM     22  C   UNL     1      10.706  -2.875   0.984  0.00  0.00    +0.000 C 
BRANCH  22  23
ATOM     23  N   UNL     1      11.175  -2.777   2.345  0.00  0.00    +0.000 N 
ATOM     24  C   UNL     1      12.502  -2.581   2.634  0.00  0.00    +0.000 C 
ATOM     25  O   UNL     1      13.341  -2.427   1.751  0.00  0.00    +0.000 OA
ATOM     26  H   UNL     1      10.555  -3.123   3.071  0.00  0.00    +0.000 HD
BRANCH  24  27
ATOM     27  C   UNL     1      12.861  -2.496   4.056  0.00  0.00    +0.000 A 
ATOM     28  C   UNL     1      14.035  -1.860   4.433  0.00  0.00    +0.000 A 
ATOM     29  S   UNL     1      14.272  -1.798   6.119  0.00  0.00    +0.000 S 
ATOM     30  C   UNL     1      12.834  -2.661   6.410  0.00  0.00    +0.000 A 
ATOM     31  N   UNL     1      12.443  -2.972   7.677  0.00  0.00    +0.000 NA
ATOM     32  C   UNL     1      11.347  -3.649   7.750  0.00  0.00    +0.000 A 
ATOM     33  N   UNL     1      10.604  -4.048   6.666  0.00  0.00    +0.000 N 
ATOM     34  C   UNL     1      10.955  -3.746   5.368  0.00  0.00    +0.000 A 
ATOM     35  O   UNL     1      10.258  -4.106   4.423  0.00  0.00    +0.000 OA
ATOM     36  C   UNL     1      12.179  -2.980   5.233  0.00  0.00    +0.000 A 
ATOM     37  H   UNL     1       9.754  -4.571   6.789  0.00  0.00    +0.000 HD
ENDBRANCH  24  27
ENDBRANCH  22  23
ENDBRANCH   4  22
TORSDOF 10
