REMARK  Name = 
REMARK  6 active torsions:
REMARK  status: ('A' for Active; 'I' for Inactive)
REMARK    1  A    between atoms: N_1  and  C_2
REMARK    2  A    between atoms: C_2  and  C_3
REMARK    3  A    between atoms: C_6  and  O_7
REMARK    4  A    between atoms: O_7  and  C_8
REMARK    5  A    between atoms: C_8  and  C_9
REMARK    6  A    between atoms: C_9  and  C_10
REMARK                            x       y       z     vdW  Elec       q    Type
REMARK                         _______ _______ _______ _____ _____    ______ ____
ROOT
ATOM      1  C   UNL     1       3.418  -1.071  -0.864  0.00  0.00    +0.000 A 
ATOM      2  C   UNL     1       2.813  -2.170  -0.244  0.00  0.00    +0.000 A 
ATOM      3  C   UNL     1       2.984  -3.451  -0.776  0.00  0.00    +0.000 A 
ATOM      4  C   UNL     1       3.757  -3.588  -1.918  0.00  0.00    +0.000 A 
ATOM      5  N   UNL     1       4.344  -2.548  -2.545  0.00  0.00    +0.000 NA
ATOM      6  C   UNL     1       4.163  -1.323  -2.012  0.00  0.00    +0.000 A 
ENDROOT
BRANCH   1   7
ATOM      7  C   UNL     1       3.267   0.330  -0.347  0.00  0.00    +0.000 C 
BRANCH   7   8
ATOM      8  N   UNL     1       3.795   0.468   1.004  0.00  0.00    +0.000 NA
ATOM      9  H   UNL     1       3.755   1.448   1.278  0.00  0.00    +0.000 HD
ATOM     10  H   UNL     1       4.783   0.215   1.003  0.00  0.00    +0.000 HD
ENDBRANCH   7   8
ENDBRANCH   1   7
BRANCH   4  11
ATOM     11  O   UNL     1       3.928  -4.863  -2.427  0.00  0.00    +0.000 OA
BRANCH  11  12
ATOM     12  C   UNL     1       4.769  -4.856  -3.590  0.00  0.00    +0.000 C 
BRANCH  12  13
ATOM     13  C   UNL     1       4.965  -6.280  -4.109  0.00  0.00    +0.000 C 
BRANCH  13  14
ATOM     14  C   UNL     1       5.861  -6.303  -5.327  0.00  0.00    +0.000 A 
ATOM     15  C   UNL     1       7.252  -6.404  -5.182  0.00  0.00    +0.000 A 
ATOM     16  C   UNL     1       8.085  -6.394  -6.304  0.00  0.00    +0.000 A 
ATOM     17  C   UNL     1       7.532  -6.277  -7.577  0.00  0.00    +0.000 A 
ATOM     18 CL   UNL     1       8.557  -6.267  -8.959  0.00  0.00    +0.000 Cl
ATOM     19  C   UNL     1       6.152  -6.165  -7.736  0.00  0.00    +0.000 A 
ATOM     20  C   UNL     1       5.319  -6.174  -6.614  0.00  0.00    +0.000 A 
ENDBRANCH  13  14
ENDBRANCH  12  13
ENDBRANCH  11  12
ENDBRANCH   4  11
TORSDOF 6
