REMARK  Name = 
REMARK  7 active torsions:
REMARK  status: ('A' for Active; 'I' for Inactive)
REMARK    1  A    between atoms: C_1  and  N_2
REMARK    2  A    between atoms: N_2  and  C_3
REMARK    3  A    between atoms: C_3  and  C_4
REMARK    4  A    between atoms: C_7  and  C_8
REMARK    5  A    between atoms: C_8  and  N_9
REMARK    6  A    between atoms: C_10  and  C_12
REMARK    7  A    between atoms: C_24  and  C_26
REMARK                            x       y       z     vdW  Elec       q    Type
REMARK                         _______ _______ _______ _____ _____    ______ ____
ROOT
ATOM      1  C   UNL     1       2.259  -2.322   1.086  0.00  0.00    +0.000 A 
ATOM      2  C   UNL     1       2.645  -3.636   0.834  0.00  0.00    +0.000 A 
ATOM      3  C   UNL     1       1.788  -4.673   1.203  0.00  0.00    +0.000 A 
ATOM      4  C   UNL     1       0.566  -4.380   1.812  0.00  0.00    +0.000 A 
ATOM      5  C   UNL     1       0.291  -3.045   2.075  0.00  0.00    +0.000 A 
ATOM      6  N   UNL     1       1.099  -2.021   1.725  0.00  0.00    +0.000 NA
ENDROOT
BRANCH   1   7
ATOM      7  C   UNL     1       3.098  -1.157   0.605  0.00  0.00    +0.000 C 
BRANCH   7   9
ATOM      8  C   UNL     1       4.370  -1.230   2.793  0.00  0.00    +0.000 C 
ATOM      9  N   UNL     1       4.252  -0.756   1.423  0.00  0.00    +0.000 N 
ATOM     10  C   UNL     1       5.306   0.021   0.917  0.00  0.00    +0.000 C 
ATOM     11  O   UNL     1       6.359   0.176   1.539  0.00  0.00    +0.000 OA
BRANCH  10  12
ATOM     12  C   UNL     1       5.197   0.669  -0.425  0.00  0.00    +0.000 A 
ATOM     13  C   UNL     1       6.352   0.875  -1.167  0.00  0.00    +0.000 A 
ATOM     14  N   UNL     1       6.335   1.445  -2.402  0.00  0.00    +0.000 NA
ATOM     15  C   UNL     1       5.116   1.824  -2.847  0.00  0.00    +0.000 A 
ATOM     16  C   UNL     1       3.964   1.641  -2.100  0.00  0.00    +0.000 A 
ATOM     17  N   UNL     1       3.974   1.056  -0.880  0.00  0.00    +0.000 NA
ENDBRANCH  10  12
ENDBRANCH   7   9
ENDBRANCH   1   7
BRANCH   4  18
ATOM     18  C   UNL     1      -0.415  -5.447   2.194  0.00  0.00    +0.000 C 
BRANCH  18  19
ATOM     19  N   UNL     1      -0.177  -5.933   3.528  0.00  0.00    +0.000 N 
ATOM     20  C   UNL     1      -0.923  -6.963   4.041  0.00  0.00    +0.000 C 
ATOM     21  O   UNL     1      -1.769  -7.545   3.373  0.00  0.00    +0.000 OA
ATOM     22  H   UNL     1       0.346  -5.334   4.159  0.00  0.00    +0.000 HD
BRANCH  20  23
ATOM     23  C   UNL     1      -0.611  -7.378   5.414  0.00  0.00    +0.000 A 
ATOM     24  C   UNL     1      -0.944  -8.658   5.836  0.00  0.00    +0.000 A 
ATOM     25  S   UNL     1      -0.468  -8.999   7.437  0.00  0.00    +0.000 S 
ATOM     26  C   UNL     1       0.156  -7.427   7.642  0.00  0.00    +0.000 A 
ATOM     27  N   UNL     1       0.702  -7.040   8.825  0.00  0.00    +0.000 NA
ATOM     28  C   UNL     1       1.107  -5.815   8.852  0.00  0.00    +0.000 A 
ATOM     29  N   UNL     1       1.014  -4.941   7.801  0.00  0.00    +0.000 N 
ATOM     30  C   UNL     1       0.501  -5.297   6.577  0.00  0.00    +0.000 A 
ATOM     31  O   UNL     1       0.483  -4.506   5.637  0.00  0.00    +0.000 OA
ATOM     32  C   UNL     1       0.019  -6.661   6.498  0.00  0.00    +0.000 A 
ATOM     33  H   UNL     1       1.360  -3.995   7.885  0.00  0.00    +0.000 HD
ENDBRANCH  20  23
ENDBRANCH  18  19
ENDBRANCH   4  18
TORSDOF 6
