REMARK  Name = 
REMARK  5 active torsions:
REMARK  status: ('A' for Active; 'I' for Inactive)
REMARK    1  A    between atoms: N_1  and  C_2
REMARK    2  A    between atoms: C_2  and  C_3
REMARK    3  A    between atoms: C_3  and  C_4
REMARK    4  A    between atoms: C_7  and  C_8
REMARK    5  A    between atoms: C_8  and  N_9
REMARK                            x       y       z     vdW  Elec       q    Type
REMARK                         _______ _______ _______ _____ _____    ______ ____
ROOT
ATOM      1  C   UNL     1       4.428  -0.866  -1.115  0.00  0.00    +0.000 A 
ATOM      2  C   UNL     1       5.123  -1.807  -0.354  0.00  0.00    +0.000 A 
ATOM      3  C   UNL     1       6.517  -1.810  -0.359  0.00  0.00    +0.000 A 
ATOM      4  C   UNL     1       7.197  -0.875  -1.137  0.00  0.00    +0.000 A 
ATOM      5  N   UNL     1       6.542   0.063  -1.868  0.00  0.00    +0.000 NA
ATOM      6  C   UNL     1       5.189   0.055  -1.828  0.00  0.00    +0.000 A 
ENDROOT
BRANCH   1   7
ATOM      7  C   UNL     1       2.923  -0.846  -1.156  0.00  0.00    +0.000 C 
BRANCH   7   8
ATOM      8  C   UNL     1       2.365  -1.110  -2.562  0.00  0.00    +0.000 C 
BRANCH   8   9
ATOM      9  N   UNL     1       0.904  -1.104  -2.560  0.00  0.00    +0.000 NA
ATOM     10  H   UNL     1       0.565  -1.251  -3.511  0.00  0.00    +0.000 HD
ATOM     11  H   UNL     1       0.561  -0.186  -2.278  0.00  0.00    +0.000 HD
ENDBRANCH   8   9
ENDBRANCH   7   8
ENDBRANCH   1   7
BRANCH   4  12
ATOM     12  C   UNL     1       8.696  -0.935  -1.268  0.00  0.00    +0.000 C 
BRANCH  12  13
ATOM     13  N   UNL     1       9.397  -0.131  -0.273  0.00  0.00    +0.000 N 
ATOM     14  C   UNL     1       9.768  -0.593   0.969  0.00  0.00    +0.000 A 
ATOM     15  C   UNL     1      10.609   0.336   1.537  0.00  0.00    +0.000 A 
ATOM     16  C   UNL     1      10.762   1.404   0.614  0.00  0.00    +0.000 A 
ATOM     17  C   UNL     1      11.508   2.597   0.611  0.00  0.00    +0.000 A 
ATOM     18  F   UNL     1      12.297   2.908   1.651  0.00  0.00    +0.000 F 
ATOM     19  C   UNL     1      11.453   3.464  -0.480  0.00  0.00    +0.000 A 
ATOM     20  C   UNL     1      10.642   3.161  -1.570  0.00  0.00    +0.000 A 
ATOM     21  C   UNL     1       9.885   1.983  -1.599  0.00  0.00    +0.000 A 
ATOM     22  C   UNL     1       9.971   1.107  -0.502  0.00  0.00    +0.000 A 
ENDBRANCH  12  13
ENDBRANCH   4  12
TORSDOF 5
