REMARK  Name = 
REMARK  7 active torsions:
REMARK  status: ('A' for Active; 'I' for Inactive)
REMARK    1  A    between atoms: C_1  and  C_2
REMARK    2  A    between atoms: C_4  and  C_5
REMARK    3  A    between atoms: C_10  and  N_11
REMARK    4  A    between atoms: N_11  and  C_12
REMARK    5  A    between atoms: C_12  and  C_13
REMARK    6  A    between atoms: C_16  and  C_17
REMARK    7  A    between atoms: C_21  and  C_22
REMARK                            x       y       z     vdW  Elec       q    Type
REMARK                         _______ _______ _______ _____ _____    ______ ____
ROOT
ATOM      1  C   UNL     1       2.728  -4.004   0.100  0.00  0.00    +0.000 A 
ATOM      2  C   UNL     1       4.023  -4.262   0.532  0.00  0.00    +0.000 A 
ATOM      3  C   UNL     1       4.482  -5.576   0.615  0.00  0.00    +0.000 A 
ATOM      4  C   UNL     1       3.651  -6.685   0.309  0.00  0.00    +0.000 A 
ATOM      5  C   UNL     1       2.312  -6.459  -0.101  0.00  0.00    +0.000 A 
ATOM      6  C   UNL     1       1.918  -5.100  -0.252  0.00  0.00    +0.000 A 
ENDROOT
BRANCH   5   7
ATOM      7  C   UNL     1       1.261  -7.507  -0.316  0.00  0.00    +0.000 A 
ATOM      8  C   UNL     1      -0.086  -7.242   0.010  0.00  0.00    +0.000 A 
ATOM      9  C   UNL     1      -1.089  -8.197  -0.155  0.00  0.00    +0.000 A 
ATOM     10  C   UNL     1      -0.730  -9.440  -0.628  0.00  0.00    +0.000 A 
ATOM     11  N   UNL     1       0.531  -9.757  -0.973  0.00  0.00    +0.000 NA
ATOM     12  C   UNL     1       1.477  -8.788  -0.826  0.00  0.00    +0.000 A 
ENDBRANCH   5   7
BRANCH   4  13
ATOM     13  C   UNL     1       4.296  -8.051   0.431  0.00  0.00    +0.000 C 
ATOM     14  F   UNL     1       5.533  -8.018   1.010  0.00  0.00    +0.000 F 
ATOM     15  F   UNL     1       3.578  -8.931   1.175  0.00  0.00    +0.000 F 
ATOM     16  F   UNL     1       4.501  -8.637  -0.783  0.00  0.00    +0.000 F 
ENDBRANCH   4  13
BRANCH   1  17
ATOM     17  C   UNL     1       2.266  -2.571  -0.090  0.00  0.00    +0.000 C 
BRANCH  17  18
ATOM     18  N   UNL     1       0.817  -2.437   0.079  0.00  0.00    +0.000 N 
ATOM     19  H   UNL     1       0.548  -2.555   1.050  0.00  0.00    +0.000 HD
BRANCH  18  26
ATOM     20  C   UNL     1      -1.985  -1.787   0.604  0.00  0.00    +0.000 C 
ATOM     21  C   UNL     1      -1.075  -0.936  -0.233  0.00  0.00    +0.000 A 
ATOM     22  C   UNL     1      -1.602   0.210  -0.856  0.00  0.00    +0.000 A 
ATOM     23  C   UNL     1      -0.798   1.020  -1.660  0.00  0.00    +0.000 A 
ATOM     24  C   UNL     1       0.524   0.641  -1.788  0.00  0.00    +0.000 A 
ATOM     25  N   UNL     1       1.066  -0.453  -1.197  0.00  0.00    +0.000 NA
ATOM     26  C   UNL     1       0.280  -1.243  -0.432  0.00  0.00    +0.000 A 
BRANCH  23  27
ATOM     27  C   UNL     1      -1.388   2.207  -2.318  0.00  0.00    +0.000 C 
ATOM     28  N   UNL     1      -0.603   2.989  -3.119  0.00  0.00    +0.000 N 
ATOM     29  O   UNL     1      -2.572   2.491  -2.161  0.00  0.00    +0.000 OA
ATOM     30  H   UNL     1       0.366   2.832  -3.341  0.00  0.00    +0.000 HD
ATOM     31  H   UNL     1      -1.062   3.775  -3.560  0.00  0.00    +0.000 HD
ENDBRANCH  23  27
ENDBRANCH  18  26
ENDBRANCH  17  18
ENDBRANCH   1  17
TORSDOF 6
