REMARK  Name = 
REMARK  7 active torsions:
REMARK  status: ('A' for Active; 'I' for Inactive)
REMARK    1  A    between atoms: C_1  and  O_2
REMARK    2  A    between atoms: O_2  and  C_3
REMARK    3  A    between atoms: C_5  and  C_6
REMARK    4  A    between atoms: C_6  and  N_7
REMARK    5  A    between atoms: C_12  and  C_13
REMARK    6  A    between atoms: C_21  and  C_22
REMARK    7  A    between atoms: C_22  and  N_23
REMARK                            x       y       z     vdW  Elec       q    Type
REMARK                         _______ _______ _______ _____ _____    ______ ____
ROOT
ATOM      1  N   UNL     1       2.030  -4.681  -1.375  0.00  0.00    +0.000 N 
ATOM      2  C   UNL     1       2.027  -4.329  -2.705  0.00  0.00    +0.000 A 
ATOM      3  C   UNL     1       0.769  -4.573  -3.210  0.00  0.00    +0.000 A 
ATOM      4  C   UNL     1      -0.024  -5.093  -2.158  0.00  0.00    +0.000 A 
ATOM      5  C   UNL     1      -1.352  -5.547  -2.080  0.00  0.00    +0.000 A 
ATOM      6  C   UNL     1      -1.780  -6.014  -0.843  0.00  0.00    +0.000 A 
ATOM      7  N   UNL     1      -1.011  -6.040   0.282  0.00  0.00    +0.000 NA
ATOM      8  C   UNL     1       0.270  -5.609   0.205  0.00  0.00    +0.000 A 
ATOM      9  C   UNL     1       0.774  -5.141  -1.011  0.00  0.00    +0.000 A 
ENDROOT
BRANCH   6  10
ATOM     10  C   UNL     1      -3.172  -6.556  -0.718  0.00  0.00    +0.000 C 
ATOM     11  N   UNL     1      -3.533  -7.020   0.518  0.00  0.00    +0.000 N 
ATOM     12  O   UNL     1      -3.952  -6.601  -1.663  0.00  0.00    +0.000 OA
ATOM     13  H   UNL     1      -2.861  -7.003   1.278  0.00  0.00    +0.000 HD
ATOM     14  H   UNL     1      -4.450  -7.422   0.649  0.00  0.00    +0.000 HD
ENDBRANCH   6  10
BRANCH   1  15
ATOM     15  C   UNL     1       3.236  -4.697  -0.546  0.00  0.00    +0.000 C 
BRANCH  15  18
ATOM     16  C   UNL     1       2.884  -1.506   1.547  0.00  0.00    +0.000 A 
ATOM     17  C   UNL     1       2.634  -2.762   0.975  0.00  0.00    +0.000 A 
ATOM     18  C   UNL     1       3.540  -3.359   0.087  0.00  0.00    +0.000 A 
ATOM     19  C   UNL     1       4.744  -2.697  -0.178  0.00  0.00    +0.000 A 
ATOM     20  C   UNL     1       5.025  -1.468   0.427  0.00  0.00    +0.000 A 
ATOM     21  C   UNL     1       4.103  -0.855   1.296  0.00  0.00    +0.000 A 
BRANCH  16  23
ATOM     22  C   UNL     1       0.894  -1.590   2.863  0.00  0.00    +0.000 C 
ATOM     23  O   UNL     1       1.968  -0.831   2.315  0.00  0.00    +0.000 OA
ENDBRANCH  16  23
BRANCH  21  24
ATOM     24  C   UNL     1       4.453   0.475   1.914  0.00  0.00    +0.000 C 
BRANCH  24  25
ATOM     25  N   UNL     1       5.670   0.404   2.731  0.00  0.00    +0.000 NA
ATOM     26  H   UNL     1       5.547  -0.333   3.426  0.00  0.00    +0.000 HD
ATOM     27  H   UNL     1       5.760   1.269   3.257  0.00  0.00    +0.000 HD
ENDBRANCH  24  25
ENDBRANCH  21  24
ENDBRANCH  15  18
ENDBRANCH   1  15
TORSDOF 6
