REMARK  Name = 
REMARK  8 active torsions:
REMARK  status: ('A' for Active; 'I' for Inactive)
REMARK    1  A    between atoms: C_1  and  O_2
REMARK    2  A    between atoms: O_2  and  C_3
REMARK    3  A    between atoms: C_7  and  C_8
REMARK    4  A    between atoms: N_10  and  C_11
REMARK    5  A    between atoms: C_11  and  C_12
REMARK    6  A    between atoms: C_15  and  C_16
REMARK    7  A    between atoms: C_16  and  N_17
REMARK    8  A    between atoms: C_18  and  C_20
REMARK                            x       y       z     vdW  Elec       q    Type
REMARK                         _______ _______ _______ _____ _____    ______ ____
ROOT
ATOM      1  C   UNL     1       7.961  -6.034  -1.933  0.00  0.00    +0.000 A 
ATOM      2  C   UNL     1       8.833  -5.583  -2.934  0.00  0.00    +0.000 A 
ATOM      3  C   UNL     1       9.274  -6.449  -3.942  0.00  0.00    +0.000 A 
ATOM      4  C   UNL     1       8.836  -7.779  -3.982  0.00  0.00    +0.000 A 
ATOM      5  C   UNL     1       7.995  -8.239  -2.960  0.00  0.00    +0.000 A 
ATOM      6  C   UNL     1       7.554  -7.374  -1.954  0.00  0.00    +0.000 A 
ENDROOT
BRANCH   1   7
ATOM      7  C   UNL     1       7.448  -5.092  -0.875  0.00  0.00    +0.000 C 
BRANCH   7  10
ATOM      8  C   UNL     1       5.571  -3.547  -0.460  0.00  0.00    +0.000 C 
ATOM      9  O   UNL     1       5.983  -3.205   0.641  0.00  0.00    +0.000 OA
ATOM     10  N   UNL     1       6.217  -4.454  -1.273  0.00  0.00    +0.000 N 
ATOM     11  H   UNL     1       5.783  -4.674  -2.165  0.00  0.00    +0.000 HD
BRANCH   8  16
ATOM     12  C   UNL     1       2.788  -2.991  -2.759  0.00  0.00    +0.000 A 
ATOM     13  C   UNL     1       1.971  -2.075  -2.115  0.00  0.00    +0.000 A 
ATOM     14  C   UNL     1       2.358  -1.609  -0.861  0.00  0.00    +0.000 A 
ATOM     15  C   UNL     1       3.543  -2.079  -0.299  0.00  0.00    +0.000 A 
ATOM     16  C   UNL     1       4.294  -2.996  -1.024  0.00  0.00    +0.000 A 
ATOM     17  N   UNL     1       3.943  -3.462  -2.251  0.00  0.00    +0.000 NA
BRANCH  12  19
ATOM     18  C   UNL     1       3.271  -4.356  -4.593  0.00  0.00    +0.000 C 
ATOM     19  O   UNL     1       2.355  -3.445  -3.990  0.00  0.00    +0.000 OA
ENDBRANCH  12  19
ENDBRANCH   8  16
ENDBRANCH   7  10
ENDBRANCH   1   7
BRANCH   4  20
ATOM     20  C   UNL     1       9.271  -8.708  -5.087  0.00  0.00    +0.000 C 
BRANCH  20  21
ATOM     21  N   UNL     1      10.478  -9.412  -4.734  0.00  0.00    +0.000 N 
ATOM     22  C   UNL     1      11.095 -10.269  -5.608  0.00  0.00    +0.000 C 
ATOM     23  O   UNL     1      10.681 -10.447  -6.749  0.00  0.00    +0.000 OA
ATOM     24  H   UNL     1      10.686  -9.481  -3.742  0.00  0.00    +0.000 HD
BRANCH  22  25
ATOM     25  C   UNL     1      12.324 -10.912  -5.126  0.00  0.00    +0.000 A 
ATOM     26  C   UNL     1      13.265 -11.378  -6.035  0.00  0.00    +0.000 A 
ATOM     27  S   UNL     1      14.670 -12.008  -5.298  0.00  0.00    +0.000 S 
ATOM     28  C   UNL     1      14.044 -11.735  -3.739  0.00  0.00    +0.000 A 
ATOM     29  N   UNL     1      14.757 -12.062  -2.628  0.00  0.00    +0.000 NA
ATOM     30  C   UNL     1      14.148 -11.826  -1.514  0.00  0.00    +0.000 A 
ATOM     31  N   UNL     1      12.888 -11.295  -1.410  0.00  0.00    +0.000 N 
ATOM     32  C   UNL     1      12.138 -10.936  -2.503  0.00  0.00    +0.000 A 
ATOM     33  O   UNL     1      11.020 -10.450  -2.375  0.00  0.00    +0.000 OA
ATOM     34  C   UNL     1      12.783 -11.170  -3.781  0.00  0.00    +0.000 A 
ATOM     35  H   UNL     1      12.464 -11.138  -0.508  0.00  0.00    +0.000 HD
ENDBRANCH  22  25
ENDBRANCH  20  21
ENDBRANCH   4  20
TORSDOF 7
