REMARK  Name = 
REMARK  8 active torsions:
REMARK  status: ('A' for Active; 'I' for Inactive)
REMARK    1  A    between atoms: N_1  and  C_2
REMARK    2  A    between atoms: C_2  and  C_3
REMARK    3  A    between atoms: C_2  and  C_18
REMARK    4  A    between atoms: C_3  and  N_4
REMARK    5  A    between atoms: N_7  and  C_8
REMARK    6  A    between atoms: C_8  and  C_9
REMARK    7  A    between atoms: C_9  and  C_10
REMARK    8  A    between atoms: C_18  and  C_20
REMARK                            x       y       z     vdW  Elec       q    Type
REMARK                         _______ _______ _______ _____ _____    ______ ____
ROOT
ATOM      1  C   UNL     1       2.698  -0.014  -0.115  0.00  0.00    +0.000 C 
ENDROOT
BRANCH   1   2
ATOM      2  N   UNL     1       3.305   1.179   0.537  0.00  0.00    +0.000 NA
ATOM      3  H   UNL     1       4.298   1.193   0.301  0.00  0.00    +0.000 HD
ATOM      4  H   UNL     1       3.282   1.016   1.548  0.00  0.00    +0.000 HD
ENDBRANCH   1   2
BRANCH   1   5
ATOM      5  C   UNL     1       3.266  -1.274   0.588  0.00  0.00    +0.000 C 
ATOM      6  O   UNL     1       3.644  -1.189   1.763  0.00  0.00    +0.000 OA
BRANCH   5   7
ATOM      7  C   UNL     1       3.208  -2.592  -0.057  0.00  0.00    +0.000 A 
ATOM      8  C   UNL     1       2.994  -3.732   0.705  0.00  0.00    +0.000 A 
ATOM      9  S   UNL     1       2.812  -5.144  -0.236  0.00  0.00    +0.000 S 
ATOM     10  C   UNL     1       3.059  -4.277  -1.681  0.00  0.00    +0.000 A 
ATOM     11  N   UNL     1       2.983  -4.888  -2.895  0.00  0.00    +0.000 NA
ATOM     12  C   UNL     1       3.180  -4.105  -3.897  0.00  0.00    +0.000 A 
ATOM     13  N   UNL     1       3.487  -2.769  -3.799  0.00  0.00    +0.000 N 
ATOM     14  C   UNL     1       3.737  -2.161  -2.594  0.00  0.00    +0.000 A 
ATOM     15  O   UNL     1       4.301  -1.077  -2.525  0.00  0.00    +0.000 OA
ATOM     16  C   UNL     1       3.347  -2.949  -1.441  0.00  0.00    +0.000 A 
ATOM     17  H   UNL     1       3.726  -2.234  -4.621  0.00  0.00    +0.000 HD
ENDBRANCH   5   7
ENDBRANCH   1   5
BRANCH   1  18
ATOM     18  C   UNL     1       1.151  -0.087  -0.003  0.00  0.00    +0.000 C 
BRANCH  18  19
ATOM     19  N   UNL     1       0.348   0.957  -0.691  0.00  0.00    +0.000 NA
ATOM     20  C   UNL     1       0.628   2.325  -0.199  0.00  0.00    +0.000 C 
ATOM     21  C   UNL     1       0.211   2.555   1.277  0.00  0.00    +0.000 C 
ATOM     22  N   UNL     1      -1.225   2.274   1.542  0.00  0.00    +0.000 NA
ATOM     23  C   UNL     1      -1.559   0.940   0.997  0.00  0.00    +0.000 C 
ATOM     24  C   UNL     1      -1.097   0.700  -0.464  0.00  0.00    +0.000 C 
BRANCH  22  25
ATOM     25  C   UNL     1      -2.044   3.354   0.974  0.00  0.00    +0.000 C 
BRANCH  25  26
ATOM     26  C   UNL     1      -3.539   3.223   1.276  0.00  0.00    +0.000 C 
BRANCH  26  27
ATOM     27  C   UNL     1      -4.365   4.331   0.605  0.00  0.00    +0.000 C 
ATOM     28  C   UNL     1      -3.990   5.733   1.101  0.00  0.00    +0.000 C 
ATOM     29  C   UNL     1      -4.944   6.781   0.544  0.00  0.00    +0.000 C 
ATOM     30  O   UNL     1      -6.298   6.454   0.850  0.00  0.00    +0.000 OA
ATOM     31  C   UNL     1      -6.695   5.212   0.272  0.00  0.00    +0.000 C 
ATOM     32  C   UNL     1      -5.859   4.072   0.833  0.00  0.00    +0.000 C 
ENDBRANCH  26  27
ENDBRANCH  25  26
ENDBRANCH  22  25
ENDBRANCH  18  19
ENDBRANCH   1  18
TORSDOF 8
