REMARK  Name = 
REMARK  6 active torsions:
REMARK  status: ('A' for Active; 'I' for Inactive)
REMARK    1  A    between atoms: C_2  and  C_18
REMARK    2  A    between atoms: N_3  and  C_4
REMARK    3  A    between atoms: C_4  and  C_5
REMARK    4  A    between atoms: C_8  and  C_9
REMARK    5  A    between atoms: C_9  and  N_10
REMARK    6  A    between atoms: N_10  and  C_11
REMARK                            x       y       z     vdW  Elec       q    Type
REMARK                         _______ _______ _______ _____ _____    ______ ____
ROOT
ATOM      1  C   UNL     1       2.275   0.288   2.438  0.00  0.00    +0.000 C 
ENDROOT
BRANCH   1   2
ATOM      2  C   UNL     1       3.225   0.432   3.598  0.00  0.00    +0.000 A 
ATOM      3  C   UNL     1       3.606   1.701   4.051  0.00  0.00    +0.000 A 
ATOM      4  C   UNL     1       4.474   1.837   5.140  0.00  0.00    +0.000 A 
ATOM      5  C   UNL     1       4.986   0.707   5.790  0.00  0.00    +0.000 A 
ATOM      6  C   UNL     1       4.625  -0.562   5.316  0.00  0.00    +0.000 A 
ATOM      7  C   UNL     1       3.759  -0.699   4.227  0.00  0.00    +0.000 A 
BRANCH   5   8
ATOM      8  C   UNL     1       5.951   0.841   6.946  0.00  0.00    +0.000 C 
BRANCH   8   9
ATOM      9  N   UNL     1       5.359   1.532   8.089  0.00  0.00    +0.000 NA
ATOM     10  H   UNL     1       4.524   1.036   8.395  0.00  0.00    +0.000 HD
BRANCH   9  11
ATOM     11  C   UNL     1       6.260   1.609   9.208  0.00  0.00    +0.000 C 
ATOM     12  C   UNL     1       6.746   0.287   9.789  0.00  0.00    +0.000 C 
ATOM     13  C   UNL     1       7.140   0.681  11.200  0.00  0.00    +0.000 C 
ATOM     14  C   UNL     1       6.198   1.829  11.541  0.00  0.00    +0.000 C 
ATOM     15  N   UNL     1       5.480   2.144  10.306  0.00  0.00    +0.000 NA
ATOM     16  H   UNL     1       5.366   3.147  10.183  0.00  0.00    +0.000 HD
ENDBRANCH   9  11
ENDBRANCH   8   9
ENDBRANCH   5   8
ENDBRANCH   1   2
BRANCH   1  19
ATOM     17  O   UNL     1       2.669   2.458   0.697  0.00  0.00    +0.000 OA
ATOM     18  C   UNL     1       3.165   1.371   0.413  0.00  0.00    +0.000 C 
ATOM     19  N   UNL     1       2.979   0.253   1.182  0.00  0.00    +0.000 N 
ATOM     20  H   UNL     1       3.545  -0.570   1.010  0.00  0.00    +0.000 HD
BRANCH  18  21
ATOM     21  C   UNL     1       3.952   1.192  -0.815  0.00  0.00    +0.000 A 
ATOM     22  C   UNL     1       3.791   2.083  -1.869  0.00  0.00    +0.000 A 
ATOM     23  S   UNL     1       4.781   1.738  -3.213  0.00  0.00    +0.000 S 
ATOM     24  C   UNL     1       5.490   0.409  -2.420  0.00  0.00    +0.000 A 
ATOM     25  N   UNL     1       6.470  -0.319  -3.016  0.00  0.00    +0.000 NA
ATOM     26  C   UNL     1       6.948  -1.271  -2.287  0.00  0.00    +0.000 A 
ATOM     27  N   UNL     1       6.515  -1.575  -1.022  0.00  0.00    +0.000 N 
ATOM     28  C   UNL     1       5.480  -0.914  -0.407  0.00  0.00    +0.000 A 
ATOM     29  O   UNL     1       5.029  -1.300   0.667  0.00  0.00    +0.000 OA
ATOM     30  C   UNL     1       4.948   0.208  -1.162  0.00  0.00    +0.000 A 
ATOM     31  H   UNL     1       6.905  -2.357  -0.516  0.00  0.00    +0.000 HD
ENDBRANCH  18  21
ENDBRANCH   1  19
TORSDOF 6
