REMARK  Name = 
REMARK  6 active torsions:
REMARK  status: ('A' for Active; 'I' for Inactive)
REMARK    1  A    between atoms: C_1  and  C_2
REMARK    2  A    between atoms: C_2  and  N_3
REMARK    3  A    between atoms: C_2  and  C_16
REMARK    4  A    between atoms: C_4  and  C_6
REMARK    5  A    between atoms: C_19  and  O_20
REMARK    6  A    between atoms: O_20  and  C_21
REMARK                            x       y       z     vdW  Elec       q    Type
REMARK                         _______ _______ _______ _____ _____    ______ ____
ROOT
ATOM      1  C   UNL     1       2.837   1.044   0.840  0.00  0.00    +0.000 C 
ATOM      2  C   UNL     1       2.438  -0.177   0.003  0.00  0.00    +0.000 C 
ENDROOT
BRANCH   2   3
ATOM      3  C   UNL     1       3.047  -1.479   0.491  0.00  0.00    +0.000 A 
ATOM      4  C   UNL     1       3.314  -2.493  -0.441  0.00  0.00    +0.000 A 
ATOM      5  C   UNL     1       3.930  -3.680  -0.048  0.00  0.00    +0.000 A 
ATOM      6  C   UNL     1       4.322  -3.859   1.278  0.00  0.00    +0.000 A 
ATOM      7  C   UNL     1       3.979  -2.905   2.233  0.00  0.00    +0.000 A 
ATOM      8  C   UNL     1       3.335  -1.727   1.843  0.00  0.00    +0.000 A 
BRANCH   6   9
ATOM      9  O   UNL     1       4.984  -4.979   1.729  0.00  0.00    +0.000 OA
BRANCH   9  10
ATOM     10  C   UNL     1       6.013  -5.490   0.943  0.00  0.00    +0.000 A 
ATOM     11  C   UNL     1       6.364  -6.810   1.175  0.00  0.00    +0.000 A 
ATOM     12  C   UNL     1       7.361  -7.375   0.383  0.00  0.00    +0.000 A 
ATOM     13  C   UNL     1       7.973  -6.604  -0.599  0.00  0.00    +0.000 A 
ATOM     14  C   UNL     1       7.579  -5.283  -0.736  0.00  0.00    +0.000 A 
ATOM     15  N   UNL     1       6.624  -4.706   0.023  0.00  0.00    +0.000 NA
ENDBRANCH   9  10
ENDBRANCH   6   9
ENDBRANCH   2   3
BRANCH   2  16
ATOM     16  N   UNL     1       0.997  -0.308  -0.036  0.00  0.00    +0.000 N 
ATOM     17  C   UNL     1       0.215   0.416  -0.897  0.00  0.00    +0.000 C 
ATOM     18  O   UNL     1       0.680   1.066  -1.827  0.00  0.00    +0.000 OA
ATOM     19  H   UNL     1       0.575  -0.716   0.792  0.00  0.00    +0.000 HD
BRANCH  17  20
ATOM     20  C   UNL     1      -1.226   0.369  -0.644  0.00  0.00    +0.000 A 
ATOM     21  C   UNL     1      -2.128   0.538  -1.684  0.00  0.00    +0.000 A 
ATOM     22  S   UNL     1      -3.757   0.530  -1.177  0.00  0.00    +0.000 S 
ATOM     23  C   UNL     1      -3.307   0.356   0.455  0.00  0.00    +0.000 A 
ATOM     24  N   UNL     1      -4.237   0.369   1.448  0.00  0.00    +0.000 NA
ATOM     25  C   UNL     1      -3.746   0.280   2.639  0.00  0.00    +0.000 A 
ATOM     26  N   UNL     1      -2.413   0.146   2.927  0.00  0.00    +0.000 N 
ATOM     27  C   UNL     1      -1.446   0.038   1.958  0.00  0.00    +0.000 A 
ATOM     28  O   UNL     1      -0.286  -0.233   2.241  0.00  0.00    +0.000 OA
ATOM     29  C   UNL     1      -1.938   0.226   0.602  0.00  0.00    +0.000 A 
ATOM     30  H   UNL     1      -2.099   0.025   3.880  0.00  0.00    +0.000 HD
ENDBRANCH  17  20
ENDBRANCH   2  16
TORSDOF 5
