REMARK  Name = 
REMARK  11 active torsions:
REMARK  status: ('A' for Active; 'I' for Inactive)
REMARK    1  A    between atoms: C_1  and  C_2
REMARK    2  A    between atoms: C_2  and  N_3
REMARK    3  A    between atoms: C_2  and  C_22
REMARK    4  A    between atoms: N_3  and  C_4
REMARK    5  A    between atoms: C_4  and  C_5
REMARK    6  A    between atoms: C_8  and  C_9
REMARK    7  A    between atoms: C_9  and  N_10
REMARK    8  A    between atoms: N_10  and  CA_11
REMARK    9  A    between atoms: CA_11  and  C_12
REMARK   10  A    between atoms: CA_11  and  C_14
REMARK   11  A    between atoms: C_12  and  O_13
REMARK                            x       y       z     vdW  Elec       q    Type
REMARK                         _______ _______ _______ _____ _____    ______ ____
ROOT
ATOM      1  C   UNL     1      -0.959   0.596   1.415  0.00  0.00    +0.000 A 
ATOM      2  C   UNL     1      -1.708  -0.541   1.706  0.00  0.00    +0.000 A 
ATOM      3  C   UNL     1      -3.097  -0.470   1.702  0.00  0.00    +0.000 A 
ATOM      4  C   UNL     1      -3.704   0.744   1.402  0.00  0.00    +0.000 A 
ATOM      5  N   UNL     1      -3.000   1.870   1.117  0.00  0.00    +0.000 NA
ATOM      6  C   UNL     1      -1.652   1.770   1.130  0.00  0.00    +0.000 A 
ENDROOT
BRANCH   1   7
ATOM      7  C   UNL     1       0.541   0.557   1.351  0.00  0.00    +0.000 C 
BRANCH   7   8
ATOM      8  N   UNL     1       1.132   1.485   2.311  0.00  0.00    +0.000 NA
ATOM      9  H   UNL     1       0.810   1.229   3.246  0.00  0.00    +0.000 HD
BRANCH   8  11
ATOM     10  C   UNL     1       3.193   1.833   0.942  0.00  0.00    +0.000 C 
ATOM     11  C   UNL     1       2.602   1.458   2.306  0.00  0.00    +0.000 C 
BRANCH  11  12
ATOM     12  C   UNL     1       3.085   2.415   3.383  0.00  0.00    +0.000 A 
ATOM     13  C   UNL     1       2.458   3.598   3.750  0.00  0.00    +0.000 A 
ATOM     14  S   UNL     1       3.253   4.423   5.017  0.00  0.00    +0.000 S 
ATOM     15  C   UNL     1       4.473   3.240   5.102  0.00  0.00    +0.000 A 
ATOM     16  N   UNL     1       5.487   3.331   6.005  0.00  0.00    +0.000 NA
ATOM     17  C   UNL     1       6.337   2.361   5.946  0.00  0.00    +0.000 A 
ATOM     18  N   UNL     1       6.274   1.312   5.062  0.00  0.00    +0.000 N 
ATOM     19  C   UNL     1       5.281   1.188   4.118  0.00  0.00    +0.000 A 
ATOM     20  O   UNL     1       5.273   0.263   3.310  0.00  0.00    +0.000 OA
ATOM     21  C   UNL     1       4.283   2.239   4.168  0.00  0.00    +0.000 A 
ATOM     22  H   UNL     1       6.984   0.596   5.058  0.00  0.00    +0.000 HD
ENDBRANCH  11  12
ENDBRANCH   8  11
ENDBRANCH   7   8
ENDBRANCH   1   7
BRANCH   4  23
ATOM     23  C   UNL     1      -5.212   0.849   1.334  0.00  0.00    +0.000 C 
BRANCH  23  24
ATOM     24  N   UNL     1      -5.713   1.378   0.056  0.00  0.00    +0.000 NA
ATOM     25  H   UNL     1      -5.211   2.263  -0.080  0.00  0.00    +0.000 HD
BRANCH  24  26
ATOM     26  CA  UNL     1      -5.393   0.539  -1.125  0.00  0.00    +0.000 C 
BRANCH  26  27
ATOM     27  C   UNL     1      -5.886   1.198  -2.422  0.00  0.00    +0.000 A 
ATOM     28  C   UNL     1      -7.013   2.021  -2.445  0.00  0.00    +0.000 A 
ATOM     29  C   UNL     1      -7.417   2.582  -3.653  0.00  0.00    +0.000 A 
ATOM     30  C   UNL     1      -6.698   2.304  -4.808  0.00  0.00    +0.000 A 
ATOM     31  C   UNL     1      -5.607   1.459  -4.710  0.00  0.00    +0.000 A 
ATOM     32  N   UNL     1      -5.199   0.890  -3.554  0.00  0.00    +0.000 NA
ENDBRANCH  26  27
BRANCH  26  33
ATOM     33  C   UNL     1      -5.969  -0.902  -1.072  0.00  0.00    +0.000 C 
BRANCH  33  34
ATOM     34  O   UNL     1      -5.527  -1.724  -2.159  0.00  0.00    +0.000 OA
ATOM     35  H   UNL     1      -5.527  -1.161  -2.962  0.00  0.00    +0.000 HD
ENDBRANCH  33  34
ENDBRANCH  26  33
ENDBRANCH  24  26
ENDBRANCH  23  24
ENDBRANCH   4  23
TORSDOF 10
