REMARK  Name = 
REMARK  7 active torsions:
REMARK  status: ('A' for Active; 'I' for Inactive)
REMARK    1  A    between atoms: N_1  and  C_2
REMARK    2  A    between atoms: C_2  and  C_3
REMARK    3  A    between atoms: C_7  and  C_8
REMARK    4  A    between atoms: C_8  and  C_9
REMARK    5  A    between atoms: C_9  and  O_10
REMARK    6  A    between atoms: O_10  and  C_11
REMARK    7  A    between atoms: C_14  and  C_15
REMARK                            x       y       z     vdW  Elec       q    Type
REMARK                         _______ _______ _______ _____ _____    ______ ____
ROOT
ATOM      1  C   UNL     1       3.041  -3.459   5.303  0.00  0.00    +0.000 C 
ENDROOT
BRANCH   1   2
ATOM      2  C   UNL     1       2.941  -3.386   3.778  0.00  0.00    +0.000 C 
BRANCH   2   7
ATOM      3  C   UNL     1       2.289   0.288   2.942  0.00  0.00    +0.000 A 
ATOM      4  C   UNL     1       3.580   0.721   2.614  0.00  0.00    +0.000 A 
ATOM      5  C   UNL     1       4.648  -0.176   2.622  0.00  0.00    +0.000 A 
ATOM      6  C   UNL     1       4.440  -1.513   2.967  0.00  0.00    +0.000 A 
ATOM      7  C   UNL     1       3.158  -1.968   3.300  0.00  0.00    +0.000 A 
ATOM      8  C   UNL     1       2.089  -1.060   3.282  0.00  0.00    +0.000 A 
BRANCH   3   9
ATOM      9  C   UNL     1       1.146   1.268   3.010  0.00  0.00    +0.000 C 
BRANCH   9  10
ATOM     10  N   UNL     1       0.968   1.757   4.371  0.00  0.00    +0.000 NA
ATOM     11  H   UNL     1       0.307   2.530   4.369  0.00  0.00    +0.000 HD
ATOM     12  H   UNL     1       1.854   2.134   4.705  0.00  0.00    +0.000 HD
ENDBRANCH   9  10
ENDBRANCH   3   9
ENDBRANCH   2   7
ENDBRANCH   1   2
BRANCH   1  13
ATOM     13  O   UNL     1       2.821  -4.802   5.762  0.00  0.00    +0.000 OA
BRANCH  13  14
ATOM     14  C   UNL     1       2.926  -4.889   7.138  0.00  0.00    +0.000 A 
ATOM     15  C   UNL     1       2.724  -6.122   7.751  0.00  0.00    +0.000 A 
ATOM     16  N   UNL     1       2.815  -6.306   9.098  0.00  0.00    +0.000 NA
ATOM     17  C   UNL     1       3.120  -5.179   9.804  0.00  0.00    +0.000 A 
ATOM     18  C   UNL     1       3.319  -3.950   9.195  0.00  0.00    +0.000 A 
ATOM     19  N   UNL     1       3.227  -3.784   7.853  0.00  0.00    +0.000 NA
BRANCH  17  20
ATOM     20  C   UNL     1       3.251  -5.273  11.285  0.00  0.00    +0.000 C 
ATOM     21  N   UNL     1       3.044  -6.509  11.833  0.00  0.00    +0.000 N 
ATOM     22  O   UNL     1       3.530  -4.304  11.979  0.00  0.00    +0.000 OA
ATOM     23  H   UNL     1       2.815  -7.301  11.244  0.00  0.00    +0.000 HD
ATOM     24  H   UNL     1       3.126  -6.621  12.834  0.00  0.00    +0.000 HD
ENDBRANCH  17  20
ENDBRANCH  13  14
ENDBRANCH   1  13
TORSDOF 7
