REMARK  Name = 
REMARK  7 active torsions:
REMARK  status: ('A' for Active; 'I' for Inactive)
REMARK    1  A    between atoms: C_1  and  O_2
REMARK    2  A    between atoms: O_2  and  C_3
REMARK    3  A    between atoms: C_3  and  C_5
REMARK    4  A    between atoms: C_8  and  C_9
REMARK    5  A    between atoms: C_9  and  N_10
REMARK    6  A    between atoms: C_15  and  O_16
REMARK    7  A    between atoms: O_16  and  C_17
REMARK                            x       y       z     vdW  Elec       q    Type
REMARK                         _______ _______ _______ _____ _____    ______ ____
ROOT
ATOM      1  C   UNL     1       9.095   1.300   1.062  0.00  0.00    +0.000 C 
ENDROOT
BRANCH   1   2
ATOM      2  N   UNL     1      10.096   0.384   0.527  0.00  0.00    +0.000 N 
ATOM      3  C   UNL     1      10.721  -0.582   1.276  0.00  0.00    +0.000 A 
ATOM      4  C   UNL     1      11.420  -1.348   0.370  0.00  0.00    +0.000 A 
ATOM      5  C   UNL     1      11.883  -0.371  -0.540  0.00  0.00    +0.000 A 
ATOM      6  C   UNL     1      13.046  -0.190  -1.313  0.00  0.00    +0.000 A 
ATOM      7  C   UNL     1      13.102   0.894  -2.192  0.00  0.00    +0.000 A 
ATOM      8  C   UNL     1      11.952   1.649  -2.434  0.00  0.00    +0.000 A 
ATOM      9  C   UNL     1      10.797   1.501  -1.656  0.00  0.00    +0.000 A 
ATOM     10  C   UNL     1      10.855   0.574  -0.614  0.00  0.00    +0.000 A 
BRANCH   7  11
ATOM     11  O   UNL     1      14.219   1.288  -2.882  0.00  0.00    +0.000 OA
ATOM     12  C   UNL     1      15.466   0.895  -2.310  0.00  0.00    +0.000 C 
ENDBRANCH   7  11
ENDBRANCH   1   2
BRANCH   1  16
ATOM     13  C   UNL     1       4.998   0.263   0.169  0.00  0.00    +0.000 A 
ATOM     14  C   UNL     1       5.600  -0.247   1.324  0.00  0.00    +0.000 A 
ATOM     15  C   UNL     1       6.930   0.077   1.606  0.00  0.00    +0.000 A 
ATOM     16  C   UNL     1       7.674   0.903   0.740  0.00  0.00    +0.000 A 
ATOM     17  C   UNL     1       7.058   1.396  -0.415  0.00  0.00    +0.000 A 
ATOM     18  C   UNL     1       5.715   1.081  -0.714  0.00  0.00    +0.000 A 
BRANCH  13  19
ATOM     19  C   UNL     1       3.594  -0.010  -0.209  0.00  0.00    +0.000 C 
ATOM     20  O   UNL     1       2.938   0.650  -1.007  0.00  0.00    +0.000 OA
BRANCH  19  22
ATOM     21  C   UNL     1       1.849  -1.566  -0.035  0.00  0.00    +0.000 C 
ATOM     22  O   UNL     1       3.152  -1.164   0.386  0.00  0.00    +0.000 OA
ENDBRANCH  19  22
ENDBRANCH  13  19
ENDBRANCH   1  16
TORSDOF 5
