REMARK  Name = 
REMARK  7 active torsions:
REMARK  status: ('A' for Active; 'I' for Inactive)
REMARK    1  A    between atoms: C_1  and  C_2
REMARK    2  A    between atoms: C_2  and  N_3
REMARK    3  A    between atoms: C_2  and  C_16
REMARK    4  A    between atoms: C_4  and  C_6
REMARK    5  A    between atoms: C_19  and  O_20
REMARK    6  A    between atoms: O_20  and  C_21
REMARK    7  A    between atoms: C_24  and  C_25
REMARK                            x       y       z     vdW  Elec       q    Type
REMARK                         _______ _______ _______ _____ _____    ______ ____
ROOT
ATOM      1  C   UNL     1       0.860   0.074  -0.132  0.00  0.00    +0.000 C 
ATOM      2  C   UNL     1       2.387   0.067   0.018  0.00  0.00    +0.000 C 
ENDROOT
BRANCH   2   3
ATOM      3  C   UNL     1       2.970  -1.204  -0.599  0.00  0.00    +0.000 A 
ATOM      4  C   UNL     1       2.568  -2.461  -0.140  0.00  0.00    +0.000 A 
ATOM      5  C   UNL     1       3.141  -3.605  -0.689  0.00  0.00    +0.000 A 
ATOM      6  C   UNL     1       4.153  -3.475  -1.635  0.00  0.00    +0.000 A 
ATOM      7  C   UNL     1       4.471  -2.196  -2.066  0.00  0.00    +0.000 A 
ATOM      8  N   UNL     1       3.908  -1.064  -1.570  0.00  0.00    +0.000 NA
BRANCH   6   9
ATOM      9  O   UNL     1       4.834  -4.534  -2.183  0.00  0.00    +0.000 OA
BRANCH   9  10
ATOM     10  C   UNL     1       5.200  -5.581  -1.362  0.00  0.00    +0.000 A 
ATOM     11  C   UNL     1       5.310  -6.837  -1.964  0.00  0.00    +0.000 A 
ATOM     12  C   UNL     1       5.647  -7.957  -1.195  0.00  0.00    +0.000 A 
ATOM     13  C   UNL     1       5.876  -7.823   0.177  0.00  0.00    +0.000 A 
ATOM     14  C   UNL     1       5.805  -6.559   0.772  0.00  0.00    +0.000 A 
ATOM     15  C   UNL     1       5.498  -5.439  -0.002  0.00  0.00    +0.000 A 
BRANCH  13  16
ATOM     16  C   UNL     1       6.187  -8.971   0.979  0.00  0.00    +0.000 C 
ATOM     17  N   UNL     1       6.438  -9.891   1.637  0.00  0.00    +0.000 NA
ENDBRANCH  13  16
ENDBRANCH   9  10
ENDBRANCH   6   9
ENDBRANCH   2   3
BRANCH   2  18
ATOM     18  N   UNL     1       2.807   0.185   1.413  0.00  0.00    +0.000 N 
ATOM     19  C   UNL     1       2.520   1.289   2.176  0.00  0.00    +0.000 C 
ATOM     20  O   UNL     1       1.816   2.211   1.777  0.00  0.00    +0.000 OA
ATOM     21  H   UNL     1       3.636  -0.347   1.664  0.00  0.00    +0.000 HD
BRANCH  19  22
ATOM     22  C   UNL     1       3.044   1.281   3.545  0.00  0.00    +0.000 A 
ATOM     23  C   UNL     1       2.345   1.928   4.555  0.00  0.00    +0.000 A 
ATOM     24  S   UNL     1       3.097   1.821   6.081  0.00  0.00    +0.000 S 
ATOM     25  C   UNL     1       4.405   0.944   5.435  0.00  0.00    +0.000 A 
ATOM     26  N   UNL     1       5.453   0.568   6.217  0.00  0.00    +0.000 NA
ATOM     27  C   UNL     1       6.395  -0.048   5.584  0.00  0.00    +0.000 A 
ATOM     28  N   UNL     1       6.377  -0.340   4.244  0.00  0.00    +0.000 N 
ATOM     29  C   UNL     1       5.310  -0.040   3.431  0.00  0.00    +0.000 A 
ATOM     30  O   UNL     1       5.263  -0.418   2.265  0.00  0.00    +0.000 OA
ATOM     31  C   UNL     1       4.249   0.703   4.082  0.00  0.00    +0.000 A 
ATOM     32  H   UNL     1       7.136  -0.850   3.816  0.00  0.00    +0.000 HD
ENDBRANCH  19  22
ENDBRANCH   2  18
TORSDOF 6
