REMARK  Name = 
REMARK  5 active torsions:
REMARK  status: ('A' for Active; 'I' for Inactive)
REMARK    1  A    between atoms: N_1  and  C_2
REMARK    2  A    between atoms: C_2  and  C_3
REMARK    3  A    between atoms: C_6  and  C_7
REMARK    4  A    between atoms: C_7  and  N_8
REMARK    5  A    between atoms: C_13  and  C_14
REMARK                            x       y       z     vdW  Elec       q    Type
REMARK                         _______ _______ _______ _____ _____    ______ ____
ROOT
ATOM      1  N   UNL     1       6.563   2.813  -4.427  0.00  0.00    +0.000 N 
ATOM      2  C   UNL     1       7.568   3.715  -4.177  0.00  0.00    +0.000 A 
ATOM      3  C   UNL     1       8.758   3.141  -4.571  0.00  0.00    +0.000 A 
ATOM      4  C   UNL     1       8.466   1.852  -5.091  0.00  0.00    +0.000 A 
ATOM      5  C   UNL     1       9.227   0.782  -5.596  0.00  0.00    +0.000 A 
ATOM      6  C   UNL     1       8.546  -0.372  -6.001  0.00  0.00    +0.000 A 
ATOM      7  C   UNL     1       7.154  -0.378  -5.928  0.00  0.00    +0.000 A 
ATOM      8  N   UNL     1       6.375   0.633  -5.463  0.00  0.00    +0.000 NA
ATOM      9  C   UNL     1       7.083   1.699  -5.043  0.00  0.00    +0.000 A 
ENDROOT
BRANCH   6  10
ATOM     10  C   UNL     1       9.219  -1.603  -6.481  0.00  0.00    +0.000 C 
ATOM     11  N   UNL     1      10.586  -1.635  -6.513  0.00  0.00    +0.000 N 
ATOM     12  O   UNL     1       8.576  -2.586  -6.828  0.00  0.00    +0.000 OA
ATOM     13  H   UNL     1      11.196  -0.891  -6.216  0.00  0.00    +0.000 HD
ATOM     14  H   UNL     1      11.013  -2.504  -6.811  0.00  0.00    +0.000 HD
ENDBRANCH   6  10
BRANCH   1  15
ATOM     15  C   UNL     1       5.163   3.014  -4.094  0.00  0.00    +0.000 C 
BRANCH  15  19
ATOM     16  C   UNL     1       2.778   0.650  -1.321  0.00  0.00    +0.000 C 
ATOM     17  C   UNL     1       4.265   0.285  -1.423  0.00  0.00    +0.000 C 
ATOM     18  C   UNL     1       4.948   0.941  -2.619  0.00  0.00    +0.000 C 
ATOM     19  C   UNL     1       4.748   2.466  -2.707  0.00  0.00    +0.000 C 
ATOM     20  C   UNL     1       3.296   2.893  -2.420  0.00  0.00    +0.000 C 
ATOM     21  C   UNL     1       2.667   2.178  -1.227  0.00  0.00    +0.000 C 
BRANCH  16  22
ATOM     22  C   UNL     1       1.975   0.017  -2.479  0.00  0.00    +0.000 C 
BRANCH  22  23
ATOM     23  N   UNL     1       0.544   0.293  -2.387  0.00  0.00    +0.000 NA
ATOM     24  H   UNL     1       0.066  -0.191  -3.148  0.00  0.00    +0.000 HD
ATOM     25  H   UNL     1       0.376   1.285  -2.544  0.00  0.00    +0.000 HD
ENDBRANCH  22  23
ENDBRANCH  16  22
ENDBRANCH  15  19
ENDBRANCH   1  15
TORSDOF 5
