REMARK  Name = 
REMARK  6 active torsions:
REMARK  status: ('A' for Active; 'I' for Inactive)
REMARK    1  A    between atoms: C_2  and  C_25
REMARK    2  A    between atoms: N_3  and  C_4
REMARK    3  A    between atoms: C_4  and  C_5
REMARK    4  A    between atoms: C_8  and  C_9
REMARK    5  A    between atoms: C_9  and  N_10
REMARK    6  A    between atoms: C_11  and  C_13
REMARK                            x       y       z     vdW  Elec       q    Type
REMARK                         _______ _______ _______ _____ _____    ______ ____
ROOT
ATOM      1  C   UNL     1       3.306  -3.380  -1.252  0.00  0.00    +0.000 A 
ATOM      2  C   UNL     1       4.549  -3.053  -1.791  0.00  0.00    +0.000 A 
ATOM      3  C   UNL     1       5.417  -4.078  -2.168  0.00  0.00    +0.000 A 
ATOM      4  C   UNL     1       5.021  -5.409  -2.026  0.00  0.00    +0.000 A 
ATOM      5  C   UNL     1       3.766  -5.641  -1.473  0.00  0.00    +0.000 A 
ATOM      6  N   UNL     1       2.903  -4.668  -1.093  0.00  0.00    +0.000 NA
ENDROOT
BRANCH   1   7
ATOM      7  C   UNL     1       2.348  -2.291  -0.823  0.00  0.00    +0.000 C 
BRANCH   7  10
ATOM      8  O   UNL     1       2.797  -0.197  -2.666  0.00  0.00    +0.000 OA
ATOM      9  C   UNL     1       1.761  -0.850  -2.756  0.00  0.00    +0.000 C 
ATOM     10  N   UNL     1       1.453  -1.878  -1.881  0.00  0.00    +0.000 N 
ATOM     11  H   UNL     1       0.630  -2.437  -2.082  0.00  0.00    +0.000 HD
BRANCH   9  12
ATOM     12  C   UNL     1       0.725  -0.592  -3.830  0.00  0.00    +0.000 A 
ATOM     13  N   UNL     1       1.003   0.352  -4.753  0.00  0.00    +0.000 NA
ATOM     14  C   UNL     1       0.059   0.554  -5.688  0.00  0.00    +0.000 A 
ATOM     15  C   UNL     1      -1.131  -0.136  -5.728  0.00  0.00    +0.000 A 
ATOM     16  C   UNL     1      -1.316  -1.074  -4.736  0.00  0.00    +0.000 A 
ATOM     17  N   UNL     1      -0.410  -1.332  -3.774  0.00  0.00    +0.000 NA
ENDBRANCH   9  12
ENDBRANCH   7  10
ENDBRANCH   1   7
BRANCH   4  18
ATOM     18  C   UNL     1       5.916  -6.549  -2.418  0.00  0.00    +0.000 C 
BRANCH  18  19
ATOM     19  N   UNL     1       6.761  -6.958  -1.324  0.00  0.00    +0.000 N 
ATOM     20  C   UNL     1       7.713  -7.933  -1.484  0.00  0.00    +0.000 C 
ATOM     21  O   UNL     1       7.933  -8.454  -2.575  0.00  0.00    +0.000 OA
ATOM     22  H   UNL     1       6.457  -6.712  -0.387  0.00  0.00    +0.000 HD
BRANCH  20  23
ATOM     23  C   UNL     1       8.498  -8.283  -0.293  0.00  0.00    +0.000 A 
ATOM     24  C   UNL     1       9.755  -8.855  -0.438  0.00  0.00    +0.000 A 
ATOM     25  S   UNL     1      10.548  -9.149   1.043  0.00  0.00    +0.000 S 
ATOM     26  C   UNL     1       9.219  -8.568   1.933  0.00  0.00    +0.000 A 
ATOM     27  N   UNL     1       9.237  -8.560   3.293  0.00  0.00    +0.000 NA
ATOM     28  C   UNL     1       8.151  -8.121   3.838  0.00  0.00    +0.000 A 
ATOM     29  N   UNL     1       7.051  -7.686   3.147  0.00  0.00    +0.000 N 
ATOM     30  C   UNL     1       6.998  -7.652   1.774  0.00  0.00    +0.000 A 
ATOM     31  O   UNL     1       6.013  -7.221   1.183  0.00  0.00    +0.000 OA
ATOM     32  C   UNL     1       8.191  -8.143   1.111  0.00  0.00    +0.000 A 
ATOM     33  H   UNL     1       6.234  -7.346   3.633  0.00  0.00    +0.000 HD
ENDBRANCH  20  23
ENDBRANCH  18  19
ENDBRANCH   4  18
TORSDOF 6
