REMARK  Name = 
REMARK  7 active torsions:
REMARK  status: ('A' for Active; 'I' for Inactive)
REMARK    1  A    between atoms: C_2  and  C_3
REMARK    2  A    between atoms: C_3  and  N_4
REMARK    3  A    between atoms: C_3  and  C_17
REMARK    4  A    between atoms: C_5  and  C_7
REMARK    5  A    between atoms: C_20  and  O_21
REMARK    6  A    between atoms: O_21  and  C_22
REMARK    7  A    between atoms: C_22  and  C_23
REMARK                            x       y       z     vdW  Elec       q    Type
REMARK                         _______ _______ _______ _____ _____    ______ ____
ROOT
ATOM      1  C   UNL     1       3.703  -0.026  -0.067  0.00  0.00    +0.000 C 
ENDROOT
BRANCH   1   2
ATOM      2  C   UNL     1       4.177  -1.343  -0.661  0.00  0.00    +0.000 A 
ATOM      3  C   UNL     1       5.303  -1.395  -1.496  0.00  0.00    +0.000 A 
ATOM      4  C   UNL     1       5.733  -2.616  -2.026  0.00  0.00    +0.000 A 
ATOM      5  C   UNL     1       5.060  -3.797  -1.714  0.00  0.00    +0.000 A 
ATOM      6  C   UNL     1       3.922  -3.750  -0.912  0.00  0.00    +0.000 A 
ATOM      7  C   UNL     1       3.491  -2.537  -0.382  0.00  0.00    +0.000 A 
BRANCH   5   8
ATOM      8  O   UNL     1       5.593  -4.942  -2.239  0.00  0.00    +0.000 OA
BRANCH   8   9
ATOM      9  C   UNL     1       5.223  -6.145  -1.556  0.00  0.00    +0.000 C 
BRANCH   9  10
ATOM     10  C   UNL     1       6.203  -7.242  -1.887  0.00  0.00    +0.000 A 
ATOM     11  C   UNL     1       7.567  -7.039  -1.682  0.00  0.00    +0.000 A 
ATOM     12  C   UNL     1       8.449  -8.077  -1.957  0.00  0.00    +0.000 A 
ATOM     13  C   UNL     1       7.948  -9.285  -2.421  0.00  0.00    +0.000 A 
ATOM     14  C   UNL     1       6.578  -9.410  -2.587  0.00  0.00    +0.000 A 
ATOM     15  N   UNL     1       5.697  -8.423  -2.323  0.00  0.00    +0.000 NA
ENDBRANCH   9  10
ENDBRANCH   8   9
ENDBRANCH   5   8
ENDBRANCH   1   2
BRANCH   1  16
ATOM     16  N   UNL     1       3.756  -0.090   1.386  0.00  0.00    +0.000 N 
ATOM     17  C   UNL     1       4.853   0.323   2.090  0.00  0.00    +0.000 C 
ATOM     18  O   UNL     1       5.813   0.858   1.542  0.00  0.00    +0.000 OA
ATOM     19  H   UNL     1       3.076  -0.691   1.841  0.00  0.00    +0.000 HD
BRANCH  17  20
ATOM     20  C   UNL     1       4.790   0.159   3.546  0.00  0.00    +0.000 A 
ATOM     21  C   UNL     1       5.533   1.000   4.363  0.00  0.00    +0.000 A 
ATOM     22  S   UNL     1       5.329   0.689   6.028  0.00  0.00    +0.000 S 
ATOM     23  C   UNL     1       4.280  -0.613   5.714  0.00  0.00    +0.000 A 
ATOM     24  N   UNL     1       3.761  -1.355   6.728  0.00  0.00    +0.000 NA
ATOM     25  C   UNL     1       3.016  -2.337   6.346  0.00  0.00    +0.000 A 
ATOM     26  N   UNL     1       2.729  -2.636   5.039  0.00  0.00    +0.000 N 
ATOM     27  C   UNL     1       3.173  -1.872   3.986  0.00  0.00    +0.000 A 
ATOM     28  O   UNL     1       2.805  -2.087   2.836  0.00  0.00    +0.000 OA
ATOM     29  C   UNL     1       4.060  -0.786   4.359  0.00  0.00    +0.000 A 
ATOM     30  H   UNL     1       2.111  -3.401   4.812  0.00  0.00    +0.000 HD
ENDBRANCH  17  20
ENDBRANCH   1  16
BRANCH   1  32
ATOM     31  N   UNL     1       1.232   0.533  -0.836  0.00  0.00    +0.000 NA
ATOM     32  C   UNL     1       2.324   0.298  -0.517  0.00  0.00    +0.000 C 
ENDBRANCH   1  32
TORSDOF 7
