REMARK  Name = 
REMARK  7 active torsions:
REMARK  status: ('A' for Active; 'I' for Inactive)
REMARK    1  A    between atoms: C_1  and  C_2
REMARK    2  A    between atoms: C_2  and  N_3
REMARK    3  A    between atoms: C_2  and  C_17
REMARK    4  A    between atoms: C_4  and  C_6
REMARK    5  A    between atoms: N_12  and  C_13
REMARK    6  A    between atoms: C_20  and  O_21
REMARK    7  A    between atoms: O_21  and  C_22
REMARK                            x       y       z     vdW  Elec       q    Type
REMARK                         _______ _______ _______ _____ _____    ______ ____
ROOT
ATOM      1  C   UNL     1       0.890   0.034  -0.077  0.00  0.00    +0.000 C 
ATOM      2  C   UNL     1       2.419  -0.009  -0.037  0.00  0.00    +0.000 C 
ENDROOT
BRANCH   2   3
ATOM      3  C   UNL     1       2.943  -1.197  -0.823  0.00  0.00    +0.000 A 
ATOM      4  C   UNL     1       3.786  -0.971  -1.914  0.00  0.00    +0.000 A 
ATOM      5  C   UNL     1       4.332  -2.041  -2.620  0.00  0.00    +0.000 A 
ATOM      6  C   UNL     1       4.087  -3.358  -2.218  0.00  0.00    +0.000 A 
ATOM      7  C   UNL     1       3.207  -3.599  -1.164  0.00  0.00    +0.000 A 
ATOM      8  C   UNL     1       2.634  -2.526  -0.473  0.00  0.00    +0.000 A 
BRANCH   6   9
ATOM      9  O   UNL     1       4.635  -4.455  -2.851  0.00  0.00    +0.000 OA
BRANCH   9  10
ATOM     10  C   UNL     1       5.948  -4.348  -3.299  0.00  0.00    +0.000 A 
ATOM     11  C   UNL     1       6.337  -5.180  -4.339  0.00  0.00    +0.000 A 
ATOM     12  C   UNL     1       7.648  -5.081  -4.804  0.00  0.00    +0.000 A 
ATOM     13  C   UNL     1       8.511  -4.153  -4.227  0.00  0.00    +0.000 A 
ATOM     14  C   UNL     1       8.033  -3.368  -3.195  0.00  0.00    +0.000 A 
ATOM     15  N   UNL     1       6.785  -3.467  -2.704  0.00  0.00    +0.000 NA
ENDBRANCH   9  10
ENDBRANCH   6   9
ENDBRANCH   2   3
BRANCH   2  16
ATOM     16  N   UNL     1       2.940  -0.062   1.310  0.00  0.00    +0.000 N 
ATOM     17  C   UNL     1       3.170   1.036   2.095  0.00  0.00    +0.000 C 
ATOM     18  O   UNL     1       3.053   2.187   1.683  0.00  0.00    +0.000 OA
ATOM     19  H   UNL     1       2.968  -0.979   1.740  0.00  0.00    +0.000 HD
BRANCH  17  20
ATOM     20  C   UNL     1       3.609   0.751   3.461  0.00  0.00    +0.000 A 
ATOM     21  C   UNL     1       4.445   1.625   4.147  0.00  0.00    +0.000 A 
ATOM     22  S   UNL     1       4.787   1.121   5.742  0.00  0.00    +0.000 S 
ATOM     23  C   UNL     1       3.819  -0.271   5.574  0.00  0.00    +0.000 A 
ATOM     24  N   UNL     1       3.645  -1.134   6.604  0.00  0.00    +0.000 NA
ATOM     25  C   UNL     1       2.874  -2.139   6.336  0.00  0.00    +0.000 A 
ATOM     26  N   UNL     1       2.253  -2.372   5.126  0.00  0.00    +0.000 N 
ATOM     27  C   UNL     1       1.440  -3.554   4.921  0.00  0.00    +0.000 C 
ATOM     28  C   UNL     1       2.443  -1.532   4.037  0.00  0.00    +0.000 A 
ATOM     29  O   UNL     1       1.974  -1.781   2.933  0.00  0.00    +0.000 OA
ATOM     30  C   UNL     1       3.272  -0.373   4.308  0.00  0.00    +0.000 A 
ENDBRANCH  17  20
ENDBRANCH   2  16
TORSDOF 5
