REMARK  Name = 
REMARK  8 active torsions:
REMARK  status: ('A' for Active; 'I' for Inactive)
REMARK    1  A    between atoms: C_2  and  C_20
REMARK    2  A    between atoms: N_3  and  C_4
REMARK    3  A    between atoms: C_4  and  C_5
REMARK    4  A    between atoms: C_8  and  C_9
REMARK    5  A    between atoms: C_9  and  C_10
REMARK    6  A    between atoms: C_10  and  C_11
REMARK    7  A    between atoms: C_11  and  N_12
REMARK    8  A    between atoms: C_15  and  O_16
REMARK                            x       y       z     vdW  Elec       q    Type
REMARK                         _______ _______ _______ _____ _____    ______ ____
ROOT
ATOM      1  C   UNL     1       2.204   2.199   1.277  0.00  0.00    +0.000 C 
ENDROOT
BRANCH   1   2
ATOM      2  C   UNL     1       3.114   3.255   1.846  0.00  0.00    +0.000 A 
ATOM      3  C   UNL     1       2.855   4.610   1.608  0.00  0.00    +0.000 A 
ATOM      4  C   UNL     1       3.672   5.597   2.161  0.00  0.00    +0.000 A 
ATOM      5  C   UNL     1       4.765   5.250   2.968  0.00  0.00    +0.000 A 
ATOM      6  C   UNL     1       5.050   3.893   3.165  0.00  0.00    +0.000 A 
ATOM      7  C   UNL     1       4.236   2.905   2.606  0.00  0.00    +0.000 A 
BRANCH   5   8
ATOM      8  C   UNL     1       5.639   6.308   3.595  0.00  0.00    +0.000 C 
BRANCH   8   9
ATOM      9  C   UNL     1       4.892   7.312   4.478  0.00  0.00    +0.000 C 
BRANCH   9  10
ATOM     10  C   UNL     1       4.182   6.675   5.684  0.00  0.00    +0.000 C 
BRANCH  10  11
ATOM     11  N   UNL     1       3.510   7.699   6.497  0.00  0.00    +0.000 NA
ATOM     12  C   UNL     1       2.446   8.405   5.768  0.00  0.00    +0.000 C 
ATOM     13  C   UNL     1       1.414   8.764   6.819  0.00  0.00    +0.000 C 
ATOM     14  C   UNL     1       1.454   7.562   7.741  0.00  0.00    +0.000 C 
ATOM     15  C   UNL     1       2.932   7.164   7.746  0.00  0.00    +0.000 C 
BRANCH  14  16
ATOM     16  O   UNL     1       0.648   6.510   7.207  0.00  0.00    +0.000 OA
ATOM     17  H   UNL     1       1.107   6.159   6.423  0.00  0.00    +0.000 HD
ENDBRANCH  14  16
ENDBRANCH  10  11
ENDBRANCH   9  10
ENDBRANCH   8   9
ENDBRANCH   5   8
ENDBRANCH   1   2
BRANCH   1  20
ATOM     18  O   UNL     1       1.076   3.219  -1.084  0.00  0.00    +0.000 OA
ATOM     19  C   UNL     1       1.992   2.404  -1.170  0.00  0.00    +0.000 C 
ATOM     20  N   UNL     1       2.579   1.841  -0.067  0.00  0.00    +0.000 N 
ATOM     21  H   UNL     1       3.440   1.315  -0.171  0.00  0.00    +0.000 HD
BRANCH  19  22
ATOM     22  C   UNL     1       2.476   1.937  -2.474  0.00  0.00    +0.000 A 
ATOM     23  C   UNL     1       1.657   2.058  -3.590  0.00  0.00    +0.000 A 
ATOM     24  S   UNL     1       2.362   1.466  -5.024  0.00  0.00    +0.000 S 
ATOM     25  C   UNL     1       3.802   1.063  -4.213  0.00  0.00    +0.000 A 
ATOM     26  N   UNL     1       4.858   0.536  -4.888  0.00  0.00    +0.000 NA
ATOM     27  C   UNL     1       5.903   0.323  -4.161  0.00  0.00    +0.000 A 
ATOM     28  N   UNL     1       5.981   0.567  -2.815  0.00  0.00    +0.000 N 
ATOM     29  C   UNL     1       4.915   1.017  -2.077  0.00  0.00    +0.000 A 
ATOM     30  O   UNL     1       4.970   1.085  -0.853  0.00  0.00    +0.000 OA
ATOM     31  C   UNL     1       3.731   1.342  -2.859  0.00  0.00    +0.000 A 
ATOM     32  H   UNL     1       6.816   0.340  -2.294  0.00  0.00    +0.000 HD
ENDBRANCH  19  22
ENDBRANCH   1  20
TORSDOF 8
