REMARK  Name = 
REMARK  12 active torsions:
REMARK  status: ('A' for Active; 'I' for Inactive)
REMARK    1  A    between atoms: C_1  and  O_2
REMARK    2  A    between atoms: O_2  and  C_3
REMARK    3  A    between atoms: C_10  and  C_11
REMARK    4  A    between atoms: N_13  and  C_14
REMARK    5  A    between atoms: C_14  and  C_15
REMARK    6  A    between atoms: C_18  and  C_19
REMARK    7  A    between atoms: C_19  and  N_20
REMARK    8  A    between atoms: N_20  and  C_21
REMARK    9  A    between atoms: C_21  and  C_22
REMARK   10  A    between atoms: C_21  and  C_25
REMARK   11  A    between atoms: C_22  and  C_23
REMARK   12  A    between atoms: C_23  and  O_24
REMARK                            x       y       z     vdW  Elec       q    Type
REMARK                         _______ _______ _______ _____ _____    ______ ____
ROOT
ATOM      1  C   UNL     1       1.881   1.913   2.795  0.00  0.00    +0.000 A 
ATOM      2  C   UNL     1       0.590   1.466   2.484  0.00  0.00    +0.000 A 
ATOM      3  C   UNL     1      -0.393   2.367   2.055  0.00  0.00    +0.000 A 
ATOM      4  C   UNL     1      -0.106   3.734   1.918  0.00  0.00    +0.000 A 
ATOM      5  C   UNL     1       1.177   4.182   2.261  0.00  0.00    +0.000 A 
ATOM      6  C   UNL     1       2.160   3.282   2.689  0.00  0.00    +0.000 A 
ENDROOT
BRANCH   1   7
ATOM      7  C   UNL     1       2.968   0.940   3.172  0.00  0.00    +0.000 C 
BRANCH   7  10
ATOM      8  C   UNL     1       4.693  -0.446   2.109  0.00  0.00    +0.000 C 
ATOM      9  O   UNL     1       5.029  -0.894   3.204  0.00  0.00    +0.000 OA
ATOM     10  N   UNL     1       3.684   0.474   2.006  0.00  0.00    +0.000 N 
ATOM     11  H   UNL     1       3.442   0.872   1.108  0.00  0.00    +0.000 HD
BRANCH   8  19
ATOM     12  C   UNL     1       4.195   0.227  -1.239  0.00  0.00    +0.000 A 
ATOM     13  N   UNL     1       4.235   0.313  -2.584  0.00  0.00    +0.000 NA
ATOM     14  C   UNL     1       5.167  -0.386  -3.236  0.00  0.00    +0.000 A 
ATOM     15  N   UNL     1       6.089  -1.181  -2.700  0.00  0.00    +0.000 NA
ATOM     16  C   UNL     1       6.021  -1.232  -1.356  0.00  0.00    +0.000 A 
ATOM     17  S   UNL     1       7.124  -2.201  -0.506  0.00  0.00    +0.000 S 
ATOM     18  C   UNL     1       6.434  -1.762   0.981  0.00  0.00    +0.000 A 
ATOM     19  C   UNL     1       5.367  -0.877   0.872  0.00  0.00    +0.000 A 
ATOM     20  C   UNL     1       5.120  -0.564  -0.535  0.00  0.00    +0.000 A 
BRANCH  12  22
ATOM     21  C   UNL     1       2.102   1.254  -1.365  0.00  0.00    +0.000 C 
ATOM     22  O   UNL     1       3.254   0.979  -0.569  0.00  0.00    +0.000 OA
ENDBRANCH  12  22
ENDBRANCH   8  19
ENDBRANCH   7  10
ENDBRANCH   1   7
BRANCH   4  23
ATOM     23  C   UNL     1      -1.123   4.691   1.325  0.00  0.00    +0.000 C 
BRANCH  23  24
ATOM     24  N   UNL     1      -2.361   4.726   2.101  0.00  0.00    +0.000 NA
ATOM     25  H   UNL     1      -2.098   4.977   3.055  0.00  0.00    +0.000 HD
BRANCH  24  26
ATOM     26  C   UNL     1      -3.349   5.729   1.640  0.00  0.00    +0.000 C 
BRANCH  26  27
ATOM     27  C   UNL     1      -4.573   5.791   2.572  0.00  0.00    +0.000 A 
ATOM     28  C   UNL     1      -4.693   4.975   3.712  0.00  0.00    +0.000 A 
ATOM     29  C   UNL     1      -5.796   5.070   4.564  0.00  0.00    +0.000 A 
ATOM     30  C   UNL     1      -6.818   5.970   4.285  0.00  0.00    +0.000 A 
ATOM     31  C   UNL     1      -6.731   6.782   3.159  0.00  0.00    +0.000 A 
ATOM     32  C   UNL     1      -5.615   6.705   2.319  0.00  0.00    +0.000 A 
ENDBRANCH  26  27
BRANCH  26  33
ATOM     33  C   UNL     1      -3.768   5.565   0.157  0.00  0.00    +0.000 C 
BRANCH  33  34
ATOM     34  C   UNL     1      -4.506   4.271  -0.160  0.00  0.00    +0.000 C 
BRANCH  34  35
ATOM     35  O   UNL     1      -4.871   4.264  -1.542  0.00  0.00    +0.000 OA
ATOM     36  H   UNL     1      -5.606   4.896  -1.646  0.00  0.00    +0.000 HD
ENDBRANCH  34  35
ENDBRANCH  33  34
ENDBRANCH  26  33
ENDBRANCH  24  26
ENDBRANCH  23  24
ENDBRANCH   4  23
TORSDOF 11
