REMARK  Name = 
REMARK  8 active torsions:
REMARK  status: ('A' for Active; 'I' for Inactive)
REMARK    1  A    between atoms: C_2  and  C_20
REMARK    2  A    between atoms: N_3  and  C_4
REMARK    3  A    between atoms: C_4  and  C_5
REMARK    4  A    between atoms: C_5  and  N_6
REMARK    5  A    between atoms: C_9  and  C_10
REMARK    6  A    between atoms: C_9  and  C_12
REMARK    7  A    between atoms: C_10  and  O_11
REMARK    8  A    between atoms: C_12  and  C_13
REMARK                            x       y       z     vdW  Elec       q    Type
REMARK                         _______ _______ _______ _____ _____    ______ ____
ROOT
ATOM      1  C   UNL     1       2.300   1.571   1.961  0.00  0.00    +0.000 C 
ENDROOT
BRANCH   1   4
ATOM      2  O   UNL     1       3.185   2.303  -0.602  0.00  0.00    +0.000 OA
ATOM      3  C   UNL     1       3.445   1.176  -0.184  0.00  0.00    +0.000 C 
ATOM      4  N   UNL     1       3.044   0.734   1.052  0.00  0.00    +0.000 N 
ATOM      5  H   UNL     1       3.413  -0.135   1.424  0.00  0.00    +0.000 HD
BRANCH   3   6
ATOM      6  C   UNL     1       4.170   0.207  -1.007  0.00  0.00    +0.000 A 
ATOM      7  C   UNL     1       4.131   0.302  -2.390  0.00  0.00    +0.000 A 
ATOM      8  S   UNL     1       5.050  -0.899  -3.178  0.00  0.00    +0.000 S 
ATOM      9  C   UNL     1       5.555  -1.561  -1.694  0.00  0.00    +0.000 A 
ATOM     10  N   UNL     1       6.410  -2.617  -1.656  0.00  0.00    +0.000 NA
ATOM     11  C   UNL     1       6.733  -2.999  -0.467  0.00  0.00    +0.000 A 
ATOM     12  N   UNL     1       6.264  -2.429   0.690  0.00  0.00    +0.000 N 
ATOM     13  C   UNL     1       5.349  -1.410   0.704  0.00  0.00    +0.000 A 
ATOM     14  O   UNL     1       4.866  -0.991   1.751  0.00  0.00    +0.000 OA
ATOM     15  C   UNL     1       4.997  -0.908  -0.613  0.00  0.00    +0.000 A 
ATOM     16  H   UNL     1       6.531  -2.800   1.593  0.00  0.00    +0.000 HD
ENDBRANCH   3   6
ENDBRANCH   1   4
BRANCH   1  17
ATOM     17  C   UNL     1       3.208   2.369   2.918  0.00  0.00    +0.000 C 
BRANCH  17  18
ATOM     18  N   UNL     1       2.458   3.294   3.794  0.00  0.00    +0.000 NA
ATOM     19  C   UNL     1       1.747   4.329   3.025  0.00  0.00    +0.000 C 
ATOM     20  C   UNL     1       2.769   5.431   2.864  0.00  0.00    +0.000 C 
ATOM     21  C   UNL     1       3.379   5.523   4.272  0.00  0.00    +0.000 C 
ATOM     22  C   UNL     1       3.371   4.034   4.708  0.00  0.00    +0.000 C 
BRANCH  21  23
ATOM     23  C   UNL     1       4.807   6.089   4.195  0.00  0.00    +0.000 C 
BRANCH  23  24
ATOM     24  O   UNL     1       4.822   7.384   3.603  0.00  0.00    +0.000 OA
ATOM     25  H   UNL     1       4.690   7.267   2.641  0.00  0.00    +0.000 HD
ENDBRANCH  23  24
ENDBRANCH  21  23
BRANCH  21  26
ATOM     26  C   UNL     1       2.444   6.413   5.160  0.00  0.00    +0.000 C 
BRANCH  26  27
ATOM     27  C   UNL     1       2.917   6.657   6.575  0.00  0.00    +0.000 A 
ATOM     28  C   UNL     1       3.749   7.747   6.864  0.00  0.00    +0.000 A 
ATOM     29  C   UNL     1       4.270   7.921   8.146  0.00  0.00    +0.000 A 
ATOM     30  C   UNL     1       3.945   7.022   9.159  0.00  0.00    +0.000 A 
ATOM     31  C   UNL     1       3.077   5.964   8.897  0.00  0.00    +0.000 A 
ATOM     32  C   UNL     1       2.560   5.787   7.614  0.00  0.00    +0.000 A 
ENDBRANCH  26  27
ENDBRANCH  21  26
ENDBRANCH  17  18
ENDBRANCH   1  17
TORSDOF 8
