REMARK  Name = 
REMARK  5 active torsions:
REMARK  status: ('A' for Active; 'I' for Inactive)
REMARK    1  A    between atoms: N_1  and  C_2
REMARK    2  A    between atoms: C_2  and  C_3
REMARK    3  A    between atoms: C_6  and  O_7
REMARK    4  A    between atoms: O_7  and  C_8
REMARK    5  A    between atoms: C_8  and  C_9
REMARK                            x       y       z     vdW  Elec       q    Type
REMARK                         _______ _______ _______ _____ _____    ______ ____
ROOT
ATOM      1  C   UNL     1       3.686  -1.165  -0.357  0.00  0.00    +0.000 A 
ATOM      2  C   UNL     1       4.318  -0.903  -1.579  0.00  0.00    +0.000 A 
ATOM      3  C   UNL     1       4.536  -1.923  -2.514  0.00  0.00    +0.000 A 
ATOM      4  C   UNL     1       4.127  -3.227  -2.239  0.00  0.00    +0.000 A 
ATOM      5  C   UNL     1       3.485  -3.492  -1.026  0.00  0.00    +0.000 A 
ATOM      6  C   UNL     1       3.265  -2.473  -0.093  0.00  0.00    +0.000 A 
ENDROOT
BRANCH   1   7
ATOM      7  C   UNL     1       3.503  -0.071   0.666  0.00  0.00    +0.000 C 
BRANCH   7   8
ATOM      8  N   UNL     1       2.715   1.041   0.146  0.00  0.00    +0.000 NA
ATOM      9  H   UNL     1       2.573   1.723   0.889  0.00  0.00    +0.000 HD
ATOM     10  H   UNL     1       1.790   0.695  -0.107  0.00  0.00    +0.000 HD
ENDBRANCH   7   8
ENDBRANCH   1   7
BRANCH   4  11
ATOM     11  O   UNL     1       4.301  -4.318  -3.048  0.00  0.00    +0.000 OA
BRANCH  11  12
ATOM     12  C   UNL     1       4.938  -4.094  -4.314  0.00  0.00    +0.000 C 
BRANCH  12  13
ATOM     13  C   UNL     1       5.060  -5.437  -5.070  0.00  0.00    +0.000 C 
ATOM     14  C   UNL     1       5.781  -5.236  -6.413  0.00  0.00    +0.000 C 
ATOM     15  C   UNL     1       5.867  -6.540  -7.205  0.00  0.00    +0.000 C 
ATOM     16  C   UNL     1       4.490  -7.186  -7.332  0.00  0.00    +0.000 C 
ATOM     17  C   UNL     1       3.823  -7.328  -5.967  0.00  0.00    +0.000 C 
ATOM     18  N   UNL     1       3.728  -6.032  -5.298  0.00  0.00    +0.000 NA
ATOM     19  H   UNL     1       3.270  -6.139  -4.390  0.00  0.00    +0.000 HD
ENDBRANCH  12  13
ENDBRANCH  11  12
ENDBRANCH   4  11
TORSDOF 5
