REMARK  Name = 
REMARK  4 active torsions:
REMARK  status: ('A' for Active; 'I' for Inactive)
REMARK    1  A    between atoms: C_2  and  C_4
REMARK    2  A    between atoms: N_8  and  C_9
REMARK    3  A    between atoms: C_9  and  C_10
REMARK    4  A    between atoms: C_14  and  C_15
REMARK                            x       y       z     vdW  Elec       q    Type
REMARK                         _______ _______ _______ _____ _____    ______ ____
ROOT
ATOM      1  C   UNL     1       4.901   3.343  -5.012  0.00  0.00    +0.000 C 
ENDROOT
BRANCH   1   6
ATOM      2  C   UNL     1       0.319   1.777  -6.726  0.00  0.00    +0.000 A 
ATOM      3  C   UNL     1       1.354   1.023  -6.184  0.00  0.00    +0.000 A 
ATOM      4  C   UNL     1       2.462   1.678  -5.644  0.00  0.00    +0.000 A 
ATOM      5  C   UNL     1       2.524   3.066  -5.668  0.00  0.00    +0.000 A 
ATOM      6  N   UNL     1       3.524   3.792  -5.060  0.00  0.00    +0.000 N 
ATOM      7  N   UNL     1       1.540   3.803  -6.219  0.00  0.00    +0.000 NA
ATOM      8  C   UNL     1       0.468   3.153  -6.745  0.00  0.00    +0.000 A 
ATOM      9  H   UNL     1       3.381   4.770  -5.295  0.00  0.00    +0.000 HD
BRANCH   2  11
ATOM     10  N   UNL     1      -1.294  -0.033  -6.723  0.00  0.00    +0.000 N 
ATOM     11  C   UNL     1      -0.914   1.166  -7.260  0.00  0.00    +0.000 C 
ATOM     12  O   UNL     1      -1.590   1.725  -8.113  0.00  0.00    +0.000 OA
ATOM     13  H   UNL     1      -2.196  -0.391  -7.010  0.00  0.00    +0.000 HD
ATOM     14  H   UNL     1      -0.914  -0.381  -5.852  0.00  0.00    +0.000 HD
ENDBRANCH   2  11
ENDBRANCH   1   6
BRANCH   1  15
ATOM     15  C   UNL     1       5.670   3.695  -6.254  0.00  0.00    +0.000 A 
ATOM     16  C   UNL     1       6.317   2.721  -6.999  0.00  0.00    +0.000 A 
ATOM     17  N   UNL     1       7.089   2.982  -8.075  0.00  0.00    +0.000 NA
ATOM     18  C   UNL     1       7.212   4.285  -8.433  0.00  0.00    +0.000 A 
ATOM     19  C   UNL     1       6.603   5.361  -7.785  0.00  0.00    +0.000 A 
ATOM     20  C   UNL     1       5.823   5.027  -6.667  0.00  0.00    +0.000 A 
BRANCH  19  21
ATOM     21  C   UNL     1       6.760   6.760  -8.238  0.00  0.00    +0.000 A 
ATOM     22  C   UNL     1       6.881   7.080  -9.605  0.00  0.00    +0.000 A 
ATOM     23  C   UNL     1       7.012   8.405 -10.041  0.00  0.00    +0.000 A 
ATOM     24  C   UNL     1       7.014   9.443  -9.116  0.00  0.00    +0.000 A 
ATOM     25  C   UNL     1       6.894   9.146  -7.766  0.00  0.00    +0.000 A 
ATOM     26  F   UNL     1       6.889  10.141  -6.870  0.00  0.00    +0.000 F 
ATOM     27  C   UNL     1       6.776   7.830  -7.326  0.00  0.00    +0.000 A 
ENDBRANCH  19  21
ENDBRANCH   1  15
TORSDOF 4
