REMARK  Name = 
REMARK  6 active torsions:
REMARK  status: ('A' for Active; 'I' for Inactive)
REMARK    1  A    between atoms: C_2  and  C_3
REMARK    2  A    between atoms: N_7  and  C_8
REMARK    3  A    between atoms: C_8  and  C_9
REMARK    4  A    between atoms: C_9  and  C_12
REMARK    5  A    between atoms: C_16  and  O_17
REMARK    6  A    between atoms: O_17  and  C_18
REMARK                            x       y       z     vdW  Elec       q    Type
REMARK                         _______ _______ _______ _____ _____    ______ ____
ROOT
ATOM      1  C   UNL     1       5.789   1.072  -0.075  0.00  0.00    +0.000 C 
ATOM      2  F   UNL     1       6.626   0.089  -0.522  0.00  0.00    +0.000 F 
ATOM      3  F   UNL     1       4.723   1.056  -0.936  0.00  0.00    +0.000 F 
ENDROOT
BRANCH   1   4
ATOM      4  C   UNL     1       6.475   2.427  -0.043  0.00  0.00    +0.000 A 
ATOM      5  C   UNL     1       5.760   3.605  -0.297  0.00  0.00    +0.000 A 
ATOM      6  C   UNL     1       6.391   4.848  -0.205  0.00  0.00    +0.000 A 
ATOM      7  C   UNL     1       7.745   4.932   0.132  0.00  0.00    +0.000 A 
ATOM      8  C   UNL     1       8.470   3.768   0.372  0.00  0.00    +0.000 A 
ATOM      9  C   UNL     1       7.835   2.525   0.290  0.00  0.00    +0.000 A 
BRANCH   8  10
ATOM     10  O   UNL     1       9.791   3.724   0.737  0.00  0.00    +0.000 OA
BRANCH  10  11
ATOM     11  C   UNL     1      10.648   4.847   0.429  0.00  0.00    +0.000 C 
ATOM     12  C   UNL     1      11.019   5.094  -1.050  0.00  0.00    +0.000 C 
ATOM     13  N   UNL     1      12.434   5.266  -0.664  0.00  0.00    +0.000 NA
ATOM     14  C   UNL     1      12.159   4.574   0.610  0.00  0.00    +0.000 C 
ATOM     15  H   UNL     1      12.716   6.239  -0.548  0.00  0.00    +0.000 HD
ENDBRANCH  10  11
ENDBRANCH   8  10
ENDBRANCH   1   4
BRANCH   1  16
ATOM     16  C   UNL     1       5.274   0.699   1.336  0.00  0.00    +0.000 C 
BRANCH  16  21
ATOM     17  C   UNL     1       2.999  -1.512   5.073  0.00  0.00    +0.000 A 
ATOM     18  C   UNL     1       2.437  -1.930   3.892  0.00  0.00    +0.000 A 
ATOM     19  N   UNL     1       2.944  -1.633   2.673  0.00  0.00    +0.000 NA
ATOM     20  C   UNL     1       4.064  -0.898   2.641  0.00  0.00    +0.000 A 
ATOM     21  N   UNL     1       4.579  -0.594   1.392  0.00  0.00    +0.000 N 
ATOM     22  N   UNL     1       4.680  -0.442   3.743  0.00  0.00    +0.000 NA
ATOM     23  C   UNL     1       4.138  -0.760   4.937  0.00  0.00    +0.000 A 
ATOM     24  H   UNL     1       3.846  -0.735   0.702  0.00  0.00    +0.000 HD
BRANCH  17  26
ATOM     25  N   UNL     1       1.993  -2.053   7.387  0.00  0.00    +0.000 NA
ATOM     26  C   UNL     1       2.443  -1.818   6.344  0.00  0.00    +0.000 C 
ENDBRANCH  17  26
ENDBRANCH  16  21
ENDBRANCH   1  16
TORSDOF 6
