REMARK  Name = 
REMARK  7 active torsions:
REMARK  status: ('A' for Active; 'I' for Inactive)
REMARK    1  A    between atoms: C_1  and  C_2
REMARK    2  A    between atoms: C_2  and  C_3
REMARK    3  A    between atoms: C_7  and  C_8
REMARK    4  A    between atoms: C_8  and  C_9
REMARK    5  A    between atoms: C_9  and  N_10
REMARK    6  A    between atoms: N_10  and  C_11
REMARK    7  A    between atoms: C_14  and  C_15
REMARK                            x       y       z     vdW  Elec       q    Type
REMARK                         _______ _______ _______ _____ _____    ______ ____
ROOT
ATOM      1  C   UNL     1       3.162   3.690  -4.116  0.00  0.00    +0.000 C 
ENDROOT
BRANCH   1   2
ATOM      2  N   UNL     1       3.651   4.971  -4.640  0.00  0.00    +0.000 N 
ATOM      3  H   UNL     1       4.295   4.850  -5.419  0.00  0.00    +0.000 HD
BRANCH   2   4
ATOM      4  C   UNL     1       2.681   5.949  -4.932  0.00  0.00    +0.000 A 
ATOM      5  C   UNL     1       1.475   6.061  -4.228  0.00  0.00    +0.000 A 
ATOM      6  C   UNL     1       0.554   7.075  -4.514  0.00  0.00    +0.000 A 
ATOM      7  C   UNL     1       0.838   8.032  -5.486  0.00  0.00    +0.000 A 
ATOM      8  C   UNL     1       2.055   7.969  -6.170  0.00  0.00    +0.000 A 
ATOM      9  C   UNL     1       2.971   6.945  -5.878  0.00  0.00    +0.000 A 
BRANCH   7  10
ATOM     10  C   UNL     1      -0.188   9.078  -5.752  0.00  0.00    +0.000 C 
ATOM     11  N   UNL     1       0.239  10.266  -6.273  0.00  0.00    +0.000 N 
ATOM     12  O   UNL     1      -1.367   8.903  -5.479  0.00  0.00    +0.000 OA
ATOM     13  H   UNL     1       1.209  10.541  -6.271  0.00  0.00    +0.000 HD
ATOM     14  H   UNL     1      -0.459  10.998  -6.317  0.00  0.00    +0.000 HD
ENDBRANCH   7  10
ENDBRANCH   2   4
ENDBRANCH   1   2
BRANCH   1  15
ATOM     15  C   UNL     1       4.312   2.711  -3.846  0.00  0.00    +0.000 C 
BRANCH  15  20
ATOM     16  C   UNL     1       2.858   0.155  -1.384  0.00  0.00    +0.000 A 
ATOM     17  C   UNL     1       2.555  -0.890  -2.279  0.00  0.00    +0.000 A 
ATOM     18  C   UNL     1       2.844  -0.792  -3.642  0.00  0.00    +0.000 A 
ATOM     19  C   UNL     1       3.438   0.359  -4.149  0.00  0.00    +0.000 A 
ATOM     20  C   UNL     1       3.768   1.411  -3.291  0.00  0.00    +0.000 A 
ATOM     21  C   UNL     1       3.493   1.292  -1.914  0.00  0.00    +0.000 A 
BRANCH  16  23
ATOM     22  C   UNL     1       0.874  -0.027   0.125  0.00  0.00    +0.000 C 
ATOM     23  C   UNL     1       2.412   0.049   0.085  0.00  0.00    +0.000 C 
ATOM     24  C   UNL     1       3.064  -1.151   0.781  0.00  0.00    +0.000 C 
ATOM     25  C   UNL     1       4.306  -0.581   1.452  0.00  0.00    +0.000 C 
ATOM     26  O   UNL     1       4.209   0.848   1.424  0.00  0.00    +0.000 OA
ATOM     27  C   UNL     1       2.874   1.175   1.024  0.00  0.00    +0.000 C 
ENDBRANCH  16  23
ENDBRANCH  15  20
ENDBRANCH   1  15
TORSDOF 6
