REMARK  Name = 
REMARK  4 active torsions:
REMARK  status: ('A' for Active; 'I' for Inactive)
REMARK    1  A    between atoms: C_1  and  C_2
REMARK    2  A    between atoms: C_2  and  N_3
REMARK    3  A    between atoms: C_2  and  C_13
REMARK    4  A    between atoms: C_6  and  C_7
REMARK                            x       y       z     vdW  Elec       q    Type
REMARK                         _______ _______ _______ _____ _____    ______ ____
ROOT
ATOM      1  N   UNL     1       2.842  -1.011  -1.088  0.00  0.00    +0.000 N 
ATOM      2  C   UNL     1       3.102  -2.336  -0.709  0.00  0.00    +0.000 A 
ATOM      3  C   UNL     1       3.318  -3.274  -1.712  0.00  0.00    +0.000 A 
ATOM      4  C   UNL     1       3.557  -4.611  -1.373  0.00  0.00    +0.000 A 
ATOM      5  C   UNL     1       3.598  -4.970  -0.030  0.00  0.00    +0.000 A 
ATOM      6  C   UNL     1       3.372  -3.978   0.903  0.00  0.00    +0.000 A 
ATOM      7  N   UNL     1       3.115  -2.691   0.589  0.00  0.00    +0.000 NA
ATOM      8  H   UNL     1       3.603  -0.685  -1.678  0.00  0.00    +0.000 HD
ENDROOT
BRANCH   4   9
ATOM      9  C   UNL     1       3.742  -5.585  -2.482  0.00  0.00    +0.000 C 
ATOM     10  N   UNL     1       3.939  -6.904  -2.177  0.00  0.00    +0.000 N 
ATOM     11  O   UNL     1       3.712  -5.232  -3.655  0.00  0.00    +0.000 OA
ATOM     12  H   UNL     1       3.952  -7.301  -1.252  0.00  0.00    +0.000 HD
ATOM     13  H   UNL     1       4.026  -7.539  -2.962  0.00  0.00    +0.000 HD
ENDBRANCH   4   9
BRANCH   1  15
ATOM     14  C   UNL     1       1.041  -0.040   0.262  0.00  0.00    +0.000 C 
ATOM     15  C   UNL     1       2.548  -0.064  -0.007  0.00  0.00    +0.000 C 
BRANCH  15  16
ATOM     16  C   UNL     1       3.066   1.315  -0.403  0.00  0.00    +0.000 A 
ATOM     17  C   UNL     1       4.070   1.924   0.369  0.00  0.00    +0.000 A 
ATOM     18  C   UNL     1       4.579   3.176   0.020  0.00  0.00    +0.000 A 
ATOM     19  C   UNL     1       4.094   3.835  -1.107  0.00  0.00    +0.000 A 
ATOM     20  C   UNL     1       3.099   3.245  -1.884  0.00  0.00    +0.000 A 
ATOM     21  C   UNL     1       2.587   1.993  -1.536  0.00  0.00    +0.000 A 
ENDBRANCH  15  16
ENDBRANCH   1  15
TORSDOF 3
