REMARK  Name = 
REMARK  5 active torsions:
REMARK  status: ('A' for Active; 'I' for Inactive)
REMARK    1  A    between atoms: C_1  and  C_2
REMARK    2  A    between atoms: C_4  and  C_5
REMARK    3  A    between atoms: C_10  and  C_11
REMARK    4  A    between atoms: C_11  and  C_12
REMARK    5  A    between atoms: C_15  and  C_16
REMARK                            x       y       z     vdW  Elec       q    Type
REMARK                         _______ _______ _______ _____ _____    ______ ____
ROOT
ATOM      1  C   UNL     1       0.707  -2.364  -0.024  0.00  0.00    +0.000 C 
ATOM      2  C   UNL     1       1.593  -2.961   1.054  0.00  0.00    +0.000 C 
ATOM      3  C   UNL     1       2.049  -2.998  -0.369  0.00  0.00    +0.000 C 
ENDROOT
BRANCH   1  10
ATOM      4  C   UNL     1      -0.380  -0.546   2.220  0.00  0.00    +0.000 C 
ATOM      5  C   UNL     1      -0.057  -0.014   0.847  0.00  0.00    +0.000 A 
ATOM      6  C   UNL     1      -0.423   1.318   0.546  0.00  0.00    +0.000 A 
ATOM      7  C   UNL     1      -0.174   1.868  -0.717  0.00  0.00    +0.000 A 
ATOM      8  C   UNL     1       0.487   1.096  -1.670  0.00  0.00    +0.000 A 
ATOM      9  C   UNL     1       0.852  -0.218  -1.380  0.00  0.00    +0.000 A 
ATOM     10  C   UNL     1       0.557  -0.827  -0.141  0.00  0.00    +0.000 A 
BRANCH   7  11
ATOM     11  C   UNL     1      -0.570   3.250  -1.100  0.00  0.00    +0.000 C 
ATOM     12  N   UNL     1      -1.540   3.870  -0.363  0.00  0.00    +0.000 N 
ATOM     13  O   UNL     1      -0.072   3.815  -2.066  0.00  0.00    +0.000 OA
ATOM     14  H   UNL     1      -2.155   3.371   0.256  0.00  0.00    +0.000 HD
ATOM     15  H   UNL     1      -1.865   4.759  -0.729  0.00  0.00    +0.000 HD
ENDBRANCH   7  11
ENDBRANCH   1  10
BRANCH   1  16
ATOM     16  C   UNL     1      -0.562  -3.074  -0.498  0.00  0.00    +0.000 A 
ATOM     17  C   UNL     1      -1.530  -3.559   0.384  0.00  0.00    +0.000 A 
ATOM     18  C   UNL     1      -2.854  -3.683  -0.037  0.00  0.00    +0.000 A 
ATOM     19  C   UNL     1      -3.187  -3.348  -1.347  0.00  0.00    +0.000 A 
ATOM     20  N   UNL     1      -2.223  -3.113  -2.281  0.00  0.00    +0.000 NA
ATOM     21  C   UNL     1      -0.953  -2.993  -1.837  0.00  0.00    +0.000 A 
BRANCH  19  22
ATOM     22  C   UNL     1      -4.631  -3.039  -1.710  0.00  0.00    +0.000 C 
ATOM     23  F   UNL     1      -5.485  -3.170  -0.649  0.00  0.00    +0.000 F 
ATOM     24  F   UNL     1      -4.799  -1.753  -2.138  0.00  0.00    +0.000 F 
ATOM     25  F   UNL     1      -5.139  -3.835  -2.690  0.00  0.00    +0.000 F 
ENDBRANCH  19  22
ENDBRANCH   1  16
TORSDOF 4
