REMARK  Name = 
REMARK  8 active torsions:
REMARK  status: ('A' for Active; 'I' for Inactive)
REMARK    1  A    between atoms: C_1  and  C_2
REMARK    2  A    between atoms: C_2  and  C_3
REMARK    3  A    between atoms: C_3  and  N_4
REMARK    4  A    between atoms: C_3  and  C_17
REMARK    5  A    between atoms: C_5  and  C_7
REMARK    6  A    between atoms: C_20  and  C_21
REMARK    7  A    between atoms: C_21  and  N_22
REMARK    8  A    between atoms: C_23  and  C_25
REMARK                            x       y       z     vdW  Elec       q    Type
REMARK                         _______ _______ _______ _____ _____    ______ ____
ROOT
ATOM      1  C   UNL     1       3.045  -1.003   0.833  0.00  0.00    +0.000 C 
ENDROOT
BRANCH   1   2
ATOM      2  C   UNL     1       4.562  -1.075   0.966  0.00  0.00    +0.000 A 
ATOM      3  C   UNL     1       5.153  -0.915   2.230  0.00  0.00    +0.000 A 
ATOM      4  C   UNL     1       6.546  -0.902   2.384  0.00  0.00    +0.000 A 
ATOM      5  C   UNL     1       7.390  -1.052   1.277  0.00  0.00    +0.000 A 
ATOM      6  C   UNL     1       6.805  -1.270   0.021  0.00  0.00    +0.000 A 
ATOM      7  C   UNL     1       5.410  -1.274  -0.134  0.00  0.00    +0.000 A 
BRANCH   5   8
ATOM      8  C   UNL     1       8.891  -0.959   1.430  0.00  0.00    +0.000 C 
BRANCH   8   9
ATOM      9  N   UNL     1       9.498  -2.235   1.719  0.00  0.00    +0.000 N 
ATOM     10  C   UNL     1      10.866  -2.372   1.835  0.00  0.00    +0.000 C 
ATOM     11  O   UNL     1      11.637  -1.431   1.673  0.00  0.00    +0.000 OA
ATOM     12  H   UNL     1       8.897  -3.009   1.963  0.00  0.00    +0.000 HD
BRANCH  10  13
ATOM     13  C   UNL     1      11.324  -3.707   2.164  0.00  0.00    +0.000 A 
ATOM     14  C   UNL     1      10.640  -4.896   2.362  0.00  0.00    +0.000 A 
ATOM     15  C   UNL     1      11.588  -5.909   2.660  0.00  0.00    +0.000 A 
ATOM     16  C   UNL     1      12.830  -5.326   2.637  0.00  0.00    +0.000 A 
ATOM     17  N   UNL     1      12.668  -4.000   2.334  0.00  0.00    +0.000 N 
ATOM     18  H   UNL     1      13.407  -3.316   2.238  0.00  0.00    +0.000 HD
ENDBRANCH  10  13
ENDBRANCH   8   9
ENDBRANCH   5   8
ENDBRANCH   1   2
BRANCH   1  19
ATOM     19  N   UNL     1       2.525  -2.290   0.386  0.00  0.00    +0.000 N 
ATOM     20  C   UNL     1       1.269  -2.733   0.746  0.00  0.00    +0.000 C 
ATOM     21  O   UNL     1       0.530  -2.091   1.481  0.00  0.00    +0.000 OA
ATOM     22  H   UNL     1       3.100  -2.851  -0.222  0.00  0.00    +0.000 HD
BRANCH  20  23
ATOM     23  C   UNL     1       0.870  -4.014   0.154  0.00  0.00    +0.000 A 
ATOM     24  C   UNL     1       1.254  -4.429  -1.112  0.00  0.00    +0.000 A 
ATOM     25  S   UNL     1       0.585  -5.935  -1.563  0.00  0.00    +0.000 S 
ATOM     26  C   UNL     1      -0.257  -6.067  -0.090  0.00  0.00    +0.000 A 
ATOM     27  N   UNL     1      -1.058  -7.138   0.164  0.00  0.00    +0.000 NA
ATOM     28  C   UNL     1      -1.651  -7.093   1.311  0.00  0.00    +0.000 A 
ATOM     29  N   UNL     1      -1.505  -6.085   2.229  0.00  0.00    +0.000 N 
ATOM     30  C   UNL     1      -0.649  -5.020   2.050  0.00  0.00    +0.000 A 
ATOM     31  O   UNL     1      -0.439  -4.232   2.964  0.00  0.00    +0.000 OA
ATOM     32  C   UNL     1      -0.011  -4.992   0.744  0.00  0.00    +0.000 A 
ATOM     33  H   UNL     1      -1.958  -6.132   3.129  0.00  0.00    +0.000 HD
ENDBRANCH  20  23
ENDBRANCH   1  19
BRANCH   1  35
ATOM     34  C   UNL     1       2.999   1.521   0.301  0.00  0.00    +0.000 C 
ATOM     35  C   UNL     1       2.553   0.121  -0.107  0.00  0.00    +0.000 C 
ENDBRANCH   1  35
TORSDOF 7
