REMARK  Name = 
REMARK  6 active torsions:
REMARK  status: ('A' for Active; 'I' for Inactive)
REMARK    1  A    between atoms: C_2  and  C_25
REMARK    2  A    between atoms: N_3  and  C_4
REMARK    3  A    between atoms: C_4  and  C_5
REMARK    4  A    between atoms: C_8  and  C_9
REMARK    5  A    between atoms: C_9  and  N_10
REMARK    6  A    between atoms: C_11  and  C_13
REMARK                            x       y       z     vdW  Elec       q    Type
REMARK                         _______ _______ _______ _____ _____    ______ ____
ROOT
ATOM      1  C   UNL     1       3.188   0.190   3.720  0.00  0.00    +0.000 A 
ATOM      2  C   UNL     1       3.582   1.438   4.220  0.00  0.00    +0.000 A 
ATOM      3  C   UNL     1       4.441   1.527   5.321  0.00  0.00    +0.000 A 
ATOM      4  C   UNL     1       4.940   0.368   5.931  0.00  0.00    +0.000 A 
ATOM      5  C   UNL     1       4.537  -0.879   5.437  0.00  0.00    +0.000 A 
ATOM      6  C   UNL     1       3.679  -0.968   4.337  0.00  0.00    +0.000 A 
ENDROOT
BRANCH   1   7
ATOM      7  C   UNL     1       2.240   0.094   2.555  0.00  0.00    +0.000 C 
BRANCH   7  10
ATOM      8  O   UNL     1       0.960  -0.098   0.055  0.00  0.00    +0.000 OA
ATOM      9  C   UNL     1       2.178  -0.023   0.120  0.00  0.00    +0.000 C 
ATOM     10  N   UNL     1       2.910   0.081   1.281  0.00  0.00    +0.000 N 
ATOM     11  H   UNL     1       3.922   0.147   1.211  0.00  0.00    +0.000 HD
BRANCH   9  12
ATOM     12  C   UNL     1       2.990  -0.046  -1.147  0.00  0.00    +0.000 C 
ATOM     13  C   UNL     1       2.370  -0.143  -2.476  0.00  0.00    +0.000 C 
ATOM     14  C   UNL     1       3.488  -0.108  -3.363  0.00  0.00    +0.000 C 
ATOM     15  C   UNL     1       4.568  -0.005  -2.574  0.00  0.00    +0.000 C 
ATOM     16  N   UNL     1       4.300   0.034  -1.211  0.00  0.00    +0.000 NA
ENDBRANCH   9  12
ENDBRANCH   7  10
ENDBRANCH   1   7
BRANCH   4  17
ATOM     17  C   UNL     1       5.865   0.454   7.118  0.00  0.00    +0.000 C 
BRANCH  17  18
ATOM     18  N   UNL     1       5.131   0.450   8.358  0.00  0.00    +0.000 N 
ATOM     19  C   UNL     1       5.767   0.608   9.563  0.00  0.00    +0.000 C 
ATOM     20  O   UNL     1       6.977   0.808   9.638  0.00  0.00    +0.000 OA
ATOM     21  H   UNL     1       4.194   0.061   8.336  0.00  0.00    +0.000 HD
BRANCH  19  22
ATOM     22  C   UNL     1       4.920   0.586  10.763  0.00  0.00    +0.000 A 
ATOM     23  C   UNL     1       5.363   1.197  11.929  0.00  0.00    +0.000 A 
ATOM     24  S   UNL     1       4.236   1.130  13.208  0.00  0.00    +0.000 S 
ATOM     25  C   UNL     1       3.138   0.235  12.266  0.00  0.00    +0.000 A 
ATOM     26  N   UNL     1       1.949  -0.177  12.782  0.00  0.00    +0.000 NA
ATOM     27  C   UNL     1       1.228  -0.875  11.968  0.00  0.00    +0.000 A 
ATOM     28  N   UNL     1       1.586  -1.193  10.684  0.00  0.00    +0.000 N 
ATOM     29  C   UNL     1       2.764  -0.774  10.112  0.00  0.00    +0.000 A 
ATOM     30  O   UNL     1       3.036  -1.044   8.946  0.00  0.00    +0.000 OA
ATOM     31  C   UNL     1       3.617   0.005  10.988  0.00  0.00    +0.000 A 
ATOM     32  H   UNL     1       0.973  -1.737  10.095  0.00  0.00    +0.000 HD
ENDBRANCH  19  22
ENDBRANCH  17  18
ENDBRANCH   4  17
TORSDOF 6
