REMARK  Name = 
REMARK  8 active torsions:
REMARK  status: ('A' for Active; 'I' for Inactive)
REMARK    1  A    between atoms: C_2  and  C_20
REMARK    2  A    between atoms: N_3  and  C_4
REMARK    3  A    between atoms: C_4  and  C_5
REMARK    4  A    between atoms: C_8  and  C_9
REMARK    5  A    between atoms: C_9  and  C_10
REMARK    6  A    between atoms: C_10  and  C_11
REMARK    7  A    between atoms: C_11  and  N_12
REMARK    8  A    between atoms: C_15  and  O_16
REMARK                            x       y       z     vdW  Elec       q    Type
REMARK                         _______ _______ _______ _____ _____    ______ ____
ROOT
ATOM      1  C   UNL     1       2.293  -1.416  -2.057  0.00  0.00    +0.000 C 
ENDROOT
BRANCH   1   2
ATOM      2  C   UNL     1       3.244  -2.082  -3.015  0.00  0.00    +0.000 A 
ATOM      3  C   UNL     1       4.161  -1.302  -3.721  0.00  0.00    +0.000 A 
ATOM      4  C   UNL     1       5.036  -1.890  -4.631  0.00  0.00    +0.000 A 
ATOM      5  C   UNL     1       5.037  -3.276  -4.853  0.00  0.00    +0.000 A 
ATOM      6  C   UNL     1       4.087  -4.051  -4.176  0.00  0.00    +0.000 A 
ATOM      7  C   UNL     1       3.197  -3.460  -3.266  0.00  0.00    +0.000 A 
BRANCH   5   8
ATOM      8  C   UNL     1       6.004  -3.922  -5.829  0.00  0.00    +0.000 C 
BRANCH   8   9
ATOM      9  C   UNL     1       7.352  -3.192  -5.902  0.00  0.00    +0.000 C 
BRANCH   9  10
ATOM     10  C   UNL     1       8.374  -3.844  -6.835  0.00  0.00    +0.000 C 
BRANCH  10  11
ATOM     11  N   UNL     1       9.609  -3.044  -6.896  0.00  0.00    +0.000 NA
ATOM     12  C   UNL     1      10.602  -3.615  -7.814  0.00  0.00    +0.000 C 
ATOM     13  C   UNL     1      11.974  -3.238  -7.250  0.00  0.00    +0.000 C 
ATOM     14  C   UNL     1      11.681  -2.440  -5.992  0.00  0.00    +0.000 C 
ATOM     15  C   UNL     1      10.283  -2.899  -5.594  0.00  0.00    +0.000 C 
BRANCH  14  16
ATOM     16  O   UNL     1      11.682  -1.045  -6.301  0.00  0.00    +0.000 OA
ATOM     17  H   UNL     1      10.890  -0.898  -6.854  0.00  0.00    +0.000 HD
ENDBRANCH  14  16
ENDBRANCH  10  11
ENDBRANCH   9  10
ENDBRANCH   8   9
ENDBRANCH   5   8
ENDBRANCH   1   2
BRANCH   1  20
ATOM     18  O   UNL     1       1.754   1.145  -3.116  0.00  0.00    +0.000 OA
ATOM     19  C   UNL     1       0.940   0.242  -3.285  0.00  0.00    +0.000 C 
ATOM     20  N   UNL     1       1.091  -1.005  -2.736  0.00  0.00    +0.000 N 
ATOM     21  H   UNL     1       0.505  -1.760  -3.072  0.00  0.00    +0.000 HD
BRANCH  19  22
ATOM     22  C   UNL     1      -0.296   0.461  -4.049  0.00  0.00    +0.000 A 
ATOM     23  C   UNL     1      -0.782   1.750  -4.222  0.00  0.00    +0.000 A 
ATOM     24  S   UNL     1      -2.241   1.818  -5.101  0.00  0.00    +0.000 S 
ATOM     25  C   UNL     1      -2.248   0.131  -5.325  0.00  0.00    +0.000 A 
ATOM     26  N   UNL     1      -3.237  -0.475  -6.035  0.00  0.00    +0.000 NA
ATOM     27  C   UNL     1      -3.095  -1.753  -6.165  0.00  0.00    +0.000 A 
ATOM     28  N   UNL     1      -2.061  -2.482  -5.643  0.00  0.00    +0.000 N 
ATOM     29  C   UNL     1      -1.081  -1.924  -4.855  0.00  0.00    +0.000 A 
ATOM     30  O   UNL     1      -0.245  -2.624  -4.296  0.00  0.00    +0.000 OA
ATOM     31  C   UNL     1      -1.166  -0.480  -4.716  0.00  0.00    +0.000 A 
ATOM     32  H   UNL     1      -2.019  -3.483  -5.759  0.00  0.00    +0.000 HD
ENDBRANCH  19  22
ENDBRANCH   1  20
TORSDOF 8
