REMARK  Name = 
REMARK  5 active torsions:
REMARK  status: ('A' for Active; 'I' for Inactive)
REMARK    1  A    between atoms: N_1  and  C_2
REMARK    2  A    between atoms: C_2  and  C_3
REMARK    3  A    between atoms: C_6  and  C_7
REMARK    4  A    between atoms: C_7  and  C_8
REMARK    5  A    between atoms: C_8  and  C_9
REMARK                            x       y       z     vdW  Elec       q    Type
REMARK                         _______ _______ _______ _____ _____    ______ ____
ROOT
ATOM      1  C   UNL     1       2.952  -1.309   0.201  0.00  0.00    +0.000 A 
ATOM      2  C   UNL     1       4.160  -1.526   0.876  0.00  0.00    +0.000 A 
ATOM      3  C   UNL     1       4.653  -2.820   1.068  0.00  0.00    +0.000 A 
ATOM      4  C   UNL     1       3.939  -3.936   0.613  0.00  0.00    +0.000 A 
ATOM      5  C   UNL     1       2.739  -3.714  -0.083  0.00  0.00    +0.000 A 
ATOM      6  C   UNL     1       2.250  -2.419  -0.281  0.00  0.00    +0.000 A 
ENDROOT
BRANCH   1   7
ATOM      7  C   UNL     1       2.422   0.088   0.008  0.00  0.00    +0.000 C 
BRANCH   7   8
ATOM      8  N   UNL     1       3.346   0.914  -0.761  0.00  0.00    +0.000 NA
ATOM      9  H   UNL     1       2.893   1.796  -0.992  0.00  0.00    +0.000 HD
ATOM     10  H   UNL     1       3.542   0.448  -1.646  0.00  0.00    +0.000 HD
ENDBRANCH   7   8
ENDBRANCH   1   7
BRANCH   4  11
ATOM     11  C   UNL     1       4.441  -5.358   0.775  0.00  0.00    +0.000 C 
BRANCH  11  12
ATOM     12  C   UNL     1       5.259  -5.615   2.045  0.00  0.00    +0.000 C 
BRANCH  12  13
ATOM     13  C   UNL     1       5.729  -7.044   2.159  0.00  0.00    +0.000 A 
ATOM     14  C   UNL     1       4.965  -8.004   2.821  0.00  0.00    +0.000 A 
ATOM     15  C   UNL     1       5.465  -9.299   2.938  0.00  0.00    +0.000 A 
ATOM     16  C   UNL     1       6.708  -9.599   2.393  0.00  0.00    +0.000 A 
ATOM     17  C   UNL     1       7.395  -8.588   1.747  0.00  0.00    +0.000 A 
ATOM     18  F   UNL     1       8.599  -8.867   1.227  0.00  0.00    +0.000 F 
ATOM     19  N   UNL     1       6.934  -7.328   1.612  0.00  0.00    +0.000 NA
ENDBRANCH  12  13
ENDBRANCH  11  12
ENDBRANCH   4  11
TORSDOF 5
