REMARK  Name = 
REMARK  8 active torsions:
REMARK  status: ('A' for Active; 'I' for Inactive)
REMARK    1  A    between atoms: C_1  and  C_2
REMARK    2  A    between atoms: C_4  and  C_5
REMARK    3  A    between atoms: C_10  and  N_11
REMARK    4  A    between atoms: N_11  and  C_12
REMARK    5  A    between atoms: C_12  and  C_13
REMARK    6  A    between atoms: C_13  and  C_14
REMARK    7  A    between atoms: C_13  and  C_15
REMARK    8  A    between atoms: C_19  and  C_20
REMARK                            x       y       z     vdW  Elec       q    Type
REMARK                         _______ _______ _______ _____ _____    ______ ____
ROOT
ATOM      1  N   UNL     1       1.085  -2.223   0.414  0.00  0.00    +0.000 N 
ATOM      2  H   UNL     1       0.591  -2.913   0.971  0.00  0.00    +0.000 HD
ENDROOT
BRANCH   1   9
ATOM      3  C   UNL     1      -1.688  -1.720   1.164  0.00  0.00    +0.000 C 
ATOM      4  C   UNL     1      -0.686  -0.624   0.908  0.00  0.00    +0.000 A 
ATOM      5  C   UNL     1      -1.134   0.713   0.971  0.00  0.00    +0.000 A 
ATOM      6  C   UNL     1      -0.269   1.787   0.736  0.00  0.00    +0.000 A 
ATOM      7  C   UNL     1       1.068   1.516   0.458  0.00  0.00    +0.000 A 
ATOM      8  C   UNL     1       1.516   0.189   0.384  0.00  0.00    +0.000 A 
ATOM      9  C   UNL     1       0.667  -0.905   0.612  0.00  0.00    +0.000 A 
BRANCH   6  10
ATOM     10  C   UNL     1      -0.837   3.168   0.768  0.00  0.00    +0.000 C 
ATOM     11  N   UNL     1      -0.007   4.227   0.526  0.00  0.00    +0.000 N 
ATOM     12  O   UNL     1      -2.025   3.367   0.992  0.00  0.00    +0.000 OA
ATOM     13  H   UNL     1       0.973   4.164   0.300  0.00  0.00    +0.000 HD
ATOM     14  H   UNL     1      -0.435   5.143   0.521  0.00  0.00    +0.000 HD
ENDBRANCH   6  10
ENDBRANCH   1   9
BRANCH   1  15
ATOM     15  C   UNL     1       2.474  -2.547   0.089  0.00  0.00    +0.000 C 
BRANCH  15  16
ATOM     16  C   UNL     1       2.708  -4.061  -0.156  0.00  0.00    +0.000 C 
ATOM     17  C   UNL     1       1.763  -4.572  -1.256  0.00  0.00    +0.000 C 
BRANCH  16  18
ATOM     18  C   UNL     1       2.729  -4.974   1.072  0.00  0.00    +0.000 A 
ATOM     19  C   UNL     1       2.578  -4.503   2.384  0.00  0.00    +0.000 A 
ATOM     20  C   UNL     1       2.694  -5.367   3.480  0.00  0.00    +0.000 A 
ATOM     21  C   UNL     1       2.950  -6.723   3.285  0.00  0.00    +0.000 A 
ATOM     22  C   UNL     1       3.089  -7.223   1.991  0.00  0.00    +0.000 A 
ATOM     23  C   UNL     1       2.996  -6.348   0.898  0.00  0.00    +0.000 A 
BRANCH  22  24
ATOM     24  C   UNL     1       3.324  -8.622   1.773  0.00  0.00    +0.000 C 
ATOM     25  N   UNL     1       3.501  -9.754   1.590  0.00  0.00    +0.000 NA
ENDBRANCH  22  24
ENDBRANCH  16  18
ENDBRANCH  15  16
ENDBRANCH   1  15
TORSDOF 6
