REMARK  Name = 
REMARK  10 active torsions:
REMARK  status: ('A' for Active; 'I' for Inactive)
REMARK    1  A    between atoms: C_1  and  C_2
REMARK    2  A    between atoms: C_2  and  O_3
REMARK    3  A    between atoms: C_5  and  O_6
REMARK    4  A    between atoms: O_6  and  C_7
REMARK    5  A    between atoms: C_9  and  C_10
REMARK    6  A    between atoms: C_15  and  C_16
REMARK    7  A    between atoms: C_16  and  C_19
REMARK    8  A    between atoms: C_19  and  N_20
REMARK    9  A    between atoms: N_20  and  C_21
REMARK   10  A    between atoms: C_24  and  C_25
REMARK                            x       y       z     vdW  Elec       q    Type
REMARK                         _______ _______ _______ _____ _____    ______ ____
ROOT
ATOM      1  C   UNL     1       6.323  -0.896   0.682  0.00  0.00    +0.000 A 
ATOM      2  C   UNL     1       6.035  -2.255   0.631  0.00  0.00    +0.000 A 
ATOM      3  C   UNL     1       7.068  -3.203   0.706  0.00  0.00    +0.000 A 
ATOM      4  C   UNL     1       8.401  -2.758   0.830  0.00  0.00    +0.000 A 
ATOM      5  C   UNL     1       8.710  -1.387   0.852  0.00  0.00    +0.000 A 
ATOM      6  C   UNL     1       7.645  -0.473   0.779  0.00  0.00    +0.000 A 
ENDROOT
BRANCH   3   7
ATOM      7  C   UNL     1       6.766  -4.681   0.637  0.00  0.00    +0.000 C 
ATOM      8  F   UNL     1       5.450  -4.962   0.428  0.00  0.00    +0.000 F 
ATOM      9  F   UNL     1       7.443  -5.300  -0.370  0.00  0.00    +0.000 F 
ATOM     10  F   UNL     1       7.112  -5.337   1.779  0.00  0.00    +0.000 F 
ENDBRANCH   3   7
BRANCH   5  11
ATOM     11  C   UNL     1      10.169  -0.937   0.925  0.00  0.00    +0.000 C 
ATOM     12  F   UNL     1      10.781  -1.435   2.040  0.00  0.00    +0.000 F 
ATOM     13  F   UNL     1      10.887  -1.434  -0.130  0.00  0.00    +0.000 F 
BRANCH  11  14
ATOM     14  C   UNL     1      10.328   0.608   0.915  0.00  0.00    +0.000 C 
BRANCH  14  15
ATOM     15  N   UNL     1      11.705   1.121   0.984  0.00  0.00    +0.000 N 
ATOM     16  H   UNL     1      12.377   0.562   0.460  0.00  0.00    +0.000 HD
BRANCH  15  17
ATOM     17  C   UNL     1      11.901   2.501   0.841  0.00  0.00    +0.000 A 
ATOM     18  C   UNL     1      10.867   3.448   0.918  0.00  0.00    +0.000 A 
ATOM     19  C   UNL     1      11.128   4.822   0.865  0.00  0.00    +0.000 A 
ATOM     20  C   UNL     1      12.442   5.284   0.777  0.00  0.00    +0.000 A 
ATOM     21  C   UNL     1      13.487   4.359   0.714  0.00  0.00    +0.000 A 
ATOM     22  C   UNL     1      13.214   2.984   0.755  0.00  0.00    +0.000 A 
BRANCH  20  23
ATOM     23  C   UNL     1      12.670   6.752   0.761  0.00  0.00    +0.000 C 
ATOM     24  N   UNL     1      13.878   7.205   1.208  0.00  0.00    +0.000 N 
ATOM     25  O   UNL     1      11.794   7.534   0.405  0.00  0.00    +0.000 OA
ATOM     26  H   UNL     1      14.510   6.625   1.740  0.00  0.00    +0.000 HD
ATOM     27  H   UNL     1      13.969   8.207   1.306  0.00  0.00    +0.000 HD
ENDBRANCH  20  23
ENDBRANCH  15  17
ENDBRANCH  14  15
ENDBRANCH  11  14
ENDBRANCH   5  11
BRANCH   1  28
ATOM     28  O   UNL     1       5.264  -0.027   0.592  0.00  0.00    +0.000 OA
BRANCH  28  32
ATOM     29  C   UNL     1       3.504   2.618   3.785  0.00  0.00    +0.000 C 
ATOM     30  C   UNL     1       3.953   1.588   2.763  0.00  0.00    +0.000 C 
ATOM     31  C   UNL     1       5.481   1.322   2.749  0.00  0.00    +0.000 C 
ATOM     32  C   UNL     1       5.405   1.283   1.202  0.00  0.00    +0.000 C 
ATOM     33  C   UNL     1       4.108   2.116   1.313  0.00  0.00    +0.000 C 
BRANCH  30  34
ATOM     34  O   UNL     1       3.119   0.415   2.880  0.00  0.00    +0.000 OA
ATOM     35  H   UNL     1       3.350   0.013   3.734  0.00  0.00    +0.000 HD
ENDBRANCH  30  34
ENDBRANCH  28  32
ENDBRANCH   1  28
TORSDOF 9
