REMARK  Name = 
REMARK  5 active torsions:
REMARK  status: ('A' for Active; 'I' for Inactive)
REMARK    1  A    between atoms: N_1  and  C_2
REMARK    2  A    between atoms: C_2  and  C_3
REMARK    3  A    between atoms: C_3  and  C_4
REMARK    4  A    between atoms: C_7  and  C_8
REMARK    5  A    between atoms: C_8  and  N_9
REMARK                            x       y       z     vdW  Elec       q    Type
REMARK                         _______ _______ _______ _____ _____    ______ ____
ROOT
ATOM      1  C   UNL     1       4.628   0.899   0.990  0.00  0.00    +0.000 A 
ATOM      2  C   UNL     1       5.364   1.620   1.940  0.00  0.00    +0.000 A 
ATOM      3  C   UNL     1       6.758   1.569   1.940  0.00  0.00    +0.000 A 
ATOM      4  C   UNL     1       7.448   0.795   0.994  0.00  0.00    +0.000 A 
ATOM      5  C   UNL     1       6.711   0.087   0.038  0.00  0.00    +0.000 A 
ATOM      6  C   UNL     1       5.315   0.146   0.029  0.00  0.00    +0.000 A 
ENDROOT
BRANCH   1   7
ATOM      7  C   UNL     1       3.117   0.917   1.008  0.00  0.00    +0.000 C 
BRANCH   7   8
ATOM      8  C   UNL     1       2.518   2.046   0.161  0.00  0.00    +0.000 C 
BRANCH   8   9
ATOM      9  N   UNL     1       1.053   2.006   0.217  0.00  0.00    +0.000 NA
ATOM     10  H   UNL     1       0.674   2.772  -0.340  0.00  0.00    +0.000 HD
ATOM     11  H   UNL     1       0.739   2.170   1.172  0.00  0.00    +0.000 HD
ENDBRANCH   8   9
ENDBRANCH   7   8
ENDBRANCH   1   7
BRANCH   4  12
ATOM     12  C   UNL     1       8.954   0.773   0.972  0.00  0.00    +0.000 C 
BRANCH  12  13
ATOM     13  N   UNL     1       9.576  -0.291   1.752  0.00  0.00    +0.000 N 
ATOM     14  C   UNL     1       9.277  -0.614   3.050  0.00  0.00    +0.000 A 
ATOM     15  N   UNL     1      10.281  -1.217   3.647  0.00  0.00    +0.000 NA
ATOM     16  C   UNL     1      11.258  -1.324   2.689  0.00  0.00    +0.000 A 
ATOM     17  C   UNL     1      12.573  -1.799   2.801  0.00  0.00    +0.000 A 
ATOM     18  C   UNL     1      13.388  -1.807   1.663  0.00  0.00    +0.000 A 
ATOM     19  C   UNL     1      12.890  -1.391   0.427  0.00  0.00    +0.000 A 
ATOM     20  C   UNL     1      11.585  -0.901   0.298  0.00  0.00    +0.000 A 
ATOM     21  C   UNL     1      10.807  -0.844   1.461  0.00  0.00    +0.000 A 
ENDBRANCH  12  13
ENDBRANCH   4  12
TORSDOF 5
