REMARK  Name = 
REMARK  8 active torsions:
REMARK  status: ('A' for Active; 'I' for Inactive)
REMARK    1  A    between atoms: C_1  and  C_2
REMARK    2  A    between atoms: C_9  and  C_10
REMARK    3  A    between atoms: C_10  and  C_11
REMARK    4  A    between atoms: C_10  and  C_12
REMARK    5  A    between atoms: C_12  and  N_13
REMARK    6  A    between atoms: N_13  and  C_14
REMARK    7  A    between atoms: C_17  and  C_18
REMARK    8  A    between atoms: C_25  and  C_26
REMARK                            x       y       z     vdW  Elec       q    Type
REMARK                         _______ _______ _______ _____ _____    ______ ____
ROOT
ATOM      1  C   UNL     1       2.279   4.688  -5.011  0.00  0.00    +0.000 C 
ATOM      2  C   UNL     1       2.352   5.599  -3.781  0.00  0.00    +0.000 C 
ENDROOT
BRANCH   1  11
ATOM      3  C   UNL     1       2.978   2.309   0.129  0.00  0.00    +0.000 C 
ATOM      4  C   UNL     1       3.864   1.188  -0.414  0.00  0.00    +0.000 C 
ATOM      5  C   UNL     1       3.939   1.175  -1.953  0.00  0.00    +0.000 C 
ATOM      6  N   UNL     1       2.700   0.647  -2.516  0.00  0.00    +0.000 N 
ATOM      7  C   UNL     1       1.942   1.389  -3.376  0.00  0.00    +0.000 A 
ATOM      8  N   UNL     1       0.796   0.887  -3.850  0.00  0.00    +0.000 NA
ATOM      9  C   UNL     1       0.104   1.638  -4.725  0.00  0.00    +0.000 A 
ATOM     10  C   UNL     1       0.503   2.882  -5.152  0.00  0.00    +0.000 A 
ATOM     11  C   UNL     1       1.687   3.341  -4.621  0.00  0.00    +0.000 A 
ATOM     12  N   UNL     1       2.395   2.601  -3.742  0.00  0.00    +0.000 NA
ATOM     13  C   UNL     1       2.241  -0.626  -1.974  0.00  0.00    +0.000 C 
ATOM     14  C   UNL     1       2.213  -0.559  -0.431  0.00  0.00    +0.000 C 
ATOM     15  C   UNL     1       1.945  -1.936   0.164  0.00  0.00    +0.000 C 
ATOM     16  O   UNL     1       3.467  -0.095   0.110  0.00  0.00    +0.000 OA
ENDBRANCH   1  11
BRANCH   1  17
ATOM     17  C   UNL     1       3.666   4.459  -5.648  0.00  0.00    +0.000 C 
BRANCH  17  18
ATOM     18  N   UNL     1       4.309   5.708  -6.105  0.00  0.00    +0.000 N 
ATOM     19  H   UNL     1       4.341   6.414  -5.371  0.00  0.00    +0.000 HD
BRANCH  18  20
ATOM     20  C   UNL     1       5.596   5.555  -6.666  0.00  0.00    +0.000 A 
ATOM     21  C   UNL     1       6.525   6.599  -6.581  0.00  0.00    +0.000 A 
ATOM     22  C   UNL     1       7.793   6.470  -7.159  0.00  0.00    +0.000 A 
ATOM     23  C   UNL     1       8.083   5.301  -7.847  0.00  0.00    +0.000 A 
ATOM     24  N   UNL     1       7.200   4.282  -8.010  0.00  0.00    +0.000 NA
ATOM     25  C   UNL     1       5.987   4.453  -7.433  0.00  0.00    +0.000 A 
BRANCH  23  26
ATOM     26  C   UNL     1       9.435   5.103  -8.460  0.00  0.00    +0.000 C 
ATOM     27  N   UNL     1       9.605   3.902  -9.105  0.00  0.00    +0.000 N 
ATOM     28  O   UNL     1      10.327   5.935  -8.390  0.00  0.00    +0.000 OA
ATOM     29  H   UNL     1       8.838   3.240  -9.131  0.00  0.00    +0.000 HD
ATOM     30  H   UNL     1      10.492   3.685  -9.534  0.00  0.00    +0.000 HD
ENDBRANCH  23  26
ENDBRANCH  18  20
ENDBRANCH  17  18
ENDBRANCH   1  17
TORSDOF 5
