REMARK  Name = 
REMARK  5 active torsions:
REMARK  status: ('A' for Active; 'I' for Inactive)
REMARK    1  A    between atoms: C_2  and  C_4
REMARK    2  A    between atoms: C_7  and  O_8
REMARK    3  A    between atoms: O_8  and  C_9
REMARK    4  A    between atoms: C_9  and  C_10
REMARK    5  A    between atoms: C_12  and  C_13
REMARK                            x       y       z     vdW  Elec       q    Type
REMARK                         _______ _______ _______ _____ _____    ______ ____
ROOT
ATOM      1  C   UNL     1       4.700   4.077  -4.569  0.00  0.00    +0.000 C 
ENDROOT
BRANCH   1   2
ATOM      2  C   UNL     1       5.427   4.641  -5.770  0.00  0.00    +0.000 A 
ATOM      3  C   UNL     1       5.371   6.001  -6.077  0.00  0.00    +0.000 A 
ATOM      4  C   UNL     1       6.031   6.500  -7.210  0.00  0.00    +0.000 A 
ATOM      5  C   UNL     1       6.703   5.566  -8.010  0.00  0.00    +0.000 A 
ATOM      6  C   UNL     1       6.689   4.227  -7.656  0.00  0.00    +0.000 A 
ATOM      7  N   UNL     1       6.068   3.747  -6.562  0.00  0.00    +0.000 NA
BRANCH   4   8
ATOM      8  C   UNL     1       6.034   7.946  -7.538  0.00  0.00    +0.000 A 
ATOM      9  C   UNL     1       6.000   8.931  -6.528  0.00  0.00    +0.000 A 
ATOM     10  C   UNL     1       6.035  10.298  -6.829  0.00  0.00    +0.000 A 
ATOM     11  C   UNL     1       6.117  10.713  -8.153  0.00  0.00    +0.000 A 
ATOM     12  C   UNL     1       6.143   9.760  -9.160  0.00  0.00    +0.000 A 
ATOM     13  F   UNL     1       6.225  10.154 -10.437  0.00  0.00    +0.000 F 
ATOM     14  C   UNL     1       6.093   8.399  -8.867  0.00  0.00    +0.000 A 
ENDBRANCH   4   8
ENDBRANCH   1   2
BRANCH   1  15
ATOM     15  O   UNL     1       4.613   5.032  -3.505  0.00  0.00    +0.000 OA
BRANCH  15  19
ATOM     16  C   UNL     1       2.641   4.034   0.032  0.00  0.00    +0.000 A 
ATOM     17  C   UNL     1       2.722   3.073  -0.981  0.00  0.00    +0.000 A 
ATOM     18  C   UNL     1       3.374   3.371  -2.182  0.00  0.00    +0.000 A 
ATOM     19  C   UNL     1       3.944   4.630  -2.381  0.00  0.00    +0.000 A 
ATOM     20  C   UNL     1       3.842   5.595  -1.374  0.00  0.00    +0.000 A 
ATOM     21  C   UNL     1       3.188   5.304  -0.174  0.00  0.00    +0.000 A 
BRANCH  16  23
ATOM     22  N   UNL     1       1.975   2.437   1.741  0.00  0.00    +0.000 N 
ATOM     23  C   UNL     1       1.968   3.738   1.321  0.00  0.00    +0.000 C 
ATOM     24  O   UNL     1       1.461   4.622   2.001  0.00  0.00    +0.000 OA
ATOM     25  H   UNL     1       1.612   2.265   2.670  0.00  0.00    +0.000 HD
ATOM     26  H   UNL     1       2.597   1.748   1.346  0.00  0.00    +0.000 HD
ENDBRANCH  16  23
ENDBRANCH  15  19
ENDBRANCH   1  15
TORSDOF 5
