REMARK  Name = 
REMARK  8 active torsions:
REMARK  status: ('A' for Active; 'I' for Inactive)
REMARK    1  A    between atoms: C_1  and  O_2
REMARK    2  A    between atoms: O_2  and  C_3
REMARK    3  A    between atoms: C_5  and  C_6
REMARK    4  A    between atoms: C_6  and  N_7
REMARK    5  A    between atoms: C_12  and  C_13
REMARK    6  A    between atoms: C_13  and  O_15
REMARK    7  A    between atoms: C_16  and  C_17
REMARK    8  A    between atoms: C_22  and  C_23
REMARK                            x       y       z     vdW  Elec       q    Type
REMARK                         _______ _______ _______ _____ _____    ______ ____
ROOT
ATOM      1  C   UNL     1       3.064  -2.690   3.931  0.00  0.00    +0.000 C 
ENDROOT
BRANCH   1   2
ATOM      2  N   UNL     1       1.823  -3.305   3.485  0.00  0.00    +0.000 N 
ATOM      3  C   UNL     1       0.577  -3.026   3.998  0.00  0.00    +0.000 A 
ATOM      4  C   UNL     1      -0.341  -3.808   3.333  0.00  0.00    +0.000 A 
ATOM      5  C   UNL     1       0.372  -4.606   2.401  0.00  0.00    +0.000 A 
ATOM      6  C   UNL     1       0.019  -5.559   1.436  0.00  0.00    +0.000 A 
ATOM      7  C   UNL     1       1.047  -6.155   0.688  0.00  0.00    +0.000 A 
ATOM      8  C   UNL     1       2.378  -5.778   0.932  0.00  0.00    +0.000 A 
ATOM      9  C   UNL     1       3.548  -6.331   0.164  0.00  0.00    +0.000 C 
ATOM     10  N   UNL     1       2.744  -4.847   1.859  0.00  0.00    +0.000 NA
ATOM     11  C   UNL     1       1.720  -4.297   2.539  0.00  0.00    +0.000 A 
BRANCH   7  12
ATOM     12  C   UNL     1       0.681  -7.107  -0.389  0.00  0.00    +0.000 C 
ATOM     13  O   UNL     1       1.247  -7.153  -1.466  0.00  0.00    +0.000 OA
BRANCH  12  14
ATOM     14  O   UNL     1      -0.349  -7.925  -0.074  0.00  0.00    +0.000 OA
ATOM     15  H   UNL     1      -0.676  -7.877   0.843  0.00  0.00    +0.000 HD
ENDBRANCH  12  14
ENDBRANCH   7  12
ENDBRANCH   1   2
BRANCH   1  18
ATOM     16  C   UNL     1       4.719  -0.523   1.238  0.00  0.00    +0.000 A 
ATOM     17  C   UNL     1       4.298  -1.631   1.994  0.00  0.00    +0.000 A 
ATOM     18  C   UNL     1       3.439  -1.486   3.098  0.00  0.00    +0.000 A 
ATOM     19  C   UNL     1       2.964  -0.211   3.419  0.00  0.00    +0.000 A 
ATOM     20  C   UNL     1       3.362   0.896   2.664  0.00  0.00    +0.000 A 
ATOM     21  C   UNL     1       4.242   0.758   1.576  0.00  0.00    +0.000 A 
BRANCH  21  22
ATOM     22  C   UNL     1       4.602   2.021   0.850  0.00  0.00    +0.000 C 
ATOM     23  N   UNL     1       5.440   1.939  -0.222  0.00  0.00    +0.000 N 
ATOM     24  O   UNL     1       4.157   3.110   1.200  0.00  0.00    +0.000 OA
ATOM     25  H   UNL     1       5.857   1.058  -0.497  0.00  0.00    +0.000 HD
ATOM     26  H   UNL     1       5.696   2.787  -0.706  0.00  0.00    +0.000 HD
ENDBRANCH  21  22
BRANCH  16  28
ATOM     27  C   UNL     1       5.737  -1.877  -0.448  0.00  0.00    +0.000 C 
ATOM     28  O   UNL     1       5.631  -0.625   0.219  0.00  0.00    +0.000 OA
ENDBRANCH  16  28
ENDBRANCH   1  18
TORSDOF 6
