REMARK  Name = 
REMARK  6 active torsions:
REMARK  status: ('A' for Active; 'I' for Inactive)
REMARK    1  A    between atoms: C_1  and  C_2
REMARK    2  A    between atoms: C_2  and  C_3
REMARK    3  A    between atoms: C_6  and  C_7
REMARK    4  A    between atoms: C_7  and  N_8
REMARK    5  A    between atoms: C_13  and  C_14
REMARK    6  A    between atoms: C_14  and  N_15
REMARK                            x       y       z     vdW  Elec       q    Type
REMARK                         _______ _______ _______ _____ _____    ______ ____
ROOT
ATOM      1  N   UNL     1       5.697  -5.210  -1.707  0.00  0.00    +0.000 N 
ATOM      2  C   UNL     1       6.192  -6.450  -2.068  0.00  0.00    +0.000 A 
ATOM      3  N   UNL     1       7.521  -6.578  -2.069  0.00  0.00    +0.000 NA
ATOM      4  C   UNL     1       8.018  -7.766  -2.465  0.00  0.00    +0.000 A 
ATOM      5  C   UNL     1       7.236  -8.829  -2.840  0.00  0.00    +0.000 A 
ATOM      6  C   UNL     1       5.874  -8.617  -2.790  0.00  0.00    +0.000 A 
ATOM      7  N   UNL     1       5.347  -7.434  -2.406  0.00  0.00    +0.000 NA
ATOM      8  H   UNL     1       6.428  -4.719  -1.204  0.00  0.00    +0.000 HD
ENDROOT
BRANCH   1   9
ATOM      9  C   UNL     1       4.411  -5.252  -1.023  0.00  0.00    +0.000 C 
BRANCH   9  13
ATOM     10  C   UNL     1       3.110  -1.301  -0.192  0.00  0.00    +0.000 A 
ATOM     11  C   UNL     1       2.736  -1.980  -1.332  0.00  0.00    +0.000 A 
ATOM     12  N   UNL     1       3.112  -3.243  -1.609  0.00  0.00    +0.000 NA
ATOM     13  C   UNL     1       3.908  -3.852  -0.704  0.00  0.00    +0.000 A 
ATOM     14  N   UNL     1       4.321  -3.282   0.450  0.00  0.00    +0.000 NA
ATOM     15  C   UNL     1       3.900  -2.021   0.679  0.00  0.00    +0.000 A 
BRANCH  10  17
ATOM     16  C   UNL     1       1.394   0.195   0.871  0.00  0.00    +0.000 C 
ATOM     17  C   UNL     1       2.688   0.110   0.077  0.00  0.00    +0.000 C 
ENDBRANCH  10  17
ENDBRANCH   9  13
ENDBRANCH   1   9
BRANCH   6  18
ATOM     18  C   UNL     1       4.902  -9.704  -3.186  0.00  0.00    +0.000 C 
BRANCH  18  19
ATOM     19  N   UNL     1       5.020 -10.082  -4.597  0.00  0.00    +0.000 NA
ATOM     20  H   UNL     1       4.814  -9.254  -5.158  0.00  0.00    +0.000 HD
ATOM     21  H   UNL     1       4.282 -10.751  -4.815  0.00  0.00    +0.000 HD
ENDBRANCH  18  19
ENDBRANCH   6  18
TORSDOF 5
