REMARK  Name = 
REMARK  6 active torsions:
REMARK  status: ('A' for Active; 'I' for Inactive)
REMARK    1  A    between atoms: C_2  and  C_3
REMARK    2  A    between atoms: C_6  and  N_7
REMARK    3  A    between atoms: N_7  and  C_8
REMARK    4  A    between atoms: C_8  and  C_9
REMARK    5  A    between atoms: C_14  and  C_15
REMARK    6  A    between atoms: C_20  and  O_21
REMARK                            x       y       z     vdW  Elec       q    Type
REMARK                         _______ _______ _______ _____ _____    ______ ____
ROOT
ATOM      1  C   UNL     1       9.518   0.118  -0.619  0.00  0.00    +0.000 A 
ATOM      2  C   UNL     1       9.614   1.147  -1.559  0.00  0.00    +0.000 A 
ATOM      3  C   UNL     1      10.355   2.287  -1.267  0.00  0.00    +0.000 A 
ATOM      4  F   UNL     1      10.369   3.301  -2.144  0.00  0.00    +0.000 F 
ATOM      5  C   UNL     1      11.041   2.423  -0.061  0.00  0.00    +0.000 A 
ATOM      6  C   UNL     1      11.050   1.384   0.878  0.00  0.00    +0.000 A 
ATOM      7  C   UNL     1      10.287   0.245   0.561  0.00  0.00    +0.000 A 
ENDROOT
BRANCH   6   8
ATOM      8  C   UNL     1      11.783   1.492   2.167  0.00  0.00    +0.000 A 
ATOM      9  C   UNL     1      11.804   2.713   2.872  0.00  0.00    +0.000 A 
ATOM     10  C   UNL     1      12.522   2.864   4.064  0.00  0.00    +0.000 A 
ATOM     11  C   UNL     1      13.223   1.789   4.597  0.00  0.00    +0.000 A 
ATOM     12  C   UNL     1      13.197   0.559   3.947  0.00  0.00    +0.000 A 
ATOM     13  C   UNL     1      12.489   0.417   2.748  0.00  0.00    +0.000 A 
BRANCH  13  14
ATOM     14  O   UNL     1      12.512  -0.806   2.127  0.00  0.00    +0.000 OA
ATOM     15  H   UNL     1      13.042  -1.423   2.657  0.00  0.00    +0.000 HD
ENDBRANCH  13  14
ENDBRANCH   6   8
BRANCH   1  16
ATOM     16  C   UNL     1       8.494  -1.006  -0.712  0.00  0.00    +0.000 C 
ATOM     17  C   UNL     1       8.270  -1.775  -1.994  0.00  0.00    +0.000 C 
ATOM     18  C   UNL     1       9.011  -2.429  -0.874  0.00  0.00    +0.000 C 
BRANCH  16  19
ATOM     19  N   UNL     1       7.447  -0.865   0.315  0.00  0.00    +0.000 N 
ATOM     20  H   UNL     1       7.792  -0.697   1.259  0.00  0.00    +0.000 HD
BRANCH  19  24
ATOM     21  C   UNL     1       4.011   1.344   0.166  0.00  0.00    +0.000 A 
ATOM     22  C   UNL     1       4.753   1.204   1.324  0.00  0.00    +0.000 A 
ATOM     23  N   UNL     1       5.921   0.519   1.357  0.00  0.00    +0.000 NA
ATOM     24  C   UNL     1       6.334  -0.035   0.194  0.00  0.00    +0.000 A 
ATOM     25  C   UNL     1       5.600   0.148  -0.973  0.00  0.00    +0.000 A 
ATOM     26  N   UNL     1       4.423   0.832  -1.019  0.00  0.00    +0.000 NA
BRANCH  21  28
ATOM     27  N   UNL     1       1.700   2.511   0.280  0.00  0.00    +0.000 NA
ATOM     28  C   UNL     1       2.733   1.998   0.192  0.00  0.00    +0.000 C 
ENDBRANCH  21  28
ENDBRANCH  19  24
ENDBRANCH  16  19
ENDBRANCH   1  16
TORSDOF 6
