REMARK  Name = 
REMARK  5 active torsions:
REMARK  status: ('A' for Active; 'I' for Inactive)
REMARK    1  A    between atoms: C_2  and  C_4
REMARK    2  A    between atoms: C_7  and  O_8
REMARK    3  A    between atoms: O_8  and  C_9
REMARK    4  A    between atoms: C_9  and  C_10
REMARK    5  A    between atoms: C_14  and  C_15
REMARK                            x       y       z     vdW  Elec       q    Type
REMARK                         _______ _______ _______ _____ _____    ______ ____
ROOT
ATOM      1  C   UNL     1       5.075  -2.551  -5.377  0.00  0.00    +0.000 C 
ENDROOT
BRANCH   1   2
ATOM      2  C   UNL     1       5.856  -3.540  -6.206  0.00  0.00    +0.000 A 
ATOM      3  C   UNL     1       5.780  -4.899  -5.923  0.00  0.00    +0.000 A 
ATOM      4  N   UNL     1       6.400  -5.838  -6.671  0.00  0.00    +0.000 NA
ATOM      5  C   UNL     1       7.109  -5.360  -7.722  0.00  0.00    +0.000 A 
ATOM      6  C   UNL     1       7.206  -4.004  -8.037  0.00  0.00    +0.000 A 
ATOM      7  N   UNL     1       6.574  -3.077  -7.268  0.00  0.00    +0.000 NA
BRANCH   6   8
ATOM      8  C   UNL     1       7.952  -3.494  -9.201  0.00  0.00    +0.000 A 
ATOM      9  C   UNL     1       8.579  -2.241  -9.170  0.00  0.00    +0.000 A 
ATOM     10  C   UNL     1       9.259  -1.790 -10.293  0.00  0.00    +0.000 A 
ATOM     11  N   UNL     1       9.359  -2.487 -11.440  0.00  0.00    +0.000 NA
ATOM     12  C   UNL     1       8.747  -3.686 -11.461  0.00  0.00    +0.000 A 
ATOM     13  F   UNL     1       8.816  -4.398 -12.594  0.00  0.00    +0.000 F 
ATOM     14  C   UNL     1       8.050  -4.224 -10.393  0.00  0.00    +0.000 A 
ENDBRANCH   6   8
ENDBRANCH   1   2
BRANCH   1  15
ATOM     15  O   UNL     1       5.463  -2.652  -4.006  0.00  0.00    +0.000 OA
BRANCH  15  19
ATOM     16  C   UNL     1       3.626  -0.294  -1.092  0.00  0.00    +0.000 A 
ATOM     17  C   UNL     1       3.219  -0.147  -2.423  0.00  0.00    +0.000 A 
ATOM     18  C   UNL     1       3.812  -0.917  -3.431  0.00  0.00    +0.000 A 
ATOM     19  C   UNL     1       4.815  -1.836  -3.118  0.00  0.00    +0.000 A 
ATOM     20  C   UNL     1       5.230  -1.968  -1.790  0.00  0.00    +0.000 A 
ATOM     21  C   UNL     1       4.647  -1.198  -0.780  0.00  0.00    +0.000 A 
BRANCH  16  23
ATOM     22  N   UNL     1       1.722   0.904  -0.163  0.00  0.00    +0.000 N 
ATOM     23  C   UNL     1       3.019   0.503   0.003  0.00  0.00    +0.000 C 
ATOM     24  O   UNL     1       3.633   0.758   1.032  0.00  0.00    +0.000 OA
ATOM     25  H   UNL     1       1.286   1.345   0.638  0.00  0.00    +0.000 HD
ATOM     26  H   UNL     1       1.116   0.496  -0.859  0.00  0.00    +0.000 HD
ENDBRANCH  16  23
ENDBRANCH  15  19
ENDBRANCH   1  15
TORSDOF 5
