REMARK  Name = 
REMARK  4 active torsions:
REMARK  status: ('A' for Active; 'I' for Inactive)
REMARK    1  A    between atoms: C_2  and  C_4
REMARK    2  A    between atoms: N_8  and  C_9
REMARK    3  A    between atoms: C_9  and  C_10
REMARK    4  A    between atoms: C_15  and  C_16
REMARK                            x       y       z     vdW  Elec       q    Type
REMARK                         _______ _______ _______ _____ _____    ______ ____
ROOT
ATOM      1  C   UNL     1       4.639   5.098  -3.376  0.00  0.00    +0.000 C 
ENDROOT
BRANCH   1   6
ATOM      2  C   UNL     1       0.783   2.615  -5.708  0.00  0.00    +0.000 A 
ATOM      3  C   UNL     1       2.009   2.129  -5.263  0.00  0.00    +0.000 A 
ATOM      4  C   UNL     1       2.852   2.973  -4.543  0.00  0.00    +0.000 A 
ATOM      5  C   UNL     1       2.473   4.287  -4.294  0.00  0.00    +0.000 A 
ATOM      6  N   UNL     1       3.196   5.144  -3.498  0.00  0.00    +0.000 N 
ATOM      7  N   UNL     1       1.303   4.776  -4.751  0.00  0.00    +0.000 NA
ATOM      8  C   UNL     1       0.489   3.943  -5.453  0.00  0.00    +0.000 A 
ATOM      9  H   UNL     1       2.775   6.066  -3.544  0.00  0.00    +0.000 HD
BRANCH   2  11
ATOM     10  N   UNL     1      -0.166   0.426  -6.127  0.00  0.00    +0.000 N 
ATOM     11  C   UNL     1      -0.191   1.766  -6.417  0.00  0.00    +0.000 C 
ATOM     12  O   UNL     1      -1.010   2.234  -7.195  0.00  0.00    +0.000 OA
ATOM     13  H   UNL     1      -0.902  -0.141  -6.530  0.00  0.00    +0.000 HD
ATOM     14  H   UNL     1       0.310   0.060  -5.314  0.00  0.00    +0.000 HD
ENDBRANCH   2  11
ENDBRANCH   1   6
BRANCH   1  15
ATOM     15  C   UNL     1       5.330   5.945  -4.415  0.00  0.00    +0.000 A 
ATOM     16  C   UNL     1       5.150   7.330  -4.433  0.00  0.00    +0.000 A 
ATOM     17  C   UNL     1       5.846   8.104  -5.349  0.00  0.00    +0.000 A 
ATOM     18  F   UNL     1       5.680   9.433  -5.347  0.00  0.00    +0.000 F 
ATOM     19  C   UNL     1       6.723   7.530  -6.265  0.00  0.00    +0.000 A 
ATOM     20  C   UNL     1       6.918   6.140  -6.299  0.00  0.00    +0.000 A 
ATOM     21  C   UNL     1       6.211   5.367  -5.350  0.00  0.00    +0.000 A 
BRANCH  20  22
ATOM     22  C   UNL     1       7.817   5.498  -7.284  0.00  0.00    +0.000 A 
ATOM     23  C   UNL     1       8.073   6.046  -8.543  0.00  0.00    +0.000 A 
ATOM     24  C   UNL     1       8.897   5.364  -9.437  0.00  0.00    +0.000 A 
ATOM     25  C   UNL     1       9.453   4.152  -9.057  0.00  0.00    +0.000 A 
ATOM     26  C   UNL     1       9.164   3.674  -7.792  0.00  0.00    +0.000 A 
ATOM     27  N   UNL     1       8.364   4.313  -6.908  0.00  0.00    +0.000 NA
ENDBRANCH  20  22
ENDBRANCH   1  15
TORSDOF 4
