REMARK  Name = 
REMARK  8 active torsions:
REMARK  status: ('A' for Active; 'I' for Inactive)
REMARK    1  A    between atoms: C_1  and  C_2
REMARK    2  A    between atoms: C_2  and  C_3
REMARK    3  A    between atoms: C_2  and  C_4
REMARK    4  A    between atoms: C_2  and  C_15
REMARK    5  A    between atoms: C_4  and  O_5
REMARK    6  A    between atoms: O_5  and  C_6
REMARK    7  A    between atoms: C_9  and  C_10
REMARK    8  A    between atoms: C_20  and  C_21
REMARK                            x       y       z     vdW  Elec       q    Type
REMARK                         _______ _______ _______ _____ _____    ______ ____
ROOT
ATOM      1  C   UNL     1       1.044   0.152   0.055  0.00  0.00    +0.000 C 
ATOM      2  C   UNL     1       2.590   0.041   0.081  0.00  0.00    +0.000 C 
ATOM      3  C   UNL     1       3.117   0.318  -1.343  0.00  0.00    +0.000 C 
ENDROOT
BRANCH   2   4
ATOM      4  C   UNL     1       3.058  -1.368   0.507  0.00  0.00    +0.000 A 
ATOM      5  C   UNL     1       2.293  -2.506   0.207  0.00  0.00    +0.000 A 
ATOM      6  C   UNL     1       2.688  -3.783   0.619  0.00  0.00    +0.000 A 
ATOM      7  C   UNL     1       3.875  -3.969   1.329  0.00  0.00    +0.000 A 
ATOM      8 CL   UNL     1       4.261  -5.597   1.762  0.00  0.00    +0.000 Cl
ATOM      9  C   UNL     1       4.685  -2.866   1.613  0.00  0.00    +0.000 A 
ATOM     10  C   UNL     1       4.275  -1.583   1.184  0.00  0.00    +0.000 A 
BRANCH   9  11
ATOM     11  C   UNL     1       5.988  -2.933   2.330  0.00  0.00    +0.000 C 
ATOM     12  N   UNL     1       6.152  -3.884   3.296  0.00  0.00    +0.000 N 
ATOM     13  O   UNL     1       6.882  -2.130   2.091  0.00  0.00    +0.000 OA
ATOM     14  H   UNL     1       5.474  -4.616   3.466  0.00  0.00    +0.000 HD
ATOM     15  H   UNL     1       7.059  -3.958   3.734  0.00  0.00    +0.000 HD
ENDBRANCH   9  11
ENDBRANCH   2   4
BRANCH   2  16
ATOM     16  C   UNL     1       3.112   1.183   1.006  0.00  0.00    +0.000 C 
BRANCH  16  17
ATOM     17  O   UNL     1       2.635   1.011   2.346  0.00  0.00    +0.000 OA
BRANCH  17  18
ATOM     18  C   UNL     1       2.969   1.985   3.242  0.00  0.00    +0.000 A 
ATOM     19  C   UNL     1       3.783   3.088   2.992  0.00  0.00    +0.000 A 
ATOM     20  C   UNL     1       4.023   4.013   4.008  0.00  0.00    +0.000 A 
ATOM     21  C   UNL     1       3.438   3.803   5.249  0.00  0.00    +0.000 A 
ATOM     22  N   UNL     1       2.644   2.735   5.540  0.00  0.00    +0.000 NA
ATOM     23  C   UNL     1       2.439   1.858   4.526  0.00  0.00    +0.000 A 
BRANCH  21  24
ATOM     24  C   UNL     1       3.665   4.801   6.342  0.00  0.00    +0.000 C 
ATOM     25  N   UNL     1       3.052   4.529   7.533  0.00  0.00    +0.000 N 
ATOM     26  O   UNL     1       4.345   5.806   6.185  0.00  0.00    +0.000 OA
ATOM     27  H   UNL     1       2.483   3.694   7.626  0.00  0.00    +0.000 HD
ATOM     28  H   UNL     1       3.148   5.174   8.302  0.00  0.00    +0.000 HD
ENDBRANCH  21  24
ENDBRANCH  17  18
ENDBRANCH  16  17
ENDBRANCH   2  16
TORSDOF 6
