REMARK  Name = 
REMARK  7 active torsions:
REMARK  status: ('A' for Active; 'I' for Inactive)
REMARK    1  A    between atoms: C_2  and  C_4
REMARK    2  A    between atoms: C_7  and  N_8
REMARK    3  A    between atoms: N_8  and  C_9
REMARK    4  A    between atoms: C_9  and  C_10
REMARK    5  A    between atoms: C_10  and  C_13
REMARK    6  A    between atoms: C_17  and  C_18
REMARK    7  A    between atoms: C_18  and  C_19
REMARK                            x       y       z     vdW  Elec       q    Type
REMARK                         _______ _______ _______ _____ _____    ______ ____
ROOT
ATOM      1  C   UNL     1       6.068   4.042   5.764  0.00  0.00    +0.000 C 
ATOM      2  F   UNL     1       7.309   3.481   5.665  0.00  0.00    +0.000 F 
ATOM      3  F   UNL     1       6.185   5.281   5.195  0.00  0.00    +0.000 F 
ENDROOT
BRANCH   1   4
ATOM      4  C   UNL     1       5.580   4.103   7.198  0.00  0.00    +0.000 A 
ATOM      5  C   UNL     1       4.757   5.156   7.623  0.00  0.00    +0.000 A 
ATOM      6  C   UNL     1       4.250   5.171   8.920  0.00  0.00    +0.000 A 
ATOM      7  C   UNL     1       4.557   4.136   9.804  0.00  0.00    +0.000 A 
ATOM      8  C   UNL     1       5.378   3.073   9.404  0.00  0.00    +0.000 A 
ATOM      9  C   UNL     1       5.887   3.067   8.097  0.00  0.00    +0.000 A 
BRANCH   8  10
ATOM     10  C   UNL     1       5.695   1.948  10.360  0.00  0.00    +0.000 C 
BRANCH  10  11
ATOM     11  C   UNL     1       4.737   0.779  10.161  0.00  0.00    +0.000 C 
ATOM     12  C   UNL     1       3.268   0.958  10.587  0.00  0.00    +0.000 C 
ATOM     13  N   UNL     1       3.353  -0.252  11.413  0.00  0.00    +0.000 NA
ATOM     14  C   UNL     1       4.811  -0.302  11.256  0.00  0.00    +0.000 C 
ATOM     15  H   UNL     1       2.866  -1.056  11.020  0.00  0.00    +0.000 HD
ENDBRANCH  10  11
ENDBRANCH   8  10
ENDBRANCH   1   4
BRANCH   1  16
ATOM     16  C   UNL     1       5.062   3.216   4.925  0.00  0.00    +0.000 C 
BRANCH  16  17
ATOM     17  N   UNL     1       5.435   3.081   3.508  0.00  0.00    +0.000 N 
ATOM     18  H   UNL     1       5.881   3.903   3.103  0.00  0.00    +0.000 HD
BRANCH  17  22
ATOM     19  C   UNL     1       3.180   0.755   0.811  0.00  0.00    +0.000 A 
ATOM     20  C   UNL     1       2.746   0.890   2.130  0.00  0.00    +0.000 A 
ATOM     21  C   UNL     1       3.470   1.682   3.026  0.00  0.00    +0.000 A 
ATOM     22  C   UNL     1       4.621   2.374   2.627  0.00  0.00    +0.000 A 
ATOM     23  C   UNL     1       5.048   2.217   1.302  0.00  0.00    +0.000 A 
ATOM     24  C   UNL     1       4.342   1.413   0.400  0.00  0.00    +0.000 A 
BRANCH  19  26
ATOM     25  N   UNL     1       1.132  -0.320   0.048  0.00  0.00    +0.000 N 
ATOM     26  C   UNL     1       2.469  -0.118  -0.157  0.00  0.00    +0.000 C 
ATOM     27  O   UNL     1       3.044  -0.622  -1.111  0.00  0.00    +0.000 OA
ATOM     28  H   UNL     1       0.645  -0.838  -0.672  0.00  0.00    +0.000 HD
ATOM     29  H   UNL     1       0.581   0.267   0.659  0.00  0.00    +0.000 HD
ENDBRANCH  19  26
ENDBRANCH  17  22
ENDBRANCH  16  17
ENDBRANCH   1  16
TORSDOF 7
