REMARK  Name = 
REMARK  8 active torsions:
REMARK  status: ('A' for Active; 'I' for Inactive)
REMARK    1  A    between atoms: C_1  and  C_2
REMARK    2  A    between atoms: C_2  and  C_3
REMARK    3  A    between atoms: C_2  and  C_4
REMARK    4  A    between atoms: C_2  and  C_5
REMARK    5  A    between atoms: C_8  and  C_9
REMARK    6  A    between atoms: C_9  and  N_10
REMARK    7  A    between atoms: C_15  and  C_16
REMARK    8  A    between atoms: C_16  and  O_18
REMARK                            x       y       z     vdW  Elec       q    Type
REMARK                         _______ _______ _______ _____ _____    ______ ____
ROOT
ATOM      1  N   UNL     1       5.174  -5.266   2.806  0.00  0.00    +0.000 N 
ATOM      2  C   UNL     1       6.003  -4.916   3.847  0.00  0.00    +0.000 A 
ATOM      3  C   UNL     1       7.165  -5.639   3.730  0.00  0.00    +0.000 A 
ATOM      4  C   UNL     1       7.034  -6.486   2.598  0.00  0.00    +0.000 A 
ATOM      5  C   UNL     1       7.862  -7.474   2.032  0.00  0.00    +0.000 A 
ATOM      6  C   UNL     1       7.424  -8.188   0.907  0.00  0.00    +0.000 A 
ATOM      7  C   UNL     1       6.174  -7.912   0.342  0.00  0.00    +0.000 A 
ATOM      8  C   UNL     1       5.344  -6.917   0.879  0.00  0.00    +0.000 A 
ATOM      9  C   UNL     1       5.787  -6.228   2.021  0.00  0.00    +0.000 A 
ENDROOT
BRANCH   6  10
ATOM     10  C   UNL     1       8.307  -9.276   0.407  0.00  0.00    +0.000 C 
ATOM     11  O   UNL     1       9.077  -9.886   1.128  0.00  0.00    +0.000 OA
BRANCH  10  12
ATOM     12  O   UNL     1       8.207  -9.508  -0.919  0.00  0.00    +0.000 OA
ATOM     13  H   UNL     1       7.696  -8.846  -1.417  0.00  0.00    +0.000 HD
ENDBRANCH  10  12
ENDBRANCH   6  10
BRANCH   1  14
ATOM     14  C   UNL     1       3.786  -4.831   2.697  0.00  0.00    +0.000 C 
BRANCH  14  18
ATOM     15  C   UNL     1       2.909  -1.215   0.565  0.00  0.00    +0.000 A 
ATOM     16  C   UNL     1       3.803  -1.183   1.644  0.00  0.00    +0.000 A 
ATOM     17  C   UNL     1       4.153  -2.354   2.318  0.00  0.00    +0.000 A 
ATOM     18  C   UNL     1       3.606  -3.564   1.903  0.00  0.00    +0.000 A 
ATOM     19  N   UNL     1       2.771  -3.636   0.838  0.00  0.00    +0.000 NA
ATOM     20  C   UNL     1       2.454  -2.481   0.202  0.00  0.00    +0.000 A 
BRANCH  15  22
ATOM     21  C   UNL     1       3.661   0.831  -0.703  0.00  0.00    +0.000 C 
ATOM     22  C   UNL     1       2.449   0.072  -0.127  0.00  0.00    +0.000 C 
ATOM     23  C   UNL     1       1.725   0.976   0.897  0.00  0.00    +0.000 C 
ATOM     24  C   UNL     1       1.463  -0.174  -1.292  0.00  0.00    +0.000 C 
ENDBRANCH  15  22
ENDBRANCH  14  18
ENDBRANCH   1  14
TORSDOF 5
