REMARK  Name = 
REMARK  5 active torsions:
REMARK  status: ('A' for Active; 'I' for Inactive)
REMARK    1  A    between atoms: N_1  and  C_2
REMARK    2  A    between atoms: C_2  and  C_3
REMARK    3  A    between atoms: C_6  and  C_7
REMARK    4  A    between atoms: C_7  and  N_8
REMARK    5  A    between atoms: C_13  and  C_14
REMARK                            x       y       z     vdW  Elec       q    Type
REMARK                         _______ _______ _______ _____ _____    ______ ____
ROOT
ATOM      1  N   UNL     1       5.981   5.603   0.109  0.00  0.00    +0.000 N 
ATOM      2  C   UNL     1       6.277   6.349   1.224  0.00  0.00    +0.000 A 
ATOM      3  C   UNL     1       7.640   6.289   1.425  0.00  0.00    +0.000 A 
ATOM      4  C   UNL     1       8.189   5.491   0.392  0.00  0.00    +0.000 A 
ATOM      5  C   UNL     1       9.480   5.017   0.078  0.00  0.00    +0.000 A 
ATOM      6  C   UNL     1       9.623   4.205  -1.051  0.00  0.00    +0.000 A 
ATOM      7  C   UNL     1       8.494   3.950  -1.828  0.00  0.00    +0.000 A 
ATOM      8  N   UNL     1       7.233   4.393  -1.578  0.00  0.00    +0.000 NA
ATOM      9  C   UNL     1       7.143   5.128  -0.453  0.00  0.00    +0.000 A 
ENDROOT
BRANCH   6  10
ATOM     10  C   UNL     1      10.905   3.573  -1.455  0.00  0.00    +0.000 C 
ATOM     11  N   UNL     1      12.015   3.793  -0.688  0.00  0.00    +0.000 N 
ATOM     12  O   UNL     1      10.976   2.855  -2.445  0.00  0.00    +0.000 OA
ATOM     13  H   UNL     1      12.050   4.351   0.149  0.00  0.00    +0.000 HD
ATOM     14  H   UNL     1      12.867   3.322  -0.974  0.00  0.00    +0.000 HD
ENDBRANCH   6  10
BRANCH   1  15
ATOM     15  C   UNL     1       4.637   5.342  -0.381  0.00  0.00    +0.000 C 
BRANCH  15  19
ATOM     16  C   UNL     1       2.733   1.415  -0.609  0.00  0.00    +0.000 C 
ATOM     17  C   UNL     1       4.101   1.487   0.082  0.00  0.00    +0.000 C 
ATOM     18  C   UNL     1       4.816   2.806  -0.188  0.00  0.00    +0.000 C 
ATOM     19  C   UNL     1       3.990   4.050   0.180  0.00  0.00    +0.000 C 
ATOM     20  C   UNL     1       2.531   3.957  -0.310  0.00  0.00    +0.000 C 
ATOM     21  C   UNL     1       1.879   2.589  -0.113  0.00  0.00    +0.000 C 
BRANCH  16  22
ATOM     22  C   UNL     1       2.903   1.319  -2.142  0.00  0.00    +0.000 C 
BRANCH  22  23
ATOM     23  N   UNL     1       1.634   1.201  -2.854  0.00  0.00    +0.000 NA
ATOM     24  H   UNL     1       1.824   0.993  -3.834  0.00  0.00    +0.000 HD
ATOM     25  H   UNL     1       1.162   2.104  -2.855  0.00  0.00    +0.000 HD
ENDBRANCH  22  23
ENDBRANCH  16  22
ENDBRANCH  15  19
ENDBRANCH   1  15
TORSDOF 5
