REMARK  Name = 
REMARK  5 active torsions:
REMARK  status: ('A' for Active; 'I' for Inactive)
REMARK    1  A    between atoms: C_2  and  C_3
REMARK    2  A    between atoms: C_6  and  N_7
REMARK    3  A    between atoms: N_7  and  C_8
REMARK    4  A    between atoms: C_8  and  C_9
REMARK    5  A    between atoms: C_14  and  C_15
REMARK                            x       y       z     vdW  Elec       q    Type
REMARK                         _______ _______ _______ _____ _____    ______ ____
ROOT
ATOM      1  C   UNL     1       4.576  -1.112   0.115  0.00  0.00    +0.000 C 
ATOM      2  C   UNL     1       4.833  -2.240  -0.869  0.00  0.00    +0.000 C 
ATOM      3  C   UNL     1       4.333  -2.572   0.493  0.00  0.00    +0.000 C 
ENDROOT
BRANCH   1   4
ATOM      4  C   UNL     1       5.704  -0.487   0.933  0.00  0.00    +0.000 A 
ATOM      5  C   UNL     1       5.556  -0.292   2.318  0.00  0.00    +0.000 A 
ATOM      6  C   UNL     1       6.639   0.071   3.114  0.00  0.00    +0.000 A 
ATOM      7  C   UNL     1       7.884   0.278   2.528  0.00  0.00    +0.000 A 
ATOM      8  F   UNL     1       8.910   0.573   3.341  0.00  0.00    +0.000 F 
ATOM      9  C   UNL     1       8.075   0.178   1.141  0.00  0.00    +0.000 A 
ATOM     10  C   UNL     1       6.957  -0.196   0.367  0.00  0.00    +0.000 A 
BRANCH   9  11
ATOM     11  C   UNL     1       9.385   0.413   0.499  0.00  0.00    +0.000 A 
ATOM     12  C   UNL     1      10.583  -0.018   1.084  0.00  0.00    +0.000 A 
ATOM     13  C   UNL     1      11.785   0.226   0.436  0.00  0.00    +0.000 A 
ATOM     14  N   UNL     1      11.883   0.850  -0.755  0.00  0.00    +0.000 NA
ATOM     15  C   UNL     1      10.728   1.257  -1.315  0.00  0.00    +0.000 A 
ATOM     16  C   UNL     1       9.481   1.068  -0.738  0.00  0.00    +0.000 A 
ENDBRANCH   9  11
ENDBRANCH   1   4
BRANCH   1  17
ATOM     17  N   UNL     1       3.436  -0.220  -0.128  0.00  0.00    +0.000 N 
ATOM     18  H   UNL     1       2.559  -0.418   0.342  0.00  0.00    +0.000 HD
BRANCH  17  22
ATOM     19  C   UNL     1       3.048   2.475  -3.379  0.00  0.00    +0.000 A 
ATOM     20  C   UNL     1       4.099   1.556  -3.370  0.00  0.00    +0.000 A 
ATOM     21  C   UNL     1       4.241   0.661  -2.298  0.00  0.00    +0.000 A 
ATOM     22  C   UNL     1       3.317   0.631  -1.245  0.00  0.00    +0.000 A 
ATOM     23  C   UNL     1       2.275   1.567  -1.270  0.00  0.00    +0.000 A 
ATOM     24  C   UNL     1       2.136   2.483  -2.325  0.00  0.00    +0.000 A 
BRANCH  19  26
ATOM     25  N   UNL     1       2.799   4.148  -5.351  0.00  0.00    +0.000 NA
ATOM     26  C   UNL     1       2.908   3.390  -4.475  0.00  0.00    +0.000 C 
ENDBRANCH  19  26
ENDBRANCH  17  22
ENDBRANCH   1  17
TORSDOF 5
