REMARK  Name = 
REMARK  9 active torsions:
REMARK  status: ('A' for Active; 'I' for Inactive)
REMARK    1  A    between atoms: C_1  and  C_2
REMARK    2  A    between atoms: C_2  and  C_3
REMARK    3  A    between atoms: C_3  and  N_4
REMARK    4  A    between atoms: C_3  and  C_17
REMARK    5  A    between atoms: C_5  and  C_7
REMARK    6  A    between atoms: C_20  and  C_21
REMARK    7  A    between atoms: C_21  and  N_22
REMARK    8  A    between atoms: N_22  and  C_23
REMARK    9  A    between atoms: C_23  and  C_24
REMARK                            x       y       z     vdW  Elec       q    Type
REMARK                         _______ _______ _______ _____ _____    ______ ____
ROOT
ATOM      1  C   UNL     1       3.005  -1.269  -0.409  0.00  0.00    +0.000 C 
ENDROOT
BRANCH   1   2
ATOM      2  C   UNL     1       4.529  -1.282  -0.464  0.00  0.00    +0.000 A 
ATOM      3  C   UNL     1       5.208  -2.408  -0.948  0.00  0.00    +0.000 A 
ATOM      4  C   UNL     1       6.606  -2.426  -1.021  0.00  0.00    +0.000 A 
ATOM      5  C   UNL     1       7.363  -1.312  -0.629  0.00  0.00    +0.000 A 
ATOM      6  C   UNL     1       6.688  -0.183  -0.151  0.00  0.00    +0.000 A 
ATOM      7  C   UNL     1       5.291  -0.168  -0.068  0.00  0.00    +0.000 A 
BRANCH   5   8
ATOM      8  C   UNL     1       8.874  -1.330  -0.704  0.00  0.00    +0.000 C 
BRANCH   8   9
ATOM      9  N   UNL     1       9.335  -1.559  -2.071  0.00  0.00    +0.000 NA
ATOM     10  H   UNL     1       8.966  -0.820  -2.669  0.00  0.00    +0.000 HD
BRANCH   9  11
ATOM     11  C   UNL     1      10.802  -1.522  -2.150  0.00  0.00    +0.000 C 
BRANCH  11  12
ATOM     12  C   UNL     1      11.302  -1.757  -3.564  0.00  0.00    +0.000 A 
ATOM     13  C   UNL     1      10.958  -2.930  -4.238  0.00  0.00    +0.000 A 
ATOM     14  C   UNL     1      11.434  -3.131  -5.529  0.00  0.00    +0.000 A 
ATOM     15  C   UNL     1      12.243  -2.165  -6.113  0.00  0.00    +0.000 A 
ATOM     16  C   UNL     1      12.537  -1.028  -5.379  0.00  0.00    +0.000 A 
ATOM     17  N   UNL     1      12.086  -0.801  -4.124  0.00  0.00    +0.000 NA
ENDBRANCH  11  12
ENDBRANCH   9  11
ENDBRANCH   8   9
ENDBRANCH   5   8
ENDBRANCH   1   2
BRANCH   1  18
ATOM     18  N   UNL     1       2.513  -0.272  -1.346  0.00  0.00    +0.000 N 
ATOM     19  C   UNL     1       1.306  -0.328  -1.989  0.00  0.00    +0.000 C 
ATOM     20  O   UNL     1       0.489  -1.223  -1.797  0.00  0.00    +0.000 OA
ATOM     21  H   UNL     1       3.183   0.435  -1.623  0.00  0.00    +0.000 HD
BRANCH  19  22
ATOM     22  C   UNL     1       1.032   0.793  -2.900  0.00  0.00    +0.000 A 
ATOM     23  C   UNL     1      -0.274   1.161  -3.196  0.00  0.00    +0.000 A 
ATOM     24  S   UNL     1      -0.379   2.500  -4.254  0.00  0.00    +0.000 S 
ATOM     25  C   UNL     1       1.314   2.593  -4.401  0.00  0.00    +0.000 A 
ATOM     26  N   UNL     1       1.904   3.515  -5.210  0.00  0.00    +0.000 NA
ATOM     27  C   UNL     1       3.192   3.443  -5.256  0.00  0.00    +0.000 A 
ATOM     28  N   UNL     1       3.947   2.537  -4.555  0.00  0.00    +0.000 N 
ATOM     29  C   UNL     1       3.403   1.648  -3.672  0.00  0.00    +0.000 A 
ATOM     30  O   UNL     1       4.120   0.959  -2.956  0.00  0.00    +0.000 OA
ATOM     31  C   UNL     1       1.951   1.644  -3.621  0.00  0.00    +0.000 A 
ATOM     32  H   UNL     1       4.955   2.553  -4.597  0.00  0.00    +0.000 HD
ENDBRANCH  19  22
ENDBRANCH   1  18
BRANCH   1  34
ATOM     33  C   UNL     1       2.881  -1.992   2.045  0.00  0.00    +0.000 C 
ATOM     34  C   UNL     1       2.457  -0.970   0.999  0.00  0.00    +0.000 C 
ENDBRANCH   1  34
TORSDOF 8
