REMARK  Name = 
REMARK  8 active torsions:
REMARK  status: ('A' for Active; 'I' for Inactive)
REMARK    1  A    between atoms: C_2  and  C_4
REMARK    2  A    between atoms: C_7  and  O_8
REMARK    3  A    between atoms: O_8  and  C_9
REMARK    4  A    between atoms: C_9  and  C_10
REMARK    5  A    between atoms: C_10  and  C_11
REMARK    6  A    between atoms: C_15  and  C_16
REMARK    7  A    between atoms: C_17  and  C_18
REMARK    8  A    between atoms: C_18  and  O_19
REMARK                            x       y       z     vdW  Elec       q    Type
REMARK                         _______ _______ _______ _____ _____    ______ ____
ROOT
ATOM      1  C   UNL     1       5.161   0.671   5.871  0.00  0.00    +0.000 C 
ENDROOT
BRANCH   1   2
ATOM      2  O   UNL     1       5.479   1.303   4.619  0.00  0.00    +0.000 OA
BRANCH   2   6
ATOM      3  C   UNL     1       2.795   0.331   1.641  0.00  0.00    +0.000 A 
ATOM      4  C   UNL     1       3.857   1.189   1.350  0.00  0.00    +0.000 A 
ATOM      5  C   UNL     1       4.764   1.516   2.368  0.00  0.00    +0.000 A 
ATOM      6  C   UNL     1       4.573   0.970   3.628  0.00  0.00    +0.000 A 
ATOM      7  N   UNL     1       3.548   0.141   3.927  0.00  0.00    +0.000 NA
ATOM      8  C   UNL     1       2.678  -0.152   2.936  0.00  0.00    +0.000 A 
BRANCH   3  10
ATOM      9  N   UNL     1       2.148  -0.105  -0.661  0.00  0.00    +0.000 N 
ATOM     10  C   UNL     1       1.773  -0.071   0.652  0.00  0.00    +0.000 C 
ATOM     11  O   UNL     1       0.646  -0.401   0.998  0.00  0.00    +0.000 OA
ATOM     12  H   UNL     1       1.469  -0.485  -1.309  0.00  0.00    +0.000 HD
ATOM     13  H   UNL     1       3.115  -0.091  -0.952  0.00  0.00    +0.000 HD
ENDBRANCH   3  10
ENDBRANCH   2   6
ENDBRANCH   1   2
BRANCH   1  14
ATOM     14  C   UNL     1       6.184   1.077   6.933  0.00  0.00    +0.000 C 
BRANCH  14  15
ATOM     15  C   UNL     1       5.904   0.440   8.275  0.00  0.00    +0.000 A 
ATOM     16  C   UNL     1       6.447  -0.804   8.606  0.00  0.00    +0.000 A 
ATOM     17  C   UNL     1       6.153  -1.354   9.847  0.00  0.00    +0.000 A 
ATOM     18  N   UNL     1       5.363  -0.763  10.769  0.00  0.00    +0.000 NA
ATOM     19  C   UNL     1       4.836   0.431  10.429  0.00  0.00    +0.000 A 
ATOM     20  C   UNL     1       5.070   1.064   9.212  0.00  0.00    +0.000 A 
BRANCH  19  21
ATOM     21  C   UNL     1       3.991   1.022  11.422  0.00  0.00    +0.000 C 
ATOM     22  C   UNL     1       3.199   1.596  12.283  0.00  0.00    +0.000 C 
BRANCH  22  23
ATOM     23  C   UNL     1       2.274   2.266  13.287  0.00  0.00    +0.000 C 
BRANCH  23  24
ATOM     24  O   UNL     1       1.383   3.136  12.608  0.00  0.00    +0.000 OA
ATOM     25  H   UNL     1       1.932   3.736  12.076  0.00  0.00    +0.000 HD
ENDBRANCH  23  24
ENDBRANCH  22  23
ENDBRANCH  19  21
ENDBRANCH  14  15
ENDBRANCH   1  14
TORSDOF 8
