REMARK  Name = 
REMARK  8 active torsions:
REMARK  status: ('A' for Active; 'I' for Inactive)
REMARK    1  A    between atoms: C_2  and  C_5
REMARK    2  A    between atoms: N_3  and  O_4
REMARK    3  A    between atoms: C_8  and  N_9
REMARK    4  A    between atoms: N_9  and  C_10
REMARK    5  A    between atoms: C_10  and  C_11
REMARK    6  A    between atoms: C_11  and  C_14
REMARK    7  A    between atoms: C_18  and  O_19
REMARK    8  A    between atoms: O_19  and  C_20
REMARK                            x       y       z     vdW  Elec       q    Type
REMARK                         _______ _______ _______ _____ _____    ______ ____
ROOT
ATOM      1  C   UNL     1       4.895   5.937   0.912  0.00  0.00    +0.000 C 
ENDROOT
BRANCH   1   2
ATOM      2  C   UNL     1       5.832   7.164   0.754  0.00  0.00    +0.000 C 
ATOM      3  F   UNL     1       7.125   6.768   0.936  0.00  0.00    +0.000 F 
ATOM      4  F   UNL     1       5.763   7.585  -0.547  0.00  0.00    +0.000 F 
BRANCH   2   5
ATOM      5  C   UNL     1       5.421   8.244   1.734  0.00  0.00    +0.000 A 
ATOM      6  C   UNL     1       4.511   9.244   1.365  0.00  0.00    +0.000 A 
ATOM      7  C   UNL     1       4.077  10.182   2.303  0.00  0.00    +0.000 A 
ATOM      8  C   UNL     1       4.549  10.137   3.618  0.00  0.00    +0.000 A 
ATOM      9  C   UNL     1       5.465   9.158   3.991  0.00  0.00    +0.000 A 
ATOM     10  C   UNL     1       5.897   8.217   3.054  0.00  0.00    +0.000 A 
BRANCH   9  11
ATOM     11  O   UNL     1       5.968   8.992   5.256  0.00  0.00    +0.000 OA
BRANCH  11  12
ATOM     12  C   UNL     1       5.983  10.122   6.158  0.00  0.00    +0.000 C 
ATOM     13  C   UNL     1       6.945  11.285   5.842  0.00  0.00    +0.000 C 
ATOM     14  N   UNL     1       7.502  11.215   7.201  0.00  0.00    +0.000 NA
ATOM     15  C   UNL     1       6.838   9.922   7.425  0.00  0.00    +0.000 C 
ATOM     16  H   UNL     1       7.182  11.957   7.821  0.00  0.00    +0.000 HD
ENDBRANCH  11  12
ENDBRANCH   9  11
ENDBRANCH   2   5
ENDBRANCH   1   2
BRANCH   1  17
ATOM     17  N   UNL     1       5.222   4.824   0.005  0.00  0.00    +0.000 N 
ATOM     18  H   UNL     1       5.551   5.117  -0.915  0.00  0.00    +0.000 HD
BRANCH  17  22
ATOM     19  C   UNL     1       3.117   1.172   0.028  0.00  0.00    +0.000 A 
ATOM     20  C   UNL     1       2.718   2.197   0.888  0.00  0.00    +0.000 A 
ATOM     21  C   UNL     1       3.399   3.420   0.882  0.00  0.00    +0.000 A 
ATOM     22  C   UNL     1       4.450   3.664  -0.007  0.00  0.00    +0.000 A 
ATOM     23  C   UNL     1       4.830   2.626  -0.872  0.00  0.00    +0.000 A 
ATOM     24  C   UNL     1       4.173   1.390  -0.860  0.00  0.00    +0.000 A 
BRANCH  19  26
ATOM     25  O   UNL     1       1.214  -0.189   0.395  0.00  0.00    +0.000 OA
ATOM     26  C   UNL     1       2.401  -0.126   0.086  0.00  0.00    +0.000 C 
ATOM     27  N   UNL     1       3.159  -1.245  -0.172  0.00  0.00    +0.000 N 
ATOM     28  H   UNL     1       4.164  -1.248  -0.042  0.00  0.00    +0.000 HD
BRANCH  27  29
ATOM     29  O   UNL     1       2.500  -2.476   0.074  0.00  0.00    +0.000 OA
ATOM     30  H   UNL     1       1.590  -2.182   0.303  0.00  0.00    +0.000 HD
ENDBRANCH  27  29
ENDBRANCH  19  26
ENDBRANCH  17  22
ENDBRANCH   1  17
TORSDOF 8
