REMARK  Name = 
REMARK  6 active torsions:
REMARK  status: ('A' for Active; 'I' for Inactive)
REMARK    1  A    between atoms: N_1  and  C_2
REMARK    2  A    between atoms: C_2  and  C_3
REMARK    3  A    between atoms: C_3  and  C_4
REMARK    4  A    between atoms: C_8  and  C_9
REMARK    5  A    between atoms: C_9  and  N_10
REMARK    6  A    between atoms: C_15  and  C_16
REMARK                            x       y       z     vdW  Elec       q    Type
REMARK                         _______ _______ _______ _____ _____    ______ ____
ROOT
ATOM      1  N   UNL     1       8.659  -2.380   0.844  0.00  0.00    +0.000 N 
ATOM      2  C   UNL     1       9.385  -1.416   1.509  0.00  0.00    +0.000 A 
ATOM      3  C   UNL     1      10.720  -1.712   1.367  0.00  0.00    +0.000 A 
ATOM      4  C   UNL     1      10.820  -2.905   0.606  0.00  0.00    +0.000 A 
ATOM      5  C   UNL     1      11.905  -3.701   0.194  0.00  0.00    +0.000 A 
ATOM      6  C   UNL     1      11.680  -4.885  -0.532  0.00  0.00    +0.000 A 
ATOM      7  C   UNL     1      10.368  -5.258  -0.850  0.00  0.00    +0.000 A 
ATOM      8  C   UNL     1       9.274  -4.466  -0.473  0.00  0.00    +0.000 A 
ATOM      9  C   UNL     1       9.521  -3.301   0.273  0.00  0.00    +0.000 A 
ENDROOT
BRANCH   6  10
ATOM     10  C   UNL     1      12.851  -5.743  -0.942  0.00  0.00    +0.000 C 
ATOM     11  F   UNL     1      14.051  -5.229  -0.546  0.00  0.00    +0.000 F 
ATOM     12  F   UNL     1      12.799  -6.999  -0.418  0.00  0.00    +0.000 F 
ATOM     13  F   UNL     1      12.948  -5.904  -2.291  0.00  0.00    +0.000 F 
ENDBRANCH   6  10
BRANCH   1  14
ATOM     14  C   UNL     1       7.204  -2.496   0.911  0.00  0.00    +0.000 C 
BRANCH  14  19
ATOM     15  C   UNL     1       4.923  -1.824  -1.919  0.00  0.00    +0.000 A 
ATOM     16  C   UNL     1       4.926  -0.446  -2.055  0.00  0.00    +0.000 A 
ATOM     17  C   UNL     1       5.771   0.305  -1.244  0.00  0.00    +0.000 A 
ATOM     18  C   UNL     1       6.577  -0.356  -0.316  0.00  0.00    +0.000 A 
ATOM     19  C   UNL     1       6.482  -1.739  -0.182  0.00  0.00    +0.000 A 
ATOM     20  N   UNL     1       5.653  -2.474  -0.974  0.00  0.00    +0.000 NA
BRANCH  15  21
ATOM     21  C   UNL     1       4.070  -2.657  -2.842  0.00  0.00    +0.000 C 
BRANCH  21  22
ATOM     22  C   UNL     1       2.675  -2.871  -2.262  0.00  0.00    +0.000 C 
BRANCH  22  23
ATOM     23  N   UNL     1       1.851  -3.675  -3.165  0.00  0.00    +0.000 NA
ATOM     24  H   UNL     1       0.944  -3.841  -2.730  0.00  0.00    +0.000 HD
ATOM     25  H   UNL     1       2.278  -4.594  -3.283  0.00  0.00    +0.000 HD
ENDBRANCH  22  23
ENDBRANCH  21  22
ENDBRANCH  15  21
ENDBRANCH  14  19
ENDBRANCH   1  14
TORSDOF 6
