REMARK  Name = 
REMARK  4 active torsions:
REMARK  status: ('A' for Active; 'I' for Inactive)
REMARK    1  A    between atoms: C_1  and  C_2
REMARK    2  A    between atoms: C_2  and  N_3
REMARK    3  A    between atoms: C_2  and  C_13
REMARK    4  A    between atoms: C_7  and  C_8
REMARK                            x       y       z     vdW  Elec       q    Type
REMARK                         _______ _______ _______ _____ _____    ______ ____
ROOT
ATOM      1  N   UNL     1       2.744   0.392   1.528  0.00  0.00    +0.000 N 
ATOM      2  C   UNL     1       2.363   1.704   1.847  0.00  0.00    +0.000 A 
ATOM      3  C   UNL     1       2.137   1.995   3.188  0.00  0.00    +0.000 A 
ATOM      4  C   UNL     1       1.704   3.265   3.558  0.00  0.00    +0.000 A 
ATOM      5  C   UNL     1       1.563   4.217   2.566  0.00  0.00    +0.000 A 
ATOM      6  N   UNL     1       1.824   3.942   1.267  0.00  0.00    +0.000 NA
ATOM      7  N   UNL     1       2.217   2.669   0.913  0.00  0.00    +0.000 NA
ATOM      8  H   UNL     1       3.720   0.276   1.796  0.00  0.00    +0.000 HD
ENDROOT
BRANCH   5   9
ATOM      9  C   UNL     1       1.105   5.595   2.893  0.00  0.00    +0.000 C 
ATOM     10  N   UNL     1       1.059   6.487   1.856  0.00  0.00    +0.000 N 
ATOM     11  O   UNL     1       0.786   5.920   4.033  0.00  0.00    +0.000 OA
ATOM     12  H   UNL     1       1.327   6.212   0.919  0.00  0.00    +0.000 HD
ATOM     13  H   UNL     1       0.754   7.433   2.037  0.00  0.00    +0.000 HD
ENDBRANCH   5   9
BRANCH   1  15
ATOM     14  C   UNL     1       1.041  -0.086  -0.201  0.00  0.00    +0.000 C 
ATOM     15  C   UNL     1       2.539  -0.035   0.133  0.00  0.00    +0.000 C 
BRANCH  15  16
ATOM     16  C   UNL     1       3.160  -1.424  -0.049  0.00  0.00    +0.000 A 
ATOM     17  C   UNL     1       2.691  -2.521   0.681  0.00  0.00    +0.000 A 
ATOM     18  C   UNL     1       3.277  -3.769   0.486  0.00  0.00    +0.000 A 
ATOM     19  C   UNL     1       4.318  -3.895  -0.422  0.00  0.00    +0.000 A 
ATOM     20  C   UNL     1       4.735  -2.762  -1.099  0.00  0.00    +0.000 A 
ATOM     21  N   UNL     1       4.186  -1.537  -0.930  0.00  0.00    +0.000 NA
ENDBRANCH  15  16
ENDBRANCH   1  15
TORSDOF 3
