REMARK  Name = 
REMARK  8 active torsions:
REMARK  status: ('A' for Active; 'I' for Inactive)
REMARK    1  A    between atoms: C_1  and  O_2
REMARK    2  A    between atoms: O_2  and  C_3
REMARK    3  A    between atoms: C_5  and  C_6
REMARK    4  A    between atoms: C_11  and  N_12
REMARK    5  A    between atoms: N_12  and  C_13
REMARK    6  A    between atoms: C_13  and  C_14
REMARK    7  A    between atoms: C_18  and  C_19
REMARK    8  A    between atoms: C_23  and  C_24
REMARK                            x       y       z     vdW  Elec       q    Type
REMARK                         _______ _______ _______ _____ _____    ______ ____
ROOT
ATOM      1  N   UNL     1       4.554   0.279  -1.751  0.00  0.00    +0.000 N 
ATOM      2  H   UNL     1       4.382   0.854  -2.554  0.00  0.00    +0.000 HD
ENDROOT
BRANCH   1   8
ATOM      3  C   UNL     1       6.310   1.844  -1.053  0.00  0.00    +0.000 A 
ATOM      4  C   UNL     1       7.446   2.045  -0.268  0.00  0.00    +0.000 A 
ATOM      5  C   UNL     1       7.922   1.040   0.567  0.00  0.00    +0.000 A 
ATOM      6  C   UNL     1       7.210  -0.149   0.586  0.00  0.00    +0.000 A 
ATOM      7  N   UNL     1       6.121  -0.388  -0.171  0.00  0.00    +0.000 NA
ATOM      8  C   UNL     1       5.681   0.567  -1.007  0.00  0.00    +0.000 A 
BRANCH   5   9
ATOM      9  C   UNL     1       9.112   1.295   1.401  0.00  0.00    +0.000 C 
ATOM     10  N   UNL     1       9.575   0.316   2.228  0.00  0.00    +0.000 N 
ATOM     11  O   UNL     1       9.692   2.383   1.355  0.00  0.00    +0.000 OA
ATOM     12  H   UNL     1       9.179  -0.602   2.348  0.00  0.00    +0.000 HD
ATOM     13  H   UNL     1      10.390   0.545   2.783  0.00  0.00    +0.000 HD
ENDBRANCH   5   9
BRANCH   3  15
ATOM     14  C   UNL     1       6.709   3.863  -2.194  0.00  0.00    +0.000 C 
ATOM     15  O   UNL     1       5.772   2.847  -1.814  0.00  0.00    +0.000 OA
ENDBRANCH   3  15
ENDBRANCH   1   8
BRANCH   1  16
ATOM     16  C   UNL     1       3.954  -1.066  -1.686  0.00  0.00    +0.000 C 
BRANCH  16  17
ATOM     17  C   UNL     1       4.508  -2.083  -2.669  0.00  0.00    +0.000 A 
ATOM     18  C   UNL     1       5.530  -2.964  -2.311  0.00  0.00    +0.000 A 
ATOM     19  C   UNL     1       6.000  -3.863  -3.269  0.00  0.00    +0.000 A 
ATOM     20  C   UNL     1       5.428  -3.874  -4.527  0.00  0.00    +0.000 A 
ATOM     21  C   UNL     1       4.382  -3.000  -4.810  0.00  0.00    +0.000 A 
ATOM     22  N   UNL     1       3.926  -2.112  -3.890  0.00  0.00    +0.000 NA
BRANCH  21  23
ATOM     23  C   UNL     1       3.695  -2.990  -6.111  0.00  0.00    +0.000 A 
ATOM     24  C   UNL     1       3.146  -1.806  -6.625  0.00  0.00    +0.000 A 
ATOM     25  C   UNL     1       2.468  -1.791  -7.841  0.00  0.00    +0.000 A 
ATOM     26  C   UNL     1       2.323  -2.969  -8.572  0.00  0.00    +0.000 A 
ATOM     27  C   UNL     1       2.863  -4.166  -8.098  0.00  0.00    +0.000 A 
ATOM     28  C   UNL     1       2.694  -5.439  -8.874  0.00  0.00    +0.000 C 
ATOM     29  C   UNL     1       3.552  -4.167  -6.876  0.00  0.00    +0.000 A 
ENDBRANCH  21  23
ENDBRANCH  16  17
ENDBRANCH   1  16
TORSDOF 6
