REMARK  Name = 
REMARK  6 active torsions:
REMARK  status: ('A' for Active; 'I' for Inactive)
REMARK    1  A    between atoms: C_1  and  O_2
REMARK    2  A    between atoms: O_2  and  C_3
REMARK    3  A    between atoms: C_5  and  C_6
REMARK    4  A    between atoms: C_6  and  N_7
REMARK    5  A    between atoms: C_12  and  C_13
REMARK    6  A    between atoms: C_21  and  O_22
REMARK                            x       y       z     vdW  Elec       q    Type
REMARK                         _______ _______ _______ _____ _____    ______ ____
ROOT
ATOM      1  N   UNL     1       1.030   4.901   0.050  0.00  0.00    +0.000 N 
ATOM      2  C   UNL     1       0.340   4.849   1.230  0.00  0.00    +0.000 A 
ATOM      3  N   UNL     1      -0.958   4.949   1.041  0.00  0.00    +0.000 NA
ATOM      4  C   UNL     1      -1.116   5.088  -0.314  0.00  0.00    +0.000 A 
ATOM      5  C   UNL     1      -2.293   5.282  -1.052  0.00  0.00    +0.000 A 
ATOM      6  C   UNL     1      -2.202   5.423  -2.445  0.00  0.00    +0.000 A 
ATOM      7  C   UNL     1      -0.949   5.345  -3.078  0.00  0.00    +0.000 A 
ATOM      8  C   UNL     1       0.234   5.142  -2.356  0.00  0.00    +0.000 A 
ATOM      9  C   UNL     1       0.113   5.041  -0.968  0.00  0.00    +0.000 A 
ENDROOT
BRANCH   6  10
ATOM     10  C   UNL     1      -3.392   5.676  -3.311  0.00  0.00    +0.000 C 
ATOM     11  N   UNL     1      -4.623   5.763  -2.727  0.00  0.00    +0.000 N 
ATOM     12  O   UNL     1      -3.280   5.808  -4.523  0.00  0.00    +0.000 OA
ATOM     13  H   UNL     1      -4.817   5.660  -1.745  0.00  0.00    +0.000 HD
ATOM     14  H   UNL     1      -5.407   5.939  -3.348  0.00  0.00    +0.000 HD
ENDBRANCH   6  10
BRANCH   1  15
ATOM     15  C   UNL     1       2.481   4.948  -0.076  0.00  0.00    +0.000 C 
BRANCH  15  18
ATOM     16  C   UNL     1       3.123   1.202  -0.650  0.00  0.00    +0.000 A 
ATOM     17  C   UNL     1       2.519   2.463  -0.680  0.00  0.00    +0.000 A 
ATOM     18  C   UNL     1       3.142   3.588  -0.111  0.00  0.00    +0.000 A 
ATOM     19  C   UNL     1       4.441   3.444   0.400  0.00  0.00    +0.000 A 
ATOM     20  C   UNL     1       5.072   2.198   0.406  0.00  0.00    +0.000 A 
ATOM     21  C   UNL     1       4.404   1.084  -0.101  0.00  0.00    +0.000 A 
BRANCH  16  23
ATOM     22  C   UNL     1       1.224   0.161  -1.642  0.00  0.00    +0.000 C 
ATOM     23  O   UNL     1       2.540   0.051  -1.114  0.00  0.00    +0.000 OA
ENDBRANCH  16  23
BRANCH  21  24
ATOM     24  O   UNL     1       5.009  -0.146  -0.062  0.00  0.00    +0.000 OA
ATOM     25  H   UNL     1       5.879  -0.062   0.356  0.00  0.00    +0.000 HD
ENDBRANCH  21  24
ENDBRANCH  15  18
ENDBRANCH   1  15
TORSDOF 5
