REMARK  Name = 
REMARK  3 active torsions:
REMARK  status: ('A' for Active; 'I' for Inactive)
REMARK    1  A    between atoms: C_2  and  C_4
REMARK    2  A    between atoms: C_10  and  C_11
REMARK    3  A    between atoms: C_11  and  C_12
REMARK                            x       y       z     vdW  Elec       q    Type
REMARK                         _______ _______ _______ _____ _____    ______ ____
ROOT
ATOM      1  C   UNL     1       3.225   1.163  -0.703  0.00  0.00    +0.000 A 
ATOM      2  C   UNL     1       4.308   0.972  -1.546  0.00  0.00    +0.000 A 
ATOM      3  C   UNL     1       4.928   2.091  -2.111  0.00  0.00    +0.000 A 
ATOM      4  C   UNL     1       6.018   1.929  -2.978  0.00  0.00    +0.000 A 
ATOM      5  C   UNL     1       6.641   3.032  -3.553  0.00  0.00    +0.000 A 
ATOM      6  C   UNL     1       6.194   4.316  -3.255  0.00  0.00    +0.000 A 
ATOM      7  C   UNL     1       5.112   4.519  -2.378  0.00  0.00    +0.000 A 
ATOM      8  C   UNL     1       4.453   3.390  -1.808  0.00  0.00    +0.000 A 
ATOM      9  C   UNL     1       3.342   3.448  -0.945  0.00  0.00    +0.000 A 
ATOM     10  N   UNL     1       2.721   2.382  -0.382  0.00  0.00    +0.000 NA
ENDROOT
BRANCH   1  12
ATOM     11  N   UNL     1       1.466   0.269   0.702  0.00  0.00    +0.000 N 
ATOM     12  C   UNL     1       2.535  -0.022  -0.102  0.00  0.00    +0.000 C 
ATOM     13  O   UNL     1       2.891  -1.175  -0.312  0.00  0.00    +0.000 OA
ATOM     14  H   UNL     1       0.929  -0.480   1.111  0.00  0.00    +0.000 HD
ATOM     15  H   UNL     1       1.188   1.236   0.825  0.00  0.00    +0.000 HD
ENDBRANCH   1  12
BRANCH   7  16
ATOM     16  C   UNL     1       4.694   5.947  -2.081  0.00  0.00    +0.000 C 
BRANCH  16  17
ATOM     17  C   UNL     1       3.626   6.479  -3.003  0.00  0.00    +0.000 A 
ATOM     18  N   UNL     1       2.331   6.235  -2.677  0.00  0.00    +0.000 NA
ATOM     19  C   UNL     1       1.392   6.693  -3.517  0.00  0.00    +0.000 A 
ATOM     20  N   UNL     1       0.077   6.425  -3.217  0.00  0.00    +0.000 N 
ATOM     21  N   UNL     1       1.637   7.418  -4.614  0.00  0.00    +0.000 NA
ATOM     22  C   UNL     1       2.934   7.647  -4.905  0.00  0.00    +0.000 A 
ATOM     23  C   UNL     1       3.972   7.187  -4.134  0.00  0.00    +0.000 A 
ATOM     24  F   UNL     1       5.245   7.437  -4.462  0.00  0.00    +0.000 F 
ATOM     25  H   UNL     1      -0.046   6.254  -2.231  0.00  0.00    +0.000 HD
ATOM     26  H   UNL     1      -0.534   7.094  -3.663  0.00  0.00    +0.000 HD
ENDBRANCH  16  17
ENDBRANCH   7  16
TORSDOF 3
