REMARK  Name = 
REMARK  7 active torsions:
REMARK  status: ('A' for Active; 'I' for Inactive)
REMARK    1  A    between atoms: N_1  and  C_2
REMARK    2  A    between atoms: C_2  and  C_3
REMARK    3  A    between atoms: C_6  and  C_7
REMARK    4  A    between atoms: C_7  and  C_8
REMARK    5  A    between atoms: C_11  and  C_12
REMARK    6  A    between atoms: C_12  and  N_13
REMARK    7  A    between atoms: C_14  and  C_16
REMARK                            x       y       z     vdW  Elec       q    Type
REMARK                         _______ _______ _______ _____ _____    ______ ____
ROOT
ATOM      1  C   UNL     1       4.506  -2.966  -5.439  0.00  0.00    +0.000 A 
ATOM      2  C   UNL     1       5.781  -2.409  -5.277  0.00  0.00    +0.000 A 
ATOM      3  C   UNL     1       6.383  -1.692  -6.316  0.00  0.00    +0.000 A 
ATOM      4  C   UNL     1       5.714  -1.508  -7.532  0.00  0.00    +0.000 A 
ATOM      5  C   UNL     1       4.475  -2.134  -7.723  0.00  0.00    +0.000 A 
ATOM      6  C   UNL     1       3.873  -2.849  -6.684  0.00  0.00    +0.000 A 
ENDROOT
BRANCH   1   7
ATOM      7  C   UNL     1       3.792  -3.605  -4.269  0.00  0.00    +0.000 C 
BRANCH   7  11
ATOM      8  C   UNL     1       1.313  -0.780  -2.241  0.00  0.00    +0.000 A 
ATOM      9  C   UNL     1       2.630  -0.929  -1.815  0.00  0.00    +0.000 A 
ATOM     10  C   UNL     1       3.443  -1.865  -2.452  0.00  0.00    +0.000 A 
ATOM     11  C   UNL     1       2.932  -2.629  -3.504  0.00  0.00    +0.000 A 
ATOM     12  C   UNL     1       1.606  -2.407  -3.860  0.00  0.00    +0.000 A 
ATOM     13  N   UNL     1       0.790  -1.511  -3.258  0.00  0.00    +0.000 NA
BRANCH   8  14
ATOM     14  C   UNL     1       0.431   0.296  -1.645  0.00  0.00    +0.000 C 
BRANCH  14  15
ATOM     15  N   UNL     1       0.536   1.553  -2.392  0.00  0.00    +0.000 NA
ATOM     16  H   UNL     1      -0.230   2.164  -2.117  0.00  0.00    +0.000 HD
ATOM     17  H   UNL     1       0.373   1.327  -3.376  0.00  0.00    +0.000 HD
ENDBRANCH  14  15
ENDBRANCH   8  14
ENDBRANCH   7  11
ENDBRANCH   1   7
BRANCH   4  18
ATOM     18  C   UNL     1       6.308  -0.649  -8.617  0.00  0.00    +0.000 C 
BRANCH  18  19
ATOM     19  N   UNL     1       7.132  -1.419  -9.510  0.00  0.00    +0.000 N 
ATOM     20  C   UNL     1       7.836  -0.815 -10.521  0.00  0.00    +0.000 C 
ATOM     21  O   UNL     1       7.836   0.404 -10.678  0.00  0.00    +0.000 OA
ATOM     22  H   UNL     1       6.958  -2.418  -9.548  0.00  0.00    +0.000 HD
BRANCH  20  23
ATOM     23  C   UNL     1       8.645  -1.697 -11.369  0.00  0.00    +0.000 A 
ATOM     24  C   UNL     1       9.733  -1.178 -12.059  0.00  0.00    +0.000 A 
ATOM     25  S   UNL     1      10.598  -2.348 -12.949  0.00  0.00    +0.000 S 
ATOM     26  C   UNL     1       9.518  -3.578 -12.489  0.00  0.00    +0.000 A 
ATOM     27  N   UNL     1       9.675  -4.852 -12.936  0.00  0.00    +0.000 NA
ATOM     28  C   UNL     1       8.766  -5.677 -12.534  0.00  0.00    +0.000 A 
ATOM     29  N   UNL     1       7.716  -5.343 -11.719  0.00  0.00    +0.000 N 
ATOM     30  C   UNL     1       7.533  -4.076 -11.218  0.00  0.00    +0.000 A 
ATOM     31  O   UNL     1       6.604  -3.823 -10.455  0.00  0.00    +0.000 OA
ATOM     32  C   UNL     1       8.520  -3.108 -11.650  0.00  0.00    +0.000 A 
ATOM     33  H   UNL     1       7.042  -6.038 -11.432  0.00  0.00    +0.000 HD
ENDBRANCH  20  23
ENDBRANCH  18  19
ENDBRANCH   4  18
TORSDOF 7
