REMARK  Name = 
REMARK  10 active torsions:
REMARK  status: ('A' for Active; 'I' for Inactive)
REMARK    1  A    between atoms: N_1  and  C_2
REMARK    2  A    between atoms: C_2  and  C_3
REMARK    3  A    between atoms: C_3  and  N_4
REMARK    4  A    between atoms: C_3  and  C_20
REMARK    5  A    between atoms: N_4  and  C_5
REMARK    6  A    between atoms: C_5  and  C_6
REMARK    7  A    between atoms: C_9  and  C_10
REMARK    8  A    between atoms: C_10  and  O_11
REMARK    9  A    between atoms: O_11  and  C_12
REMARK   10  A    between atoms: C_12  and  C_13
REMARK                            x       y       z     vdW  Elec       q    Type
REMARK                         _______ _______ _______ _____ _____    ______ ____
ROOT
ATOM      1  N   UNL     1       2.291   0.190  -0.205  0.00  0.00    +0.000 NA
ATOM      2  H   UNL     1       1.551   0.550   0.398  0.00  0.00    +0.000 HD
ENDROOT
BRANCH   1   3
ATOM      3  C   UNL     1       3.280   1.271  -0.410  0.00  0.00    +0.000 C 
BRANCH   3   4
ATOM      4  C   UNL     1       2.595   2.444  -1.117  0.00  0.00    +0.000 A 
ATOM      5  C   UNL     1       1.539   2.355  -2.013  0.00  0.00    +0.000 A 
ATOM      6  S   UNL     1       1.154   3.847  -2.760  0.00  0.00    +0.000 S 
ATOM      7  C   UNL     1       2.374   4.666  -1.900  0.00  0.00    +0.000 A 
ATOM      8  N   UNL     1       2.630   5.987  -2.111  0.00  0.00    +0.000 NA
ATOM      9  C   UNL     1       3.601   6.459  -1.400  0.00  0.00    +0.000 A 
ATOM     10  N   UNL     1       4.320   5.743  -0.479  0.00  0.00    +0.000 N 
ATOM     11  C   UNL     1       4.079   4.417  -0.211  0.00  0.00    +0.000 A 
ATOM     12  O   UNL     1       4.709   3.817   0.662  0.00  0.00    +0.000 OA
ATOM     13  C   UNL     1       3.027   3.827  -1.021  0.00  0.00    +0.000 A 
ATOM     14  H   UNL     1       5.053   6.179   0.059  0.00  0.00    +0.000 HD
ENDBRANCH   3   4
BRANCH   3  15
ATOM     15  C   UNL     1       4.547   0.823  -1.223  0.00  0.00    +0.000 C 
BRANCH  15  16
ATOM     16  N   UNL     1       5.582   1.858  -1.353  0.00  0.00    +0.000 NA
ATOM     17  H   UNL     1       6.457   1.427  -1.642  0.00  0.00    +0.000 HD
ATOM     18  H   UNL     1       5.746   2.277  -0.432  0.00  0.00    +0.000 HD
ENDBRANCH  15  16
ENDBRANCH   3  15
ENDBRANCH   1   3
BRANCH   1  19
ATOM     19  C   UNL     1       2.851  -1.002   0.441  0.00  0.00    +0.000 C 
BRANCH  19  20
ATOM     20  C   UNL     1       1.812  -2.086   0.629  0.00  0.00    +0.000 A 
ATOM     21  C   UNL     1       1.123  -2.598  -0.481  0.00  0.00    +0.000 A 
ATOM     22  C   UNL     1       0.240  -3.671  -0.342  0.00  0.00    +0.000 A 
ATOM     23  C   UNL     1       0.033  -4.265   0.909  0.00  0.00    +0.000 A 
ATOM     24  C   UNL     1       0.708  -3.745   2.022  0.00  0.00    +0.000 A 
ATOM     25  C   UNL     1       1.588  -2.666   1.884  0.00  0.00    +0.000 A 
BRANCH  23  26
ATOM     26  C   UNL     1      -0.903  -5.436   1.054  0.00  0.00    +0.000 C 
BRANCH  26  27
ATOM     27  O   UNL     1      -0.432  -6.505   0.238  0.00  0.00    +0.000 OA
BRANCH  27  28
ATOM     28  C   UNL     1      -1.263  -7.658   0.363  0.00  0.00    +0.000 C 
BRANCH  28  29
ATOM     29  C   UNL     1      -0.707  -8.699  -0.542  0.00  0.00    +0.000 A 
ATOM     30  C   UNL     1      -1.124  -9.990  -0.806  0.00  0.00    +0.000 A 
ATOM     31  C   UNL     1      -0.245 -10.535  -1.774  0.00  0.00    +0.000 A 
ATOM     32  C   UNL     1       0.691  -9.570  -2.069  0.00  0.00    +0.000 A 
ATOM     33  N   UNL     1       0.411  -8.467  -1.309  0.00  0.00    +0.000 N 
ATOM     34  H   UNL     1       0.923  -7.592  -1.298  0.00  0.00    +0.000 HD
ENDBRANCH  28  29
ENDBRANCH  27  28
ENDBRANCH  26  27
ENDBRANCH  23  26
ENDBRANCH  19  20
ENDBRANCH   1  19
TORSDOF 10
