REMARK  Name = 
REMARK  8 active torsions:
REMARK  status: ('A' for Active; 'I' for Inactive)
REMARK    1  A    between atoms: C_1  and  C_2
REMARK    2  A    between atoms: C_2  and  C_3
REMARK    3  A    between atoms: C_2  and  O_4
REMARK    4  A    between atoms: C_2  and  C_5
REMARK    5  A    between atoms: C_8  and  C_9
REMARK    6  A    between atoms: C_10  and  C_11
REMARK    7  A    between atoms: C_14  and  C_15
REMARK    8  A    between atoms: C_15  and  N_16
REMARK                            x       y       z     vdW  Elec       q    Type
REMARK                         _______ _______ _______ _____ _____    ______ ____
ROOT
ATOM      1  C   UNL     1       4.078   5.166  -1.637  0.00  0.00    +0.000 C 
ATOM      2  C   UNL     1       4.302   6.311  -1.902  0.00  0.00    +0.000 C 
ENDROOT
BRANCH   1   6
ATOM      3  C   UNL     1       2.920   1.319  -0.514  0.00  0.00    +0.000 A 
ATOM      4  C   UNL     1       4.196   1.500  -1.055  0.00  0.00    +0.000 A 
ATOM      5  C   UNL     1       4.599   2.774  -1.447  0.00  0.00    +0.000 A 
ATOM      6  C   UNL     1       3.720   3.835  -1.285  0.00  0.00    +0.000 A 
ATOM      7  C   UNL     1       2.466   3.578  -0.752  0.00  0.00    +0.000 A 
ATOM      8  N   UNL     1       2.050   2.354  -0.365  0.00  0.00    +0.000 NA
BRANCH   3  10
ATOM      9  C   UNL     1       1.191  -0.463  -0.845  0.00  0.00    +0.000 C 
ATOM     10  C   UNL     1       2.436  -0.052  -0.052  0.00  0.00    +0.000 C 
ATOM     11  C   UNL     1       2.124  -0.013   1.447  0.00  0.00    +0.000 C 
BRANCH  10  12
ATOM     12  O   UNL     1       3.447  -1.049  -0.267  0.00  0.00    +0.000 OA
ATOM     13  H   UNL     1       3.073  -1.904   0.003  0.00  0.00    +0.000 HD
ENDBRANCH  10  12
ENDBRANCH   3  10
ENDBRANCH   1   6
BRANCH   2  14
ATOM     14  C   UNL     1       4.492   7.689  -2.217  0.00  0.00    +0.000 A 
ATOM     15  C   UNL     1       5.109   8.044  -3.416  0.00  0.00    +0.000 A 
ATOM     16  C   UNL     1       5.256   9.391  -3.749  0.00  0.00    +0.000 A 
ATOM     17  C   UNL     1       4.787  10.394  -2.886  0.00  0.00    +0.000 A 
ATOM     18  C   UNL     1       4.183  10.020  -1.675  0.00  0.00    +0.000 A 
ATOM     19  C   UNL     1       4.033   8.674  -1.344  0.00  0.00    +0.000 A 
BRANCH  17  20
ATOM     20  C   UNL     1       4.944  11.851  -3.239  0.00  0.00    +0.000 C 
BRANCH  20  21
ATOM     21  N   UNL     1       3.656  12.534  -3.310  0.00  0.00    +0.000 NA
ATOM     22  H   UNL     1       3.095  12.103  -4.043  0.00  0.00    +0.000 HD
ATOM     23  H   UNL     1       3.807  13.500  -3.591  0.00  0.00    +0.000 HD
ENDBRANCH  20  21
ENDBRANCH  17  20
ENDBRANCH   2  14
TORSDOF 6
