REMARK  Name = 
REMARK  6 active torsions:
REMARK  status: ('A' for Active; 'I' for Inactive)
REMARK    1  A    between atoms: C_2  and  C_4
REMARK    2  A    between atoms: N_8  and  C_9
REMARK    3  A    between atoms: C_9  and  C_10
REMARK    4  A    between atoms: C_10  and  C_11
REMARK    5  A    between atoms: C_15  and  O_16
REMARK    6  A    between atoms: O_16  and  C_17
REMARK                            x       y       z     vdW  Elec       q    Type
REMARK                         _______ _______ _______ _____ _____    ______ ____
ROOT
ATOM      1  C   UNL     1       2.736   1.463   0.587  0.00  0.00    +0.000 A 
ATOM      2  C   UNL     1       2.167   2.086   1.691  0.00  0.00    +0.000 A 
ATOM      3  C   UNL     1       2.966   2.895   2.497  0.00  0.00    +0.000 A 
ATOM      4  C   UNL     1       4.319   3.052   2.206  0.00  0.00    +0.000 A 
ATOM      5  N   UNL     1       5.146   3.909   2.920  0.00  0.00    +0.000 N 
ATOM      6  N   UNL     1       4.888   2.424   1.158  0.00  0.00    +0.000 NA
ATOM      7  C   UNL     1       4.094   1.640   0.375  0.00  0.00    +0.000 A 
ATOM      8  H   UNL     1       6.101   3.720   2.627  0.00  0.00    +0.000 HD
ENDROOT
BRANCH   1  10
ATOM      9  N   UNL     1       0.619   0.940  -0.476  0.00  0.00    +0.000 N 
ATOM     10  C   UNL     1       1.948   0.635  -0.349  0.00  0.00    +0.000 C 
ATOM     11  O   UNL     1       2.464  -0.253  -1.009  0.00  0.00    +0.000 OA
ATOM     12  H   UNL     1       0.109   0.441  -1.194  0.00  0.00    +0.000 HD
ATOM     13  H   UNL     1       0.228   1.811  -0.149  0.00  0.00    +0.000 HD
ENDBRANCH   1  10
BRANCH   5  14
ATOM     14  C   UNL     1       4.920   4.061   4.354  0.00  0.00    +0.000 C 
BRANCH  14  15
ATOM     15  C   UNL     1       5.958   4.994   4.985  0.00  0.00    +0.000 C 
BRANCH  15  16
ATOM     16  C   UNL     1       5.658   5.227   6.450  0.00  0.00    +0.000 A 
ATOM     17  C   UNL     1       4.825   6.279   6.851  0.00  0.00    +0.000 A 
ATOM     18  C   UNL     1       4.512   6.457   8.200  0.00  0.00    +0.000 A 
ATOM     19  C   UNL     1       5.026   5.588   9.167  0.00  0.00    +0.000 A 
ATOM     20  C   UNL     1       5.858   4.541   8.780  0.00  0.00    +0.000 A 
ATOM     21  C   UNL     1       6.163   4.357   7.427  0.00  0.00    +0.000 A 
BRANCH  20  22
ATOM     22  O   UNL     1       6.390   3.607   9.634  0.00  0.00    +0.000 OA
BRANCH  22  23
ATOM     23  C   UNL     1       6.583   3.949  11.025  0.00  0.00    +0.000 C 
ATOM     24  C   UNL     1       7.669   5.001  11.345  0.00  0.00    +0.000 C 
ATOM     25  C   UNL     1       8.258   4.058  12.401  0.00  0.00    +0.000 C 
ATOM     26  C   UNL     1       7.421   2.916  11.815  0.00  0.00    +0.000 C 
ENDBRANCH  22  23
ENDBRANCH  20  22
ENDBRANCH  15  16
ENDBRANCH  14  15
ENDBRANCH   5  14
TORSDOF 6
