REMARK  Name = 
REMARK  8 active torsions:
REMARK  status: ('A' for Active; 'I' for Inactive)
REMARK    1  A    between atoms: C_1  and  C_2
REMARK    2  A    between atoms: C_2  and  O_3
REMARK    3  A    between atoms: C_8  and  C_9
REMARK    4  A    between atoms: C_9  and  C_10
REMARK    5  A    between atoms: C_10  and  N_11
REMARK    6  A    between atoms: C_16  and  C_17
REMARK    7  A    between atoms: C_25  and  O_26
REMARK    8  A    between atoms: C_27  and  O_28
REMARK                            x       y       z     vdW  Elec       q    Type
REMARK                         _______ _______ _______ _____ _____    ______ ____
ROOT
ATOM      1  C   UNL     1       1.621  -2.163  -3.136  0.00  0.00    +0.000 C 
ATOM      2  C   UNL     1       2.483  -1.685  -1.959  0.00  0.00    +0.000 C 
ATOM      3  C   UNL     1       2.150  -0.228  -1.589  0.00  0.00    +0.000 C 
ATOM      4  N   UNL     1       2.709   0.733  -2.529  0.00  0.00    +0.000 N 
ATOM      5  C   UNL     1       1.840   1.500  -3.284  0.00  0.00    +0.000 A 
ATOM      6  C   UNL     1       2.247   2.767  -3.698  0.00  0.00    +0.000 A 
ATOM      7  C   UNL     1       1.426   3.577  -4.484  0.00  0.00    +0.000 A 
ATOM      8  C   UNL     1       0.170   3.075  -4.814  0.00  0.00    +0.000 A 
ATOM      9  C   UNL     1      -0.183   1.817  -4.349  0.00  0.00    +0.000 A 
ATOM     10  N   UNL     1       0.617   1.032  -3.591  0.00  0.00    +0.000 NA
ATOM     11  C   UNL     1       4.094   0.587  -2.983  0.00  0.00    +0.000 C 
ATOM     12  C   UNL     1       4.433  -0.854  -3.382  0.00  0.00    +0.000 C 
ATOM     13  C   UNL     1       3.993  -1.830  -2.284  0.00  0.00    +0.000 C 
ENDROOT
BRANCH   2  14
ATOM     14  O   UNL     1       2.184  -2.525  -0.829  0.00  0.00    +0.000 OA
ATOM     15  H   UNL     1       1.219  -2.566  -0.733  0.00  0.00    +0.000 HD
ENDBRANCH   2  14
BRANCH  12  16
ATOM     16  O   UNL     1       5.852  -0.964  -3.570  0.00  0.00    +0.000 OA
ATOM     17  H   UNL     1       6.212  -1.165  -2.680  0.00  0.00    +0.000 HD
ENDBRANCH  12  16
BRANCH  13  18
ATOM     18  O   UNL     1       4.864  -1.596  -1.150  0.00  0.00    +0.000 OA
ATOM     19  H   UNL     1       4.399  -1.019  -0.520  0.00  0.00    +0.000 HD
ENDBRANCH  13  18
BRANCH   7  20
ATOM     20  C   UNL     1       1.870   4.936  -4.983  0.00  0.00    +0.000 C 
BRANCH  20  21
ATOM     21  C   UNL     1       3.288   5.346  -4.551  0.00  0.00    +0.000 C 
BRANCH  21  22
ATOM     22  N   UNL     1       3.658   6.646  -5.080  0.00  0.00    +0.000 N 
ATOM     23  C   UNL     1       4.948   7.042  -4.729  0.00  0.00    +0.000 A 
ATOM     24  N   UNL     1       5.128   8.359  -4.588  0.00  0.00    +0.000 NA
ATOM     25  C   UNL     1       6.363   8.787  -4.256  0.00  0.00    +0.000 A 
ATOM     26  C   UNL     1       7.420   7.945  -4.042  0.00  0.00    +0.000 A 
ATOM     27  C   UNL     1       7.131   6.614  -4.199  0.00  0.00    +0.000 A 
ATOM     28  N   UNL     1       5.913   6.130  -4.535  0.00  0.00    +0.000 NA
ATOM     29  H   UNL     1       3.056   7.419  -4.818  0.00  0.00    +0.000 HD
BRANCH  27  30
ATOM     30  C   UNL     1       8.213   5.601  -3.997  0.00  0.00    +0.000 C 
ATOM     31  N   UNL     1       7.851   4.293  -4.165  0.00  0.00    +0.000 N 
ATOM     32  O   UNL     1       9.361   5.920  -3.703  0.00  0.00    +0.000 OA
ATOM     33  H   UNL     1       6.915   4.065  -4.475  0.00  0.00    +0.000 HD
ATOM     34  H   UNL     1       8.558   3.574  -4.112  0.00  0.00    +0.000 HD
ENDBRANCH  27  30
ENDBRANCH  21  22
ENDBRANCH  20  21
ENDBRANCH   7  20
TORSDOF 7
