REMARK  Name = 
REMARK  5 active torsions:
REMARK  status: ('A' for Active; 'I' for Inactive)
REMARK    1  A    between atoms: C_2  and  C_4
REMARK    2  A    between atoms: N_8  and  C_9
REMARK    3  A    between atoms: C_9  and  C_10
REMARK    4  A    between atoms: C_10  and  C_11
REMARK    5  A    between atoms: C_15  and  C_16
REMARK                            x       y       z     vdW  Elec       q    Type
REMARK                         _______ _______ _______ _____ _____    ______ ____
ROOT
ATOM      1  C   UNL     1       5.169   2.329  -5.472  0.00  0.00    +0.000 C 
ENDROOT
BRANCH   1   6
ATOM      2  C   UNL     1       3.348   0.492  -1.076  0.00  0.00    +0.000 A 
ATOM      3  C   UNL     1       2.973   1.596  -1.834  0.00  0.00    +0.000 A 
ATOM      4  C   UNL     1       3.677   1.879  -3.002  0.00  0.00    +0.000 A 
ATOM      5  C   UNL     1       4.739   1.063  -3.393  0.00  0.00    +0.000 A 
ATOM      6  N   UNL     1       5.466   1.275  -4.534  0.00  0.00    +0.000 N 
ATOM      7  N   UNL     1       5.119   0.005  -2.653  0.00  0.00    +0.000 NA
ATOM      8  C   UNL     1       4.429  -0.255  -1.512  0.00  0.00    +0.000 A 
ATOM      9  H   UNL     1       6.202   0.601  -4.698  0.00  0.00    +0.000 HD
BRANCH   2  11
ATOM     10  N   UNL     1       1.341   0.470   0.287  0.00  0.00    +0.000 N 
ATOM     11  C   UNL     1       2.654   0.107   0.167  0.00  0.00    +0.000 C 
ATOM     12  O   UNL     1       3.216  -0.544   1.041  0.00  0.00    +0.000 OA
ATOM     13  H   UNL     1       0.847   0.106   1.092  0.00  0.00    +0.000 HD
ATOM     14  H   UNL     1       0.785   0.769  -0.502  0.00  0.00    +0.000 HD
ENDBRANCH   2  11
ENDBRANCH   1   6
BRANCH   1  15
ATOM     15  C   UNL     1       6.093   2.308  -6.689  0.00  0.00    +0.000 C 
BRANCH  15  16
ATOM     16  C   UNL     1       5.682   3.441  -7.597  0.00  0.00    +0.000 A 
ATOM     17  C   UNL     1       4.699   3.233  -8.567  0.00  0.00    +0.000 A 
ATOM     18  C   UNL     1       4.164   4.314  -9.253  0.00  0.00    +0.000 A 
ATOM     19  C   UNL     1       4.626   5.606  -8.997  0.00  0.00    +0.000 A 
ATOM     20  C   UNL     1       5.671   5.843  -8.091  0.00  0.00    +0.000 A 
ATOM     21  C   UNL     1       6.164   4.741  -7.371  0.00  0.00    +0.000 A 
BRANCH  20  22
ATOM     22  C   UNL     1       6.250   7.233  -7.823  0.00  0.00    +0.000 C 
ATOM     23  C   UNL     1       5.656   8.387  -8.657  0.00  0.00    +0.000 C 
ATOM     24  C   UNL     1       6.132   8.358 -10.113  0.00  0.00    +0.000 C 
ATOM     25  N   UNL     1       7.590   8.381 -10.217  0.00  0.00    +0.000 NA
ATOM     26  C   UNL     1       8.199   7.281  -9.466  0.00  0.00    +0.000 C 
ATOM     27  C   UNL     1       7.784   7.281  -7.994  0.00  0.00    +0.000 C 
ATOM     28  H   UNL     1       7.938   9.268  -9.856  0.00  0.00    +0.000 HD
ENDBRANCH  20  22
ENDBRANCH  15  16
ENDBRANCH   1  15
TORSDOF 5
