REMARK  Name = 
REMARK  3 active torsions:
REMARK  status: ('A' for Active; 'I' for Inactive)
REMARK    1  A    between atoms: C_2  and  C_4
REMARK    2  A    between atoms: N_8  and  C_9
REMARK    3  A    between atoms: C_9  and  C_10
REMARK                            x       y       z     vdW  Elec       q    Type
REMARK                         _______ _______ _______ _____ _____    ______ ____
ROOT
ATOM      1  C   UNL     1       2.755  -0.309   1.436  0.00  0.00    +0.000 A 
ATOM      2  C   UNL     1       4.001   0.301   1.319  0.00  0.00    +0.000 A 
ATOM      3  C   UNL     1       4.895   0.222   2.388  0.00  0.00    +0.000 A 
ATOM      4  C   UNL     1       4.529  -0.449   3.557  0.00  0.00    +0.000 A 
ATOM      5  N   UNL     1       5.475  -0.516   4.595  0.00  0.00    +0.000 N 
ATOM      6  N   UNL     1       3.327  -1.046   3.674  0.00  0.00    +0.000 NA
ATOM      7  C   UNL     1       2.465  -0.955   2.628  0.00  0.00    +0.000 A 
ATOM      8  H   UNL     1       5.837   0.418   4.757  0.00  0.00    +0.000 HD
ENDROOT
BRANCH   1  10
ATOM      9  N   UNL     1       2.176  -0.143  -0.919  0.00  0.00    +0.000 N 
ATOM     10  C   UNL     1       1.736  -0.280   0.368  0.00  0.00    +0.000 C 
ATOM     11  O   UNL     1       0.544  -0.407   0.618  0.00  0.00    +0.000 OA
ATOM     12  H   UNL     1       1.474  -0.233  -1.644  0.00  0.00    +0.000 HD
ATOM     13  H   UNL     1       3.139  -0.289  -1.185  0.00  0.00    +0.000 HD
ENDBRANCH   1  10
BRANCH   5  14
ATOM     14  C   UNL     1       4.994  -1.152   5.821  0.00  0.00    +0.000 C 
BRANCH  14  15
ATOM     15  C   UNL     1       6.043  -1.086   6.949  0.00  0.00    +0.000 C 
ATOM     16  C   UNL     1       6.325   0.348   7.424  0.00  0.00    +0.000 C 
ATOM     17  C   UNL     1       7.404   0.358   8.500  0.00  0.00    +0.000 C 
ATOM     18  O   UNL     1       8.592  -0.275   8.026  0.00  0.00    +0.000 OA
ATOM     19  C   UNL     1       8.377  -1.649   7.703  0.00  0.00    +0.000 C 
ATOM     20  C   UNL     1       7.357  -1.788   6.579  0.00  0.00    +0.000 C 
ENDBRANCH  14  15
ENDBRANCH   5  14
TORSDOF 3
