REMARK  Name = 
REMARK  5 active torsions:
REMARK  status: ('A' for Active; 'I' for Inactive)
REMARK    1  A    between atoms: C_2  and  C_4
REMARK    2  A    between atoms: C_7  and  O_8
REMARK    3  A    between atoms: O_8  and  C_9
REMARK    4  A    between atoms: C_9  and  C_10
REMARK    5  A    between atoms: C_14  and  N_15
REMARK                            x       y       z     vdW  Elec       q    Type
REMARK                         _______ _______ _______ _____ _____    ______ ____
ROOT
ATOM      1  C   UNL     1       5.271  -5.845   1.127  0.00  0.00    +0.000 C 
ENDROOT
BRANCH   1   2
ATOM      2  C   UNL     1       6.204  -6.882   1.697  0.00  0.00    +0.000 A 
ATOM      3  C   UNL     1       5.913  -8.228   1.507  0.00  0.00    +0.000 A 
ATOM      4  N   UNL     1       6.684  -9.240   1.949  0.00  0.00    +0.000 NA
ATOM      5  C   UNL     1       7.805  -8.887   2.622  0.00  0.00    +0.000 A 
ATOM      6  C   UNL     1       8.223  -7.579   2.892  0.00  0.00    +0.000 A 
ATOM      7  C   UNL     1       7.375  -6.576   2.406  0.00  0.00    +0.000 A 
BRANCH   6   8
ATOM      8  N   UNL     1       9.380  -7.299   3.581  0.00  0.00    +0.000 N 
ATOM      9  C   UNL     1       9.549  -6.114   4.432  0.00  0.00    +0.000 C 
ATOM     10  C   UNL     1      10.755  -5.291   3.959  0.00  0.00    +0.000 C 
ATOM     11  O   UNL     1      11.945  -6.095   3.877  0.00  0.00    +0.000 OA
ATOM     12  C   UNL     1      11.751  -7.181   2.955  0.00  0.00    +0.000 C 
ATOM     13  C   UNL     1      10.599  -8.101   3.396  0.00  0.00    +0.000 C 
ENDBRANCH   6   8
ENDBRANCH   1   2
BRANCH   1  14
ATOM     14  O   UNL     1       5.711  -4.515   1.405  0.00  0.00    +0.000 OA
BRANCH  14  18
ATOM     15  C   UNL     1       3.545  -1.216   0.042  0.00  0.00    +0.000 A 
ATOM     16  C   UNL     1       3.061  -2.496  -0.251  0.00  0.00    +0.000 A 
ATOM     17  C   UNL     1       3.758  -3.630   0.187  0.00  0.00    +0.000 A 
ATOM     18  C   UNL     1       4.939  -3.493   0.921  0.00  0.00    +0.000 A 
ATOM     19  C   UNL     1       5.420  -2.212   1.207  0.00  0.00    +0.000 A 
ATOM     20  C   UNL     1       4.732  -1.078   0.766  0.00  0.00    +0.000 A 
BRANCH  15  22
ATOM     21  N   UNL     1       1.499  -0.059  -0.602  0.00  0.00    +0.000 N 
ATOM     22  C   UNL     1       2.853   0.011  -0.429  0.00  0.00    +0.000 C 
ATOM     23  O   UNL     1       3.461   1.056  -0.624  0.00  0.00    +0.000 OA
ATOM     24  H   UNL     1       1.034   0.814  -0.818  0.00  0.00    +0.000 HD
ATOM     25  H   UNL     1       0.941  -0.800  -0.203  0.00  0.00    +0.000 HD
ENDBRANCH  15  22
ENDBRANCH  14  18
ENDBRANCH   1  14
TORSDOF 5
