REMARK  Name = 
REMARK  5 active torsions:
REMARK  status: ('A' for Active; 'I' for Inactive)
REMARK    1  A    between atoms: N_1  and  C_2
REMARK    2  A    between atoms: C_2  and  C_3
REMARK    3  A    between atoms: C_6  and  C_7
REMARK    4  A    between atoms: C_7  and  N_8
REMARK    5  A    between atoms: C_13  and  C_14
REMARK                            x       y       z     vdW  Elec       q    Type
REMARK                         _______ _______ _______ _____ _____    ______ ____
ROOT
ATOM      1  N   UNL     1       6.037   5.654  -0.309  0.00  0.00    +0.000 N 
ATOM      2  C   UNL     1       6.314   6.476   0.756  0.00  0.00    +0.000 A 
ATOM      3  C   UNL     1       7.681   6.485   0.938  0.00  0.00    +0.000 A 
ATOM      4  C   UNL     1       8.255   5.646  -0.053  0.00  0.00    +0.000 A 
ATOM      5  C   UNL     1       9.557   5.211  -0.364  0.00  0.00    +0.000 A 
ATOM      6  C   UNL     1       9.712   4.330  -1.442  0.00  0.00    +0.000 A 
ATOM      7  C   UNL     1       8.581   3.978  -2.176  0.00  0.00    +0.000 A 
ATOM      8  N   UNL     1       7.310   4.388  -1.931  0.00  0.00    +0.000 NA
ATOM      9  C   UNL     1       7.210   5.188  -0.852  0.00  0.00    +0.000 A 
ENDROOT
BRANCH   6  10
ATOM     10  C   UNL     1      11.009   3.729  -1.836  0.00  0.00    +0.000 C 
ATOM     11  N   UNL     1      12.123   4.028  -1.100  0.00  0.00    +0.000 N 
ATOM     12  O   UNL     1      11.096   2.966  -2.791  0.00  0.00    +0.000 OA
ATOM     13  H   UNL     1      12.145   4.615  -0.283  0.00  0.00    +0.000 HD
ATOM     14  H   UNL     1      12.984   3.571  -1.375  0.00  0.00    +0.000 HD
ENDBRANCH   6  10
BRANCH   1  15
ATOM     15  C   UNL     1       4.703   5.327  -0.786  0.00  0.00    +0.000 C 
BRANCH  15  19
ATOM     16  C   UNL     1       2.812   1.378  -0.689  0.00  0.00    +0.000 C 
ATOM     17  C   UNL     1       4.228   1.491  -0.109  0.00  0.00    +0.000 C 
ATOM     18  C   UNL     1       4.917   2.800  -0.482  0.00  0.00    +0.000 C 
ATOM     19  C   UNL     1       4.091   4.056  -0.149  0.00  0.00    +0.000 C 
ATOM     20  C   UNL     1       2.625   3.922  -0.603  0.00  0.00    +0.000 C 
ATOM     21  C   UNL     1       1.993   2.586  -0.211  0.00  0.00    +0.000 C 
BRANCH  16  22
ATOM     22  C   UNL     1       2.776   1.256  -2.228  0.00  0.00    +0.000 C 
BRANCH  22  23
ATOM     23  N   UNL     1       3.481   0.074  -2.709  0.00  0.00    +0.000 NA
ATOM     24  H   UNL     1       3.408   0.027  -3.725  0.00  0.00    +0.000 HD
ATOM     25  H   UNL     1       3.036  -0.766  -2.348  0.00  0.00    +0.000 HD
ENDBRANCH  22  23
ENDBRANCH  16  22
ENDBRANCH  15  19
ENDBRANCH   1  15
TORSDOF 5
