REMARK  Name = 
REMARK  4 active torsions:
REMARK  status: ('A' for Active; 'I' for Inactive)
REMARK    1  A    between atoms: C_2  and  C_4
REMARK    2  A    between atoms: N_8  and  C_9
REMARK    3  A    between atoms: C_9  and  C_10
REMARK    4  A    between atoms: C_14  and  C_15
REMARK                            x       y       z     vdW  Elec       q    Type
REMARK                         _______ _______ _______ _____ _____    ______ ____
ROOT
ATOM      1  C   UNL     1       4.802   4.004  -4.560  0.00  0.00    +0.000 C 
ATOM      2  C   UNL     1       4.509   5.398  -4.024  0.00  0.00    +0.000 C 
ATOM      3  C   UNL     1       3.394   4.588  -4.591  0.00  0.00    +0.000 C 
ENDROOT
BRANCH   1   8
ATOM      4  C   UNL     1       8.111   2.723  -0.787  0.00  0.00    +0.000 A 
ATOM      5  C   UNL     1       8.273   3.579  -1.872  0.00  0.00    +0.000 A 
ATOM      6  C   UNL     1       7.262   3.656  -2.831  0.00  0.00    +0.000 A 
ATOM      7  C   UNL     1       6.109   2.888  -2.694  0.00  0.00    +0.000 A 
ATOM      8  N   UNL     1       5.066   2.908  -3.621  0.00  0.00    +0.000 N 
ATOM      9  N   UNL     1       5.950   2.045  -1.652  0.00  0.00    +0.000 NA
ATOM     10  C   UNL     1       6.949   1.970  -0.733  0.00  0.00    +0.000 A 
ATOM     11  H   UNL     1       4.301   2.342  -3.267  0.00  0.00    +0.000 HD
BRANCH   4  13
ATOM     12  N   UNL     1       9.958   3.630   0.505  0.00  0.00    +0.000 N 
ATOM     13  C   UNL     1       9.121   2.570   0.282  0.00  0.00    +0.000 C 
ATOM     14  O   UNL     1       9.190   1.556   0.960  0.00  0.00    +0.000 OA
ATOM     15  H   UNL     1      10.578   3.553   1.299  0.00  0.00    +0.000 HD
ATOM     16  H   UNL     1       9.779   4.557   0.141  0.00  0.00    +0.000 HD
ENDBRANCH   4  13
ENDBRANCH   1   8
BRANCH   1  17
ATOM     17  C   UNL     1       5.471   3.864  -5.924  0.00  0.00    +0.000 A 
ATOM     18  C   UNL     1       5.016   2.942  -6.877  0.00  0.00    +0.000 A 
ATOM     19  C   UNL     1       5.537   2.927  -8.172  0.00  0.00    +0.000 A 
ATOM     20  C   UNL     1       6.523   3.845  -8.539  0.00  0.00    +0.000 A 
ATOM     21  C   UNL     1       7.017   4.782  -7.619  0.00  0.00    +0.000 A 
ATOM     22  C   UNL     1       6.500   4.739  -6.315  0.00  0.00    +0.000 A 
BRANCH  21  23
ATOM     23  C   UNL     1       7.946   5.860  -8.011  0.00  0.00    +0.000 A 
ATOM     24  C   UNL     1       7.769   6.543  -9.230  0.00  0.00    +0.000 A 
ATOM     25  C   UNL     1       8.570   7.633  -9.581  0.00  0.00    +0.000 A 
ATOM     26  C   UNL     1       9.564   8.070  -8.714  0.00  0.00    +0.000 A 
ATOM     27  C   UNL     1       9.754   7.407  -7.509  0.00  0.00    +0.000 A 
ATOM     28  F   UNL     1      10.695   7.840  -6.661  0.00  0.00    +0.000 F 
ATOM     29  C   UNL     1       8.968   6.311  -7.157  0.00  0.00    +0.000 A 
ENDBRANCH  21  23
ENDBRANCH   1  17
TORSDOF 4
