REMARK  Name = 
REMARK  4 active torsions:
REMARK  status: ('A' for Active; 'I' for Inactive)
REMARK    1  A    between atoms: C_2  and  C_4
REMARK    2  A    between atoms: C_7  and  N_8
REMARK    3  A    between atoms: N_8  and  C_9
REMARK    4  A    between atoms: C_9  and  C_10
REMARK                            x       y       z     vdW  Elec       q    Type
REMARK                         _______ _______ _______ _____ _____    ______ ____
ROOT
ATOM      1  N   UNL     1       5.415  -4.110  -1.979  0.00  0.00    +0.000 N 
ATOM      2  H   UNL     1       4.610  -3.547  -1.721  0.00  0.00    +0.000 HD
ENDROOT
BRANCH   1   6
ATOM      3  C   UNL     1       8.890  -1.717  -2.373  0.00  0.00    +0.000 A 
ATOM      4  C   UNL     1       7.754  -1.224  -1.725  0.00  0.00    +0.000 A 
ATOM      5  C   UNL     1       6.614  -2.031  -1.596  0.00  0.00    +0.000 A 
ATOM      6  C   UNL     1       6.580  -3.322  -2.140  0.00  0.00    +0.000 A 
ATOM      7  C   UNL     1       7.735  -3.810  -2.761  0.00  0.00    +0.000 A 
ATOM      8  C   UNL     1       8.875  -3.012  -2.895  0.00  0.00    +0.000 A 
BRANCH   3  10
ATOM      9  N   UNL     1      10.356   0.082  -1.629  0.00  0.00    +0.000 N 
ATOM     10  C   UNL     1      10.118  -0.899  -2.551  0.00  0.00    +0.000 C 
ATOM     11  O   UNL     1      10.909  -1.113  -3.460  0.00  0.00    +0.000 OA
ATOM     12  H   UNL     1      11.254   0.544  -1.697  0.00  0.00    +0.000 HD
ATOM     13  H   UNL     1       9.886   0.103  -0.736  0.00  0.00    +0.000 HD
ENDBRANCH   3  10
ENDBRANCH   1   6
BRANCH   1  14
ATOM     14  C   UNL     1       5.123  -5.230  -2.911  0.00  0.00    +0.000 C 
ATOM     15  C   UNL     1       4.976  -4.886  -4.386  0.00  0.00    +0.000 C 
ATOM     16  C   UNL     1       3.764  -5.266  -3.606  0.00  0.00    +0.000 C 
BRANCH  14  17
ATOM     17  C   UNL     1       5.598  -6.605  -2.430  0.00  0.00    +0.000 A 
ATOM     18  C   UNL     1       5.268  -7.067  -1.139  0.00  0.00    +0.000 A 
ATOM     19  C   UNL     1       5.601  -8.355  -0.707  0.00  0.00    +0.000 A 
ATOM     20  C   UNL     1       6.276  -9.219  -1.563  0.00  0.00    +0.000 A 
ATOM     21  C   UNL     1       6.639  -8.778  -2.831  0.00  0.00    +0.000 A 
ATOM     22 CL   UNL     1       7.459  -9.844  -3.905  0.00  0.00    +0.000 Cl
ATOM     23  C   UNL     1       6.319  -7.487  -3.254  0.00  0.00    +0.000 A 
ENDBRANCH  14  17
ENDBRANCH   1  14
TORSDOF 4
