REMARK  Name = 
REMARK  9 active torsions:
REMARK  status: ('A' for Active; 'I' for Inactive)
REMARK    1  A    between atoms: C_2  and  C_22
REMARK    2  A    between atoms: N_3  and  C_4
REMARK    3  A    between atoms: C_4  and  C_5
REMARK    4  A    between atoms: C_8  and  O_9
REMARK    5  A    between atoms: O_9  and  C_10
REMARK    6  A    between atoms: C_14  and  C_15
REMARK    7  A    between atoms: C_15  and  O_16
REMARK    8  A    between atoms: C_15  and  C_17
REMARK    9  A    between atoms: C_17  and  O_18
REMARK                            x       y       z     vdW  Elec       q    Type
REMARK                         _______ _______ _______ _____ _____    ______ ____
ROOT
ATOM      1  C   UNL     1       3.282  -3.455   1.272  0.00  0.00    +0.000 A 
ATOM      2  C   UNL     1       4.515  -3.104   1.835  0.00  0.00    +0.000 A 
ATOM      3  C   UNL     1       5.420  -4.089   2.236  0.00  0.00    +0.000 A 
ATOM      4  C   UNL     1       5.079  -5.439   2.134  0.00  0.00    +0.000 A 
ATOM      5  C   UNL     1       3.877  -5.798   1.520  0.00  0.00    +0.000 A 
ATOM      6  C   UNL     1       2.986  -4.812   1.083  0.00  0.00    +0.000 A 
ENDROOT
BRANCH   1   7
ATOM      7  C   UNL     1       2.317  -2.379   0.845  0.00  0.00    +0.000 C 
BRANCH   7  10
ATOM      8  O   UNL     1       3.796  -0.073   0.185  0.00  0.00    +0.000 OA
ATOM      9  C   UNL     1       3.386  -0.796  -0.719  0.00  0.00    +0.000 C 
ATOM     10  N   UNL     1       2.616  -1.904  -0.482  0.00  0.00    +0.000 N 
ATOM     11  H   UNL     1       2.439  -2.558  -1.237  0.00  0.00    +0.000 HD
BRANCH   9  12
ATOM     12  C   UNL     1       3.663  -0.487  -2.129  0.00  0.00    +0.000 A 
ATOM     13  C   UNL     1       4.008   0.807  -2.495  0.00  0.00    +0.000 A 
ATOM     14  S   UNL     1       4.302   0.992  -4.164  0.00  0.00    +0.000 S 
ATOM     15  C   UNL     1       4.023  -0.661  -4.452  0.00  0.00    +0.000 A 
ATOM     16  N   UNL     1       4.157  -1.186  -5.700  0.00  0.00    +0.000 NA
ATOM     17  C   UNL     1       3.960  -2.460  -5.767  0.00  0.00    +0.000 A 
ATOM     18  N   UNL     1       3.622  -3.254  -4.703  0.00  0.00    +0.000 N 
ATOM     19  C   UNL     1       3.390  -2.754  -3.445  0.00  0.00    +0.000 A 
ATOM     20  O   UNL     1       2.937  -3.467  -2.553  0.00  0.00    +0.000 OA
ATOM     21  C   UNL     1       3.667  -1.337  -3.298  0.00  0.00    +0.000 A 
ATOM     22  H   UNL     1       3.440  -4.239  -4.831  0.00  0.00    +0.000 HD
ENDBRANCH   9  12
ENDBRANCH   7  10
ENDBRANCH   1   7
BRANCH   4  23
ATOM     23  O   UNL     1       5.885  -6.478   2.547  0.00  0.00    +0.000 OA
BRANCH  23  24
ATOM     24  C   UNL     1       6.693  -6.333   3.655  0.00  0.00    +0.000 A 
ATOM     25  C   UNL     1       6.397  -5.518   4.750  0.00  0.00    +0.000 A 
ATOM     26  C   UNL     1       7.303  -5.403   5.803  0.00  0.00    +0.000 A 
ATOM     27  C   UNL     1       8.468  -6.168   5.812  0.00  0.00    +0.000 A 
ATOM     28  C   UNL     1       8.733  -7.074   4.773  0.00  0.00    +0.000 A 
ATOM     29  C   UNL     1       7.842  -7.129   3.686  0.00  0.00    +0.000 A 
BRANCH  28  30
ATOM     30  C   UNL     1       9.906  -8.036   4.839  0.00  0.00    +0.000 C 
BRANCH  30  31
ATOM     31  O   UNL     1      11.128  -7.307   4.949  0.00  0.00    +0.000 OA
ATOM     32  H   UNL     1      11.130  -6.845   5.802  0.00  0.00    +0.000 HD
ENDBRANCH  30  31
BRANCH  30  33
ATOM     33  C   UNL     1       9.766  -9.034   6.007  0.00  0.00    +0.000 C 
BRANCH  33  34
ATOM     34  O   UNL     1       8.623  -9.875   5.877  0.00  0.00    +0.000 OA
ATOM     35  H   UNL     1       7.837  -9.298   5.857  0.00  0.00    +0.000 HD
ENDBRANCH  33  34
ENDBRANCH  30  33
ENDBRANCH  28  30
ENDBRANCH  23  24
ENDBRANCH   4  23
TORSDOF 9
