REMARK  Name = 
REMARK  5 active torsions:
REMARK  status: ('A' for Active; 'I' for Inactive)
REMARK    1  A    between atoms: C_1  and  C_2
REMARK    2  A    between atoms: C_2  and  O_3
REMARK    3  A    between atoms: C_2  and  C_13
REMARK    4  A    between atoms: O_3  and  C_4
REMARK    5  A    between atoms: C_7  and  C_8
REMARK                            x       y       z     vdW  Elec       q    Type
REMARK                         _______ _______ _______ _____ _____    ______ ____
ROOT
ATOM      1  C   UNL     1       2.469  -0.608   2.215  0.00  0.00    +0.000 A 
ATOM      2  N   UNL     1       2.410  -1.646   3.062  0.00  0.00    +0.000 NA
ATOM      3  C   UNL     1       1.944  -1.377   4.303  0.00  0.00    +0.000 A 
ATOM      4  C   UNL     1       1.562  -0.121   4.719  0.00  0.00    +0.000 A 
ATOM      5  C   UNL     1       1.680   0.871   3.771  0.00  0.00    +0.000 A 
ATOM      6  N   UNL     1       2.147   0.662   2.519  0.00  0.00    +0.000 NA
ENDROOT
BRANCH   4   7
ATOM      7  C   UNL     1       1.024   0.082   6.072  0.00  0.00    +0.000 C 
ATOM      8  N   UNL     1       1.062   1.342   6.598  0.00  0.00    +0.000 N 
ATOM      9  O   UNL     1       0.575  -0.855   6.718  0.00  0.00    +0.000 OA
ATOM     10  H   UNL     1       1.614   2.099   6.220  0.00  0.00    +0.000 HD
ATOM     11  H   UNL     1       0.761   1.431   7.562  0.00  0.00    +0.000 HD
ENDBRANCH   4   7
BRANCH   1  12
ATOM     12  O   UNL     1       2.844  -0.936   0.933  0.00  0.00    +0.000 OA
BRANCH  12  14
ATOM     13  C   UNL     1       0.883   0.040  -0.185  0.00  0.00    +0.000 C 
ATOM     14  C   UNL     1       2.415  -0.026  -0.088  0.00  0.00    +0.000 C 
BRANCH  14  15
ATOM     15  C   UNL     1       3.004  -0.507  -1.445  0.00  0.00    +0.000 C 
ATOM     16  C   UNL     1       2.546  -1.932  -1.820  0.00  0.00    +0.000 C 
ATOM     17  C   UNL     1       3.119  -2.378  -3.163  0.00  0.00    +0.000 C 
ATOM     18  C   UNL     1       4.639  -2.286  -3.182  0.00  0.00    +0.000 C 
ATOM     19  C   UNL     1       5.117  -0.889  -2.799  0.00  0.00    +0.000 C 
ATOM     20  C   UNL     1       4.544  -0.441  -1.453  0.00  0.00    +0.000 C 
ENDBRANCH  14  15
ENDBRANCH  12  14
ENDBRANCH   1  12
TORSDOF 4
