REMARK  Name = 
REMARK  8 active torsions:
REMARK  status: ('A' for Active; 'I' for Inactive)
REMARK    1  A    between atoms: C_2  and  C_21
REMARK    2  A    between atoms: N_3  and  C_4
REMARK    3  A    between atoms: C_4  and  C_5
REMARK    4  A    between atoms: C_8  and  C_9
REMARK    5  A    between atoms: C_9  and  O_10
REMARK    6  A    between atoms: C_9  and  C_11
REMARK    7  A    between atoms: C_11  and  C_12
REMARK    8  A    between atoms: C_12  and  C_13
REMARK                            x       y       z     vdW  Elec       q    Type
REMARK                         _______ _______ _______ _____ _____    ______ ____
ROOT
ATOM      1  C   UNL     1       7.201  -6.473   5.790  0.00  0.00    +0.000 A 
ATOM      2  C   UNL     1       7.295  -5.397   4.914  0.00  0.00    +0.000 A 
ATOM      3  N   UNL     1       6.825  -5.429   3.638  0.00  0.00    +0.000 NA
ATOM      4  C   UNL     1       6.247  -6.600   3.247  0.00  0.00    +0.000 A 
ATOM      5  C   UNL     1       6.142  -7.672   4.126  0.00  0.00    +0.000 A 
ATOM      6  N   UNL     1       6.612  -7.634   5.399  0.00  0.00    +0.000 NA
ENDROOT
BRANCH   1   7
ATOM      7  C   UNL     1       7.800  -6.407   7.174  0.00  0.00    +0.000 C 
BRANCH   7  10
ATOM      8  O   UNL     1       9.465  -6.233   9.387  0.00  0.00    +0.000 OA
ATOM      9  C   UNL     1       9.936  -6.693   8.351  0.00  0.00    +0.000 C 
ATOM     10  N   UNL     1       9.212  -6.737   7.183  0.00  0.00    +0.000 N 
ATOM     11  H   UNL     1       9.525  -7.364   6.448  0.00  0.00    +0.000 HD
BRANCH   9  12
ATOM     12  C   UNL     1      11.321  -7.182   8.289  0.00  0.00    +0.000 A 
ATOM     13  C   UNL     1      12.264  -6.720   9.198  0.00  0.00    +0.000 A 
ATOM     14  S   UNL     1      13.814  -7.398   8.977  0.00  0.00    +0.000 S 
ATOM     15  C   UNL     1      13.269  -8.368   7.693  0.00  0.00    +0.000 A 
ATOM     16  N   UNL     1      14.106  -9.241   7.067  0.00  0.00    +0.000 NA
ATOM     17  C   UNL     1      13.549  -9.941   6.136  0.00  0.00    +0.000 A 
ATOM     18  N   UNL     1      12.233  -9.832   5.760  0.00  0.00    +0.000 N 
ATOM     19  C   UNL     1      11.372  -8.925   6.322  0.00  0.00    +0.000 A 
ATOM     20  O   UNL     1      10.228  -8.784   5.897  0.00  0.00    +0.000 OA
ATOM     21  C   UNL     1      11.932  -8.148   7.409  0.00  0.00    +0.000 A 
ATOM     22  H   UNL     1      11.866 -10.388   5.003  0.00  0.00    +0.000 HD
ENDBRANCH   9  12
ENDBRANCH   7  10
ENDBRANCH   1   7
BRANCH   4  23
ATOM     23  C   UNL     1       5.813  -6.727   1.798  0.00  0.00    +0.000 C 
BRANCH  23  24
ATOM     24  O   UNL     1       6.661  -5.900   0.988  0.00  0.00    +0.000 OA
ATOM     25  H   UNL     1       7.012  -5.219   1.600  0.00  0.00    +0.000 HD
ENDBRANCH  23  24
BRANCH  23  26
ATOM     26  C   UNL     1       4.357  -6.306   1.549  0.00  0.00    +0.000 C 
BRANCH  26  27
ATOM     27  C   UNL     1       3.963  -6.508   0.076  0.00  0.00    +0.000 C 
BRANCH  27  28
ATOM     28  C   UNL     1       2.557  -6.051  -0.235  0.00  0.00    +0.000 A 
ATOM     29  C   UNL     1       2.317  -4.724  -0.621  0.00  0.00    +0.000 A 
ATOM     30  C   UNL     1       1.025  -4.297  -0.936  0.00  0.00    +0.000 A 
ATOM     31  C   UNL     1      -0.043  -5.190  -0.863  0.00  0.00    +0.000 A 
ATOM     32  C   UNL     1       0.183  -6.510  -0.476  0.00  0.00    +0.000 A 
ATOM     33  C   UNL     1       1.475  -6.939  -0.161  0.00  0.00    +0.000 A 
ENDBRANCH  27  28
ENDBRANCH  26  27
ENDBRANCH  23  26
ENDBRANCH   4  23
TORSDOF 8
