REMARK  Name = 
REMARK  5 active torsions:
REMARK  status: ('A' for Active; 'I' for Inactive)
REMARK    1  A    between atoms: C_2  and  C_4
REMARK    2  A    between atoms: N_8  and  C_9
REMARK    3  A    between atoms: C_9  and  C_10
REMARK    4  A    between atoms: C_10  and  O_11
REMARK    5  A    between atoms: C_10  and  C_12
REMARK                            x       y       z     vdW  Elec       q    Type
REMARK                         _______ _______ _______ _____ _____    ______ ____
ROOT
ATOM      1  C   UNL     1       3.104  -1.180   0.528  0.00  0.00    +0.000 A 
ATOM      2  C   UNL     1       4.457  -0.889   0.593  0.00  0.00    +0.000 A 
ATOM      3  C   UNL     1       5.343  -1.899   0.982  0.00  0.00    +0.000 A 
ATOM      4  C   UNL     1       4.870  -3.174   1.260  0.00  0.00    +0.000 A 
ATOM      5  N   UNL     1       5.804  -4.161   1.584  0.00  0.00    +0.000 N 
ATOM      6  N   UNL     1       3.552  -3.475   1.165  0.00  0.00    +0.000 NA
ATOM      7  C   UNL     1       2.694  -2.468   0.833  0.00  0.00    +0.000 A 
ATOM      8  H   UNL     1       6.355  -3.967   2.412  0.00  0.00    +0.000 HD
ENDROOT
BRANCH   1  10
ATOM      9  N   UNL     1       2.467   0.863  -0.624  0.00  0.00    +0.000 N 
ATOM     10  C   UNL     1       2.081  -0.159   0.198  0.00  0.00    +0.000 C 
ATOM     11  O   UNL     1       0.950  -0.241   0.619  0.00  0.00    +0.000 OA
ATOM     12  H   UNL     1       1.737   1.506  -0.910  0.00  0.00    +0.000 HD
ATOM     13  H   UNL     1       3.307   0.827  -1.181  0.00  0.00    +0.000 HD
ENDBRANCH   1  10
BRANCH   5  14
ATOM     14  C   UNL     1       5.408  -5.562   1.382  0.00  0.00    +0.000 C 
BRANCH  14  15
ATOM     15  C   UNL     1       6.457  -6.551   1.954  0.00  0.00    +0.000 C 
BRANCH  15  16
ATOM     16  C   UNL     1       6.173  -8.011   1.623  0.00  0.00    +0.000 A 
ATOM     17  C   UNL     1       7.250  -8.904   1.493  0.00  0.00    +0.000 A 
ATOM     18  C   UNL     1       7.031 -10.258   1.222  0.00  0.00    +0.000 A 
ATOM     19  C   UNL     1       5.735 -10.746   1.088  0.00  0.00    +0.000 A 
ATOM     20  C   UNL     1       4.654  -9.876   1.213  0.00  0.00    +0.000 A 
ATOM     21  C   UNL     1       4.872  -8.523   1.477  0.00  0.00    +0.000 A 
ENDBRANCH  15  16
BRANCH  15  22
ATOM     22  O   UNL     1       6.520  -6.415   3.377  0.00  0.00    +0.000 OA
ATOM     23  H   UNL     1       5.694  -6.780   3.732  0.00  0.00    +0.000 HD
ENDBRANCH  15  22
ENDBRANCH  14  15
ENDBRANCH   5  14
TORSDOF 5
