REMARK  Name = 
REMARK  3 active torsions:
REMARK  status: ('A' for Active; 'I' for Inactive)
REMARK    1  A    between atoms: C_2  and  C_4
REMARK    2  A    between atoms: N_8  and  C_9
REMARK    3  A    between atoms: C_9  and  C_10
REMARK                            x       y       z     vdW  Elec       q    Type
REMARK                         _______ _______ _______ _____ _____    ______ ____
ROOT
ATOM      1  C   UNL     1       3.220  -0.931  -0.993  0.00  0.00    +0.000 A 
ATOM      2  C   UNL     1       2.588  -1.243  -2.191  0.00  0.00    +0.000 A 
ATOM      3  C   UNL     1       3.231  -2.086  -3.097  0.00  0.00    +0.000 A 
ATOM      4  C   UNL     1       4.497  -2.583  -2.801  0.00  0.00    +0.000 A 
ATOM      5  N   UNL     1       5.159  -3.489  -3.590  0.00  0.00    +0.000 N 
ATOM      6  N   UNL     1       5.127  -2.266  -1.654  0.00  0.00    +0.000 NA
ATOM      7  C   UNL     1       4.489  -1.445  -0.779  0.00  0.00    +0.000 A 
ATOM      8  H   UNL     1       6.084  -3.671  -3.214  0.00  0.00    +0.000 HD
ENDROOT
BRANCH   1  10
ATOM      9  N   UNL     1       1.231  -0.084   0.106  0.00  0.00    +0.000 N 
ATOM     10  C   UNL     1       2.598  -0.090   0.049  0.00  0.00    +0.000 C 
ATOM     11  O   UNL     1       3.271   0.539   0.852  0.00  0.00    +0.000 OA
ATOM     12  H   UNL     1       0.818   0.402   0.891  0.00  0.00    +0.000 HD
ATOM     13  H   UNL     1       0.664  -0.777  -0.362  0.00  0.00    +0.000 HD
ENDBRANCH   1  10
BRANCH   5  14
ATOM     14  C   UNL     1       5.033  -3.538  -5.031  0.00  0.00    +0.000 C 
BRANCH  14  15
ATOM     15  C   UNL     1       4.546  -4.892  -5.478  0.00  0.00    +0.000 A 
ATOM     16  C   UNL     1       3.688  -5.685  -4.706  0.00  0.00    +0.000 A 
ATOM     17  C   UNL     1       3.267  -6.923  -5.181  0.00  0.00    +0.000 A 
ATOM     18  C   UNL     1       3.702  -7.325  -6.430  0.00  0.00    +0.000 A 
ATOM     19  N   UNL     1       4.502  -6.579  -7.223  0.00  0.00    +0.000 NA
ATOM     20  C   UNL     1       4.901  -5.384  -6.730  0.00  0.00    +0.000 A 
ENDBRANCH  14  15
ENDBRANCH   5  14
TORSDOF 3
