REMARK  Name = 
REMARK  8 active torsions:
REMARK  status: ('A' for Active; 'I' for Inactive)
REMARK    1  A    between atoms: C_1  and  O_2
REMARK    2  A    between atoms: O_2  and  C_3
REMARK    3  A    between atoms: C_7  and  N_8
REMARK    4  A    between atoms: N_8  and  C_9
REMARK    5  A    between atoms: C_9  and  C_10
REMARK    6  A    between atoms: C_15  and  C_16
REMARK    7  A    between atoms: C_19  and  O_20
REMARK    8  A    between atoms: O_20  and  C_21
REMARK                            x       y       z     vdW  Elec       q    Type
REMARK                         _______ _______ _______ _____ _____    ______ ____
ROOT
ATOM      1  C   UNL     1       1.990  -6.060  -2.832  0.00  0.00    +0.000 A 
ATOM      2  C   UNL     1       2.307  -7.209  -2.105  0.00  0.00    +0.000 A 
ATOM      3  C   UNL     1       2.206  -8.454  -2.711  0.00  0.00    +0.000 A 
ATOM      4  F   UNL     1       2.496  -9.554  -2.009  0.00  0.00    +0.000 F 
ATOM      5  C   UNL     1       1.796  -8.580  -4.039  0.00  0.00    +0.000 A 
ATOM      6  C   UNL     1       1.487  -7.447  -4.806  0.00  0.00    +0.000 A 
ATOM      7  C   UNL     1       1.608  -6.190  -4.179  0.00  0.00    +0.000 A 
ENDROOT
BRANCH   6   8
ATOM      8  C   UNL     1       1.033  -7.557  -6.209  0.00  0.00    +0.000 A 
ATOM      9  C   UNL     1       1.489  -8.556  -7.079  0.00  0.00    +0.000 A 
ATOM     10  C   UNL     1       1.027  -8.617  -8.396  0.00  0.00    +0.000 A 
ATOM     11  C   UNL     1       0.120  -7.662  -8.821  0.00  0.00    +0.000 A 
ATOM     12  N   UNL     1      -0.351  -6.683  -8.027  0.00  0.00    +0.000 NA
ATOM     13  C   UNL     1       0.108  -6.661  -6.755  0.00  0.00    +0.000 A 
BRANCH  11  14
ATOM     14  O   UNL     1      -0.306  -7.746 -10.130  0.00  0.00    +0.000 OA
ATOM     15  C   UNL     1      -1.223  -6.709 -10.472  0.00  0.00    +0.000 C 
ENDBRANCH  11  14
ENDBRANCH   6   8
BRANCH   1  16
ATOM     16  C   UNL     1       2.073  -4.696  -2.197  0.00  0.00    +0.000 C 
BRANCH  16  17
ATOM     17  N   UNL     1       3.424  -4.182  -2.319  0.00  0.00    +0.000 N 
ATOM     18  H   UNL     1       3.875  -4.401  -3.205  0.00  0.00    +0.000 HD
BRANCH  17  23
ATOM     19  C   UNL     1       3.294  -0.910  -0.529  0.00  0.00    +0.000 A 
ATOM     20  C   UNL     1       4.592  -0.500  -0.803  0.00  0.00    +0.000 A 
ATOM     21  N   UNL     1       5.474  -1.208  -1.543  0.00  0.00    +0.000 NA
ATOM     22  C   UNL     1       5.029  -2.391  -2.029  0.00  0.00    +0.000 A 
ATOM     23  C   UNL     1       3.741  -2.907  -1.845  0.00  0.00    +0.000 A 
ATOM     24  C   UNL     1       2.883  -2.136  -1.052  0.00  0.00    +0.000 A 
BRANCH  19  26
ATOM     25  C   UNL     1       1.207  -0.479   0.516  0.00  0.00    +0.000 C 
ATOM     26  O   UNL     1       2.541  -0.069   0.240  0.00  0.00    +0.000 OA
ENDBRANCH  19  26
ENDBRANCH  17  23
ENDBRANCH  16  17
ENDBRANCH   1  16
TORSDOF 6
