REMARK  Name = 
REMARK  5 active torsions:
REMARK  status: ('A' for Active; 'I' for Inactive)
REMARK    1  A    between atoms: C_2  and  C_4
REMARK    2  A    between atoms: C_7  and  N_8
REMARK    3  A    between atoms: N_8  and  C_9
REMARK    4  A    between atoms: C_9  and  C_10
REMARK    5  A    between atoms: C_14  and  C_15
REMARK                            x       y       z     vdW  Elec       q    Type
REMARK                         _______ _______ _______ _____ _____    ______ ____
ROOT
ATOM      1  N   UNL     1       5.504  -0.284   4.892  0.00  0.00    +0.000 N 
ATOM      2  H   UNL     1       5.644   0.722   4.909  0.00  0.00    +0.000 HD
ENDROOT
BRANCH   1   6
ATOM      3  C   UNL     1       4.824  -1.929   1.073  0.00  0.00    +0.000 A 
ATOM      4  C   UNL     1       4.226  -2.514   2.190  0.00  0.00    +0.000 A 
ATOM      5  C   UNL     1       4.402  -1.949   3.457  0.00  0.00    +0.000 A 
ATOM      6  C   UNL     1       5.167  -0.792   3.644  0.00  0.00    +0.000 A 
ATOM      7  C   UNL     1       5.764  -0.220   2.510  0.00  0.00    +0.000 A 
ATOM      8  C   UNL     1       5.598  -0.779   1.237  0.00  0.00    +0.000 A 
BRANCH   3  10
ATOM      9  N   UNL     1       3.591  -3.286  -0.527  0.00  0.00    +0.000 N 
ATOM     10  C   UNL     1       4.705  -2.533  -0.277  0.00  0.00    +0.000 C 
ATOM     11  O   UNL     1       5.549  -2.349  -1.143  0.00  0.00    +0.000 OA
ATOM     12  H   UNL     1       3.475  -3.617  -1.474  0.00  0.00    +0.000 HD
ATOM     13  H   UNL     1       2.773  -3.257   0.066  0.00  0.00    +0.000 HD
ENDBRANCH   3  10
ENDBRANCH   1   6
BRANCH   1  14
ATOM     14  C   UNL     1       4.952  -0.823   6.124  0.00  0.00    +0.000 C 
BRANCH  14  15
ATOM     15  C   UNL     1       5.889  -0.543   7.270  0.00  0.00    +0.000 A 
ATOM     16  C   UNL     1       7.222  -0.954   7.217  0.00  0.00    +0.000 A 
ATOM     17  C   UNL     1       8.018  -0.764   8.330  0.00  0.00    +0.000 A 
ATOM     18  N   UNL     1       7.579  -0.209   9.481  0.00  0.00    +0.000 NA
ATOM     19  C   UNL     1       6.278   0.190   9.542  0.00  0.00    +0.000 A 
ATOM     20  C   UNL     1       5.420   0.040   8.450  0.00  0.00    +0.000 A 
BRANCH  19  21
ATOM     21  C   UNL     1       5.809   0.750  10.832  0.00  0.00    +0.000 A 
ATOM     22  C   UNL     1       6.642   0.843  11.949  0.00  0.00    +0.000 A 
ATOM     23  C   UNL     1       6.138   1.352  13.144  0.00  0.00    +0.000 A 
ATOM     24  C   UNL     1       4.814   1.761  13.202  0.00  0.00    +0.000 A 
ATOM     25  C   UNL     1       4.045   1.645  12.058  0.00  0.00    +0.000 A 
ATOM     26  N   UNL     1       4.507   1.154  10.887  0.00  0.00    +0.000 NA
ENDBRANCH  19  21
ENDBRANCH  14  15
ENDBRANCH   1  14
TORSDOF 5
