REMARK  Name = 
REMARK  7 active torsions:
REMARK  status: ('A' for Active; 'I' for Inactive)
REMARK    1  A    between atoms: C_1  and  O_2
REMARK    2  A    between atoms: O_2  and  C_3
REMARK    3  A    between atoms: C_5  and  C_6
REMARK    4  A    between atoms: C_6  and  N_7
REMARK    5  A    between atoms: N_7  and  C_8
REMARK    6  A    between atoms: C_11  and  C_12
REMARK    7  A    between atoms: C_21  and  C_22
REMARK                            x       y       z     vdW  Elec       q    Type
REMARK                         _______ _______ _______ _____ _____    ______ ____
ROOT
ATOM      1  C   UNL     1       3.233   1.252  -4.557  0.00  0.00    +0.000 C 
ATOM      2  C   UNL     1       3.248   2.766  -4.638  0.00  0.00    +0.000 C 
ATOM      3  C   UNL     1       1.935   2.060  -4.609  0.00  0.00    +0.000 C 
ENDROOT
BRANCH   1   6
ATOM      4  C   UNL     1       5.233   0.213  -1.409  0.00  0.00    +0.000 A 
ATOM      5  C   UNL     1       4.894   0.731  -2.672  0.00  0.00    +0.000 A 
ATOM      6  C   UNL     1       3.600   0.607  -3.219  0.00  0.00    +0.000 A 
ATOM      7  C   UNL     1       2.657  -0.110  -2.469  0.00  0.00    +0.000 A 
ATOM      8  C   UNL     1       2.968  -0.617  -1.205  0.00  0.00    +0.000 A 
ATOM      9  C   UNL     1       4.246  -0.449  -0.654  0.00  0.00    +0.000 A 
BRANCH   9  10
ATOM     10  C   UNL     1       4.434  -0.954   0.743  0.00  0.00    +0.000 C 
ATOM     11  N   UNL     1       5.638  -0.755   1.351  0.00  0.00    +0.000 N 
ATOM     12  O   UNL     1       3.528  -1.512   1.353  0.00  0.00    +0.000 OA
ATOM     13  H   UNL     1       6.419  -0.350   0.849  0.00  0.00    +0.000 HD
ATOM     14  H   UNL     1       5.770  -1.098   2.291  0.00  0.00    +0.000 HD
ENDBRANCH   9  10
BRANCH   4  16
ATOM     15  C   UNL     1       7.359   1.308  -1.377  0.00  0.00    +0.000 C 
ATOM     16  O   UNL     1       6.503   0.282  -0.891  0.00  0.00    +0.000 OA
ENDBRANCH   4  16
ENDBRANCH   1   6
BRANCH   1  17
ATOM     17  N   UNL     1       3.431   0.394  -5.732  0.00  0.00    +0.000 N 
ATOM     18  H   UNL     1       2.769  -0.363  -5.846  0.00  0.00    +0.000 HD
BRANCH  17  19
ATOM     19  C   UNL     1       4.602   0.243  -6.496  0.00  0.00    +0.000 A 
ATOM     20  C   UNL     1       5.748   1.025  -6.350  0.00  0.00    +0.000 A 
ATOM     21  C   UNL     1       6.843   0.869  -7.219  0.00  0.00    +0.000 A 
ATOM     22  C   UNL     1       6.802  -0.067  -8.259  0.00  0.00    +0.000 A 
ATOM     23  C   UNL     1       5.652  -0.843  -8.426  0.00  0.00    +0.000 A 
ATOM     24  C   UNL     1       4.573  -0.683  -7.552  0.00  0.00    +0.000 A 
BRANCH  22  25
ATOM     25  C   UNL     1       7.955  -0.161  -9.193  0.00  0.00    +0.000 C 
ATOM     26  N   UNL     1       8.113  -1.329  -9.888  0.00  0.00    +0.000 N 
ATOM     27  O   UNL     1       8.751   0.759  -9.326  0.00  0.00    +0.000 OA
ATOM     28  H   UNL     1       7.628  -2.182  -9.652  0.00  0.00    +0.000 HD
ATOM     29  H   UNL     1       8.942  -1.404 -10.466  0.00  0.00    +0.000 HD
ENDBRANCH  22  25
ENDBRANCH  17  19
ENDBRANCH   1  17
TORSDOF 6
