REMARK  Name = 
REMARK  7 active torsions:
REMARK  status: ('A' for Active; 'I' for Inactive)
REMARK    1  A    between atoms: C_2  and  C_19
REMARK    2  A    between atoms: N_3  and  C_4
REMARK    3  A    between atoms: C_4  and  C_5
REMARK    4  A    between atoms: C_8  and  C_9
REMARK    5  A    between atoms: C_9  and  N_10
REMARK    6  A    between atoms: N_10  and  C_11
REMARK    7  A    between atoms: C_14  and  O_15
REMARK                            x       y       z     vdW  Elec       q    Type
REMARK                         _______ _______ _______ _____ _____    ______ ____
ROOT
ATOM      1  C   UNL     1       5.572   6.340  12.209  0.00  0.00    +0.000 C 
ENDROOT
BRANCH   1   2
ATOM      2  C   UNL     1       5.441   6.772  10.773  0.00  0.00    +0.000 A 
ATOM      3  C   UNL     1       6.519   6.628   9.890  0.00  0.00    +0.000 A 
ATOM      4  C   UNL     1       6.389   6.990   8.548  0.00  0.00    +0.000 A 
ATOM      5  C   UNL     1       5.180   7.507   8.059  0.00  0.00    +0.000 A 
ATOM      6  C   UNL     1       4.115   7.684   8.951  0.00  0.00    +0.000 A 
ATOM      7  C   UNL     1       4.246   7.326  10.296  0.00  0.00    +0.000 A 
BRANCH   5   8
ATOM      8  C   UNL     1       5.044   7.912   6.609  0.00  0.00    +0.000 C 
BRANCH   8   9
ATOM      9  N   UNL     1       5.354   6.797   5.710  0.00  0.00    +0.000 NA
ATOM     10  H   UNL     1       4.756   6.010   5.968  0.00  0.00    +0.000 HD
BRANCH   9  11
ATOM     11  C   UNL     1       5.151   7.122   4.295  0.00  0.00    +0.000 C 
ATOM     12  C   UNL     1       6.104   8.229   3.792  0.00  0.00    +0.000 C 
ATOM     13  C   UNL     1       6.930   7.613   2.669  0.00  0.00    +0.000 C 
ATOM     14  C   UNL     1       6.927   6.129   2.996  0.00  0.00    +0.000 C 
ATOM     15  C   UNL     1       5.486   5.898   3.426  0.00  0.00    +0.000 C 
BRANCH  14  16
ATOM     16  O   UNL     1       7.286   5.341   1.877  0.00  0.00    +0.000 OA
ATOM     17  H   UNL     1       6.680   5.551   1.147  0.00  0.00    +0.000 HD
ENDBRANCH  14  16
ENDBRANCH   9  11
ENDBRANCH   8   9
ENDBRANCH   5   8
ENDBRANCH   1   2
BRANCH   1  20
ATOM     18  O   UNL     1       8.262   6.536  12.979  0.00  0.00    +0.000 OA
ATOM     19  C   UNL     1       7.477   7.403  13.353  0.00  0.00    +0.000 C 
ATOM     20  N   UNL     1       6.145   7.374  13.033  0.00  0.00    +0.000 N 
ATOM     21  H   UNL     1       5.568   8.190  13.209  0.00  0.00    +0.000 HD
BRANCH  19  22
ATOM     22  C   UNL     1       7.915   8.495  14.231  0.00  0.00    +0.000 A 
ATOM     23  C   UNL     1       9.069   8.340  14.989  0.00  0.00    +0.000 A 
ATOM     24  S   UNL     1       9.433   9.688  15.966  0.00  0.00    +0.000 S 
ATOM     25  C   UNL     1       8.089  10.547  15.375  0.00  0.00    +0.000 A 
ATOM     26  N   UNL     1       7.837  11.819  15.785  0.00  0.00    +0.000 NA
ATOM     27  C   UNL     1       6.812  12.368  15.225  0.00  0.00    +0.000 A 
ATOM     28  N   UNL     1       6.005  11.755  14.302  0.00  0.00    +0.000 N 
ATOM     29  C   UNL     1       6.171  10.444  13.925  0.00  0.00    +0.000 A 
ATOM     30  O   UNL     1       5.344   9.880  13.213  0.00  0.00    +0.000 OA
ATOM     31  C   UNL     1       7.348   9.801  14.475  0.00  0.00    +0.000 A 
ATOM     32  H   UNL     1       5.195  12.228  13.931  0.00  0.00    +0.000 HD
ENDBRANCH  19  22
ENDBRANCH   1  20
TORSDOF 7
