REMARK  Name = 
REMARK  5 active torsions:
REMARK  status: ('A' for Active; 'I' for Inactive)
REMARK    1  A    between atoms: C_2  and  C_18
REMARK    2  A    between atoms: N_3  and  C_4
REMARK    3  A    between atoms: C_4  and  C_5
REMARK    4  A    between atoms: C_8  and  C_9
REMARK    5  A    between atoms: C_9  and  C_10
REMARK                            x       y       z     vdW  Elec       q    Type
REMARK                         _______ _______ _______ _____ _____    ______ ____
ROOT
ATOM      1  O   UNL     1       1.320   3.045  -0.701  0.00  0.00    +0.000 OA
ATOM      2  C   UNL     1       2.176   2.168  -0.772  0.00  0.00    +0.000 C 
ATOM      3  N   UNL     1       2.639   1.503   0.332  0.00  0.00    +0.000 N 
ATOM      4  H   UNL     1       3.453   0.904   0.248  0.00  0.00    +0.000 HD
ENDROOT
BRANCH   2   5
ATOM      5  C   UNL     1       2.722   1.737  -2.065  0.00  0.00    +0.000 A 
ATOM      6  C   UNL     1       1.996   1.955  -3.227  0.00  0.00    +0.000 A 
ATOM      7  S   UNL     1       2.780   1.401  -4.637  0.00  0.00    +0.000 S 
ATOM      8  C   UNL     1       4.135   0.885  -3.746  0.00  0.00    +0.000 A 
ATOM      9  N   UNL     1       5.216   0.342  -4.367  0.00  0.00    +0.000 NA
ATOM     10  C   UNL     1       6.190   0.036  -3.576  0.00  0.00    +0.000 A 
ATOM     11  N   UNL     1       6.172   0.204  -2.215  0.00  0.00    +0.000 N 
ATOM     12  C   UNL     1       5.070   0.669  -1.537  0.00  0.00    +0.000 A 
ATOM     13  O   UNL     1       5.031   0.664  -0.314  0.00  0.00    +0.000 OA
ATOM     14  C   UNL     1       3.974   1.093  -2.388  0.00  0.00    +0.000 A 
ATOM     15  H   UNL     1       6.953  -0.092  -1.648  0.00  0.00    +0.000 HD
ENDBRANCH   2   5
BRANCH   3  16
ATOM     16  C   UNL     1       2.211   1.825   1.669  0.00  0.00    +0.000 C 
BRANCH  16  17
ATOM     17  C   UNL     1       3.146   2.786   2.340  0.00  0.00    +0.000 A 
ATOM     18  C   UNL     1       2.998   4.166   2.192  0.00  0.00    +0.000 A 
ATOM     19  C   UNL     1       3.846   5.032   2.878  0.00  0.00    +0.000 A 
ATOM     20  C   UNL     1       4.843   4.495   3.687  0.00  0.00    +0.000 A 
ATOM     21  N   UNL     1       5.036   3.157   3.815  0.00  0.00    +0.000 NA
ATOM     22  C   UNL     1       4.194   2.341   3.137  0.00  0.00    +0.000 A 
BRANCH  20  23
ATOM     23  C   UNL     1       5.709   5.396   4.534  0.00  0.00    +0.000 C 
BRANCH  23  24
ATOM     24  C   UNL     1       5.089   5.700   5.874  0.00  0.00    +0.000 A 
ATOM     25  C   UNL     1       4.861   4.684   6.801  0.00  0.00    +0.000 A 
ATOM     26  N   UNL     1       4.274   4.900   8.004  0.00  0.00    +0.000 NA
ATOM     27  C   UNL     1       3.922   6.180   8.249  0.00  0.00    +0.000 A 
ATOM     28  C   UNL     1       4.158   7.201   7.345  0.00  0.00    +0.000 A 
ATOM     29  N   UNL     1       4.744   6.988   6.143  0.00  0.00    +0.000 NA
ENDBRANCH  23  24
ENDBRANCH  20  23
ENDBRANCH  16  17
ENDBRANCH   3  16
TORSDOF 5
