REMARK  Name = 
REMARK  9 active torsions:
REMARK  status: ('A' for Active; 'I' for Inactive)
REMARK    1  A    between atoms: C_1  and  C_2
REMARK    2  A    between atoms: C_7  and  C_8
REMARK    3  A    between atoms: N_10  and  C_11
REMARK    4  A    between atoms: C_11  and  C_12
REMARK    5  A    between atoms: C_15  and  C_16
REMARK    6  A    between atoms: C_16  and  N_17
REMARK    7  A    between atoms: N_17  and  C_18
REMARK    8  A    between atoms: C_18  and  C_19
REMARK    9  A    between atoms: C_18  and  C_20
REMARK                            x       y       z     vdW  Elec       q    Type
REMARK                         _______ _______ _______ _____ _____    ______ ____
ROOT
ATOM      1  C   UNL     1       8.573   3.040  -0.045  0.00  0.00    +0.000 C 
ENDROOT
BRANCH   1   2
ATOM      2  C   UNL     1       8.016   4.443  -0.043  0.00  0.00    +0.000 A 
ATOM      3  C   UNL     1       8.867   5.558  -0.028  0.00  0.00    +0.000 A 
ATOM      4  C   UNL     1       8.341   6.856  -0.038  0.00  0.00    +0.000 A 
ATOM      5  C   UNL     1       6.954   7.066  -0.058  0.00  0.00    +0.000 A 
ATOM      6  C   UNL     1       6.108   5.951  -0.052  0.00  0.00    +0.000 A 
ATOM      7  C   UNL     1       6.632   4.656  -0.038  0.00  0.00    +0.000 A 
BRANCH   5   8
ATOM      8  C   UNL     1       6.366   8.458  -0.034  0.00  0.00    +0.000 C 
BRANCH   8   9
ATOM      9  N   UNL     1       6.795   9.248  -1.187  0.00  0.00    +0.000 NA
ATOM     10  H   UNL     1       6.513   8.741  -2.030  0.00  0.00    +0.000 HD
BRANCH   9  11
ATOM     11  C   UNL     1       6.158  10.580  -1.238  0.00  0.00    +0.000 C 
ATOM     12  C   UNL     1       6.488  11.448  -0.016  0.00  0.00    +0.000 C 
BRANCH  11  13
ATOM     13  C   UNL     1       6.554  11.321  -2.508  0.00  0.00    +0.000 A 
ATOM     14  C   UNL     1       7.892  11.589  -2.798  0.00  0.00    +0.000 A 
ATOM     15  N   UNL     1       8.291  12.257  -3.908  0.00  0.00    +0.000 NA
ATOM     16  C   UNL     1       7.295  12.642  -4.733  0.00  0.00    +0.000 A 
ATOM     17  C   UNL     1       5.964  12.377  -4.463  0.00  0.00    +0.000 A 
ATOM     18  N   UNL     1       5.563  11.716  -3.352  0.00  0.00    +0.000 NA
ENDBRANCH  11  13
ENDBRANCH   9  11
ENDBRANCH   8   9
ENDBRANCH   5   8
ENDBRANCH   1   2
BRANCH   1  21
ATOM     19  C   UNL     1       9.246   1.268   1.527  0.00  0.00    +0.000 C 
ATOM     20  O   UNL     1       9.543   0.516   0.602  0.00  0.00    +0.000 OA
ATOM     21  N   UNL     1       8.761   2.530   1.294  0.00  0.00    +0.000 N 
ATOM     22  H   UNL     1       8.511   3.145   2.062  0.00  0.00    +0.000 HD
BRANCH  19  29
ATOM     23  C   UNL     1       8.603   2.865   8.171  0.00  0.00    +0.000 C 
ATOM     24  C   UNL     1       8.821   2.315   6.792  0.00  0.00    +0.000 A 
ATOM     25  N   UNL     1       9.286   1.121   6.604  0.00  0.00    +0.000 NA
ATOM     26  C   UNL     1       9.428   0.764   5.297  0.00  0.00    +0.000 A 
ATOM     27  S   UNL     1      10.028  -0.770   4.876  0.00  0.00    +0.000 S 
ATOM     28  C   UNL     1       9.897  -0.425   3.211  0.00  0.00    +0.000 A 
ATOM     29  C   UNL     1       9.403   0.845   2.933  0.00  0.00    +0.000 A 
ATOM     30  C   UNL     1       9.130   1.529   4.181  0.00  0.00    +0.000 A 
ATOM     31  C   UNL     1       8.607   2.855   4.445  0.00  0.00    +0.000 A 
ATOM     32  O   UNL     1       8.279   3.659   3.576  0.00  0.00    +0.000 OA
ATOM     33  N   UNL     1       8.489   3.175   5.775  0.00  0.00    +0.000 N 
ATOM     34  H   UNL     1       8.124   4.098   5.970  0.00  0.00    +0.000 HD
ENDBRANCH  19  29
ENDBRANCH   1  21
TORSDOF 7
