REMARK  Name = 
REMARK  10 active torsions:
REMARK  status: ('A' for Active; 'I' for Inactive)
REMARK    1  A    between atoms: C_1  and  O_2
REMARK    2  A    between atoms: O_2  and  C_3
REMARK    3  A    between atoms: C_10  and  C_11
REMARK    4  A    between atoms: N_13  and  C_14
REMARK    5  A    between atoms: C_14  and  C_15
REMARK    6  A    between atoms: C_18  and  N_19
REMARK    7  A    between atoms: N_19  and  C_20
REMARK    8  A    between atoms: C_20  and  C_21
REMARK    9  A    between atoms: C_20  and  C_22
REMARK   10  A    between atoms: C_20  and  C_23
REMARK                            x       y       z     vdW  Elec       q    Type
REMARK                         _______ _______ _______ _____ _____    ______ ____
ROOT
ATOM      1  C   UNL     1       1.676   0.196  -3.221  0.00  0.00    +0.000 A 
ATOM      2  C   UNL     1       1.940  -1.174  -3.291  0.00  0.00    +0.000 A 
ATOM      3  C   UNL     1       0.893  -2.102  -3.277  0.00  0.00    +0.000 A 
ATOM      4  C   UNL     1      -0.442  -1.704  -3.172  0.00  0.00    +0.000 A 
ATOM      5  C   UNL     1      -0.699  -0.327  -3.199  0.00  0.00    +0.000 A 
ATOM      6  C   UNL     1       0.342   0.613  -3.213  0.00  0.00    +0.000 A 
ENDROOT
BRANCH   4   7
ATOM      7  N   UNL     1      -1.520  -2.573  -3.051  0.00  0.00    +0.000 N 
ATOM      8  H   UNL     1      -2.124  -2.561  -3.870  0.00  0.00    +0.000 HD
BRANCH   7   9
ATOM      9  C   UNL     1      -1.493  -3.894  -2.370  0.00  0.00    +0.000 C 
ATOM     10  C   UNL     1      -1.005  -4.977  -3.353  0.00  0.00    +0.000 C 
ATOM     11  C   UNL     1      -0.651  -3.848  -1.080  0.00  0.00    +0.000 C 
BRANCH   9  12
ATOM     12  C   UNL     1      -2.929  -4.281  -1.909  0.00  0.00    +0.000 A 
ATOM     13  C   UNL     1      -3.862  -3.304  -1.556  0.00  0.00    +0.000 A 
ATOM     14  C   UNL     1      -5.118  -3.698  -1.087  0.00  0.00    +0.000 A 
ATOM     15  C   UNL     1      -5.405  -5.049  -0.960  0.00  0.00    +0.000 A 
ATOM     16  C   UNL     1      -4.427  -5.958  -1.307  0.00  0.00    +0.000 A 
ATOM     17  N   UNL     1      -3.207  -5.607  -1.771  0.00  0.00    +0.000 NA
ENDBRANCH   9  12
ENDBRANCH   7   9
ENDBRANCH   4   7
BRANCH   1  18
ATOM     18  C   UNL     1       2.811   1.186  -3.202  0.00  0.00    +0.000 C 
BRANCH  18  21
ATOM     19  C   UNL     1       4.323   2.291  -4.797  0.00  0.00    +0.000 C 
ATOM     20  O   UNL     1       4.978   2.791  -3.886  0.00  0.00    +0.000 OA
ATOM     21  N   UNL     1       3.240   1.497  -4.540  0.00  0.00    +0.000 N 
ATOM     22  H   UNL     1       2.663   1.169  -5.300  0.00  0.00    +0.000 HD
BRANCH  19  30
ATOM     23  C   UNL     1       3.047   1.111  -7.770  0.00  0.00    +0.000 A 
ATOM     24  N   UNL     1       2.785   0.775  -9.049  0.00  0.00    +0.000 NA
ATOM     25  C   UNL     1       3.568   1.283 -10.004  0.00  0.00    +0.000 A 
ATOM     26  N   UNL     1       4.597   2.108  -9.842  0.00  0.00    +0.000 NA
ATOM     27  C   UNL     1       4.823   2.420  -8.554  0.00  0.00    +0.000 A 
ATOM     28  S   UNL     1       6.095   3.472  -8.159  0.00  0.00    +0.000 S 
ATOM     29  C   UNL     1       5.751   3.345  -6.500  0.00  0.00    +0.000 A 
ATOM     30  C   UNL     1       4.678   2.511  -6.209  0.00  0.00    +0.000 A 
ATOM     31  C   UNL     1       4.111   1.973  -7.445  0.00  0.00    +0.000 A 
BRANCH  23  33
ATOM     32  C   UNL     1       1.531  -0.564  -7.155  0.00  0.00    +0.000 C 
ATOM     33  O   UNL     1       2.197   0.642  -6.791  0.00  0.00    +0.000 OA
ENDBRANCH  23  33
ENDBRANCH  19  30
ENDBRANCH  18  21
ENDBRANCH   1  18
TORSDOF 7
