REMARK  Name = 
REMARK  5 active torsions:
REMARK  status: ('A' for Active; 'I' for Inactive)
REMARK    1  A    between atoms: C_1  and  O_2
REMARK    2  A    between atoms: O_2  and  C_3
REMARK    3  A    between atoms: C_5  and  C_6
REMARK    4  A    between atoms: N_12  and  C_13
REMARK    5  A    between atoms: C_13  and  C_14
REMARK                            x       y       z     vdW  Elec       q    Type
REMARK                         _______ _______ _______ _____ _____    ______ ____
ROOT
ATOM      1  C   UNL     1       3.086  -0.059  -1.069  0.00  0.00    +0.000 A 
ATOM      2  C   UNL     1       2.750   0.621  -2.248  0.00  0.00    +0.000 A 
ATOM      3  C   UNL     1       3.490   0.433  -3.440  0.00  0.00    +0.000 A 
ATOM      4  N   UNL     1       4.586  -0.383  -3.630  0.00  0.00    +0.000 NA
ATOM      5  C   UNL     1       4.905  -1.018  -2.478  0.00  0.00    +0.000 A 
ATOM      6  C   UNL     1       5.932  -1.901  -2.303  0.00  0.00    +0.000 A 
ATOM      7  N   UNL     1       5.850  -2.275  -0.992  0.00  0.00    +0.000 N 
ATOM      8  N   UNL     1       4.832  -1.698  -0.314  0.00  0.00    +0.000 NA
ATOM      9  C   UNL     1       4.217  -0.898  -1.211  0.00  0.00    +0.000 A 
ENDROOT
BRANCH   3  10
ATOM     10  C   UNL     1       3.041   1.211  -4.648  0.00  0.00    +0.000 C 
ATOM     11  N   UNL     1       3.774   1.024  -5.787  0.00  0.00    +0.000 N 
ATOM     12  O   UNL     1       2.079   1.966  -4.625  0.00  0.00    +0.000 OA
ATOM     13  H   UNL     1       4.574   0.403  -5.784  0.00  0.00    +0.000 HD
ATOM     14  H   UNL     1       3.522   1.534  -6.622  0.00  0.00    +0.000 HD
ENDBRANCH   3  10
BRANCH   1  16
ATOM     15  C   UNL     1       1.084   0.452   0.068  0.00  0.00    +0.000 C 
ATOM     16  O   UNL     1       2.452   0.062   0.133  0.00  0.00    +0.000 OA
ENDBRANCH   1  16
BRANCH   7  17
ATOM     17  C   UNL     1       6.686  -3.263  -0.314  0.00  0.00    +0.000 C 
BRANCH  17  18
ATOM     18  C   UNL     1       7.899  -2.652   0.309  0.00  0.00    +0.000 A 
ATOM     19  C   UNL     1       7.832  -1.701   1.309  0.00  0.00    +0.000 A 
ATOM     20  N   UNL     1       8.915  -1.154   1.897  0.00  0.00    +0.000 NA
ATOM     21  C   UNL     1      10.104  -1.591   1.457  0.00  0.00    +0.000 A 
ATOM     22  N   UNL     1      10.297  -2.517   0.507  0.00  0.00    +0.000 NA
ATOM     23  C   UNL     1       9.180  -3.031  -0.044  0.00  0.00    +0.000 A 
ENDBRANCH  17  18
ENDBRANCH   7  17
TORSDOF 4
