REMARK  Name = 
REMARK  8 active torsions:
REMARK  status: ('A' for Active; 'I' for Inactive)
REMARK    1  A    between atoms: C_2  and  C_21
REMARK    2  A    between atoms: N_3  and  C_4
REMARK    3  A    between atoms: C_4  and  C_5
REMARK    4  A    between atoms: C_8  and  C_9
REMARK    5  A    between atoms: C_9  and  C_10
REMARK    6  A    between atoms: C_10  and  O_11
REMARK    7  A    between atoms: C_10  and  C_12
REMARK    8  A    between atoms: C_12  and  C_13
REMARK                            x       y       z     vdW  Elec       q    Type
REMARK                         _______ _______ _______ _____ _____    ______ ____
ROOT
ATOM      1  C   UNL     1       3.178   0.692  -3.478  0.00  0.00    +0.000 A 
ATOM      2  C   UNL     1       3.376   2.005  -3.925  0.00  0.00    +0.000 A 
ATOM      3  C   UNL     1       4.294   2.282  -4.942  0.00  0.00    +0.000 A 
ATOM      4  C   UNL     1       5.032   1.252  -5.539  0.00  0.00    +0.000 A 
ATOM      5  C   UNL     1       4.801  -0.067  -5.121  0.00  0.00    +0.000 A 
ATOM      6  C   UNL     1       3.878  -0.344  -4.107  0.00  0.00    +0.000 A 
ENDROOT
BRANCH   1   7
ATOM      7  C   UNL     1       2.203   0.402  -2.366  0.00  0.00    +0.000 C 
BRANCH   7  10
ATOM      8  O   UNL     1      -0.054  -0.235  -0.847  0.00  0.00    +0.000 OA
ATOM      9  C   UNL     1      -0.178  -0.085  -2.059  0.00  0.00    +0.000 C 
ATOM     10  N   UNL     1       0.887   0.148  -2.889  0.00  0.00    +0.000 N 
ATOM     11  H   UNL     1       0.716   0.473  -3.834  0.00  0.00    +0.000 HD
BRANCH   9  12
ATOM     12  C   UNL     1      -1.483  -0.192  -2.719  0.00  0.00    +0.000 A 
ATOM     13  C   UNL     1      -2.491  -0.970  -2.168  0.00  0.00    +0.000 A 
ATOM     14  S   UNL     1      -3.923  -0.982  -3.099  0.00  0.00    +0.000 S 
ATOM     15  C   UNL     1      -3.255   0.084  -4.246  0.00  0.00    +0.000 A 
ATOM     16  N   UNL     1      -3.975   0.509  -5.318  0.00  0.00    +0.000 NA
ATOM     17  C   UNL     1      -3.353   1.345  -6.083  0.00  0.00    +0.000 A 
ATOM     18  N   UNL     1      -2.074   1.791  -5.870  0.00  0.00    +0.000 N 
ATOM     19  C   UNL     1      -1.296   1.357  -4.829  0.00  0.00    +0.000 A 
ATOM     20  O   UNL     1      -0.131   1.726  -4.715  0.00  0.00    +0.000 OA
ATOM     21  C   UNL     1      -1.955   0.434  -3.928  0.00  0.00    +0.000 A 
ATOM     22  H   UNL     1      -1.634   2.432  -6.518  0.00  0.00    +0.000 HD
ENDBRANCH   9  12
ENDBRANCH   7  10
ENDBRANCH   1   7
BRANCH   4  23
ATOM     23  C   UNL     1       6.066   1.552  -6.605  0.00  0.00    +0.000 C 
BRANCH  23  24
ATOM     24  C   UNL     1       7.211   2.459  -6.105  0.00  0.00    +0.000 C 
BRANCH  24  25
ATOM     25  O   UNL     1       7.887   1.805  -5.023  0.00  0.00    +0.000 OA
ATOM     26  H   UNL     1       8.257   0.973  -5.356  0.00  0.00    +0.000 HD
ENDBRANCH  24  25
BRANCH  24  27
ATOM     27  C   UNL     1       8.214   2.767  -7.231  0.00  0.00    +0.000 C 
BRANCH  27  28
ATOM     28  C   UNL     1       9.335   3.686  -6.792  0.00  0.00    +0.000 A 
ATOM     29  C   UNL     1      10.506   3.154  -6.230  0.00  0.00    +0.000 A 
ATOM     30  C   UNL     1      11.558   3.990  -5.853  0.00  0.00    +0.000 A 
ATOM     31  C   UNL     1      11.449   5.367  -6.026  0.00  0.00    +0.000 A 
ATOM     32  C   UNL     1      10.278   5.910  -6.551  0.00  0.00    +0.000 A 
ATOM     33  C   UNL     1       9.223   5.075  -6.928  0.00  0.00    +0.000 A 
ENDBRANCH  27  28
ENDBRANCH  24  27
ENDBRANCH  23  24
ENDBRANCH   4  23
TORSDOF 8
