REMARK  Name = 
REMARK  5 active torsions:
REMARK  status: ('A' for Active; 'I' for Inactive)
REMARK    1  A    between atoms: N_1  and  C_2
REMARK    2  A    between atoms: C_2  and  C_3
REMARK    3  A    between atoms: C_6  and  O_7
REMARK    4  A    between atoms: O_7  and  C_8
REMARK    5  A    between atoms: C_8  and  C_9
REMARK                            x       y       z     vdW  Elec       q    Type
REMARK                         _______ _______ _______ _____ _____    ______ ____
ROOT
ATOM      1  C   UNL     1       2.810  -1.205  -0.669  0.00  0.00    +0.000 A 
ATOM      2  C   UNL     1       3.941  -1.272  -1.495  0.00  0.00    +0.000 A 
ATOM      3  C   UNL     1       4.383  -2.500  -1.997  0.00  0.00    +0.000 A 
ATOM      4  C   UNL     1       3.710  -3.676  -1.669  0.00  0.00    +0.000 A 
ATOM      5  C   UNL     1       2.555  -3.612  -0.890  0.00  0.00    +0.000 A 
ATOM      6  C   UNL     1       2.115  -2.386  -0.383  0.00  0.00    +0.000 A 
ENDROOT
BRANCH   1   7
ATOM      7  C   UNL     1       2.364   0.104  -0.071  0.00  0.00    +0.000 C 
BRANCH   7   8
ATOM      8  N   UNL     1       2.014   1.077  -1.097  0.00  0.00    +0.000 NA
ATOM      9  H   UNL     1       1.643   1.913  -0.650  0.00  0.00    +0.000 HD
ATOM     10  H   UNL     1       1.261   0.696  -1.668  0.00  0.00    +0.000 HD
ENDBRANCH   7   8
ENDBRANCH   1   7
BRANCH   4  11
ATOM     11  O   UNL     1       4.262  -4.832  -2.155  0.00  0.00    +0.000 OA
BRANCH  11  12
ATOM     12  C   UNL     1       3.913  -6.015  -1.436  0.00  0.00    +0.000 C 
BRANCH  12  13
ATOM     13  C   UNL     1       4.919  -7.079  -1.722  0.00  0.00    +0.000 A 
ATOM     14  C   UNL     1       5.725  -7.613  -0.737  0.00  0.00    +0.000 A 
ATOM     15  N   UNL     1       6.627  -8.590  -0.952  0.00  0.00    +0.000 NA
ATOM     16  C   UNL     1       6.712  -9.029  -2.217  0.00  0.00    +0.000 A 
ATOM     17  N   UNL     1       5.987  -8.591  -3.257  0.00  0.00    +0.000 NA
ATOM     18  C   UNL     1       5.102  -7.612  -2.982  0.00  0.00    +0.000 A 
ENDBRANCH  12  13
ENDBRANCH  11  12
ENDBRANCH   4  11
TORSDOF 5
