REMARK  Name = 
REMARK  11 active torsions:
REMARK  status: ('A' for Active; 'I' for Inactive)
REMARK    1  A    between atoms: C_1  and  C_2
REMARK    2  A    between atoms: C_2  and  C_3
REMARK    3  A    between atoms: C_5  and  N_6
REMARK    4  A    between atoms: N_6  and  C_7
REMARK    5  A    between atoms: C_11  and  C_12
REMARK    6  A    between atoms: C_12  and  C_13
REMARK    7  A    between atoms: C_12  and  C_14
REMARK    8  A    between atoms: C_12  and  C_15
REMARK    9  A    between atoms: C_15  and  N_16
REMARK   10  A    between atoms: N_16  and  C_17
REMARK   11  A    between atoms: C_20  and  C_21
REMARK                            x       y       z     vdW  Elec       q    Type
REMARK                         _______ _______ _______ _____ _____    ______ ____
ROOT
ATOM      1  C   UNL     1      -7.684   0.895   1.002  0.00  0.00    +0.000 C 
ATOM      2  C   UNL     1      -8.501  -0.335   1.474  0.00  0.00    +0.000 C 
ATOM      3  C   UNL     1      -8.314   2.178   1.600  0.00  0.00    +0.000 C 
ENDROOT
BRANCH   1   8
ATOM      4  C   UNL     1      -3.819   0.767   0.997  0.00  0.00    +0.000 A 
ATOM      5  C   UNL     1      -3.559   0.697   2.364  0.00  0.00    +0.000 A 
ATOM      6  C   UNL     1      -4.593   0.606   3.282  0.00  0.00    +0.000 A 
ATOM      7  C   UNL     1      -5.919   0.635   2.853  0.00  0.00    +0.000 A 
ATOM      8  C   UNL     1      -6.226   0.744   1.484  0.00  0.00    +0.000 A 
ATOM      9  C   UNL     1      -5.148   0.739   0.576  0.00  0.00    +0.000 A 
BRANCH   4  10
ATOM     10  N   UNL     1      -2.788   0.898   0.045  0.00  0.00    +0.000 N 
ATOM     11  H   UNL     1      -2.746   0.080  -0.565  0.00  0.00    +0.000 HD
BRANCH  10  16
ATOM     12  C   UNL     1       0.942   3.230   0.548  0.00  0.00    +0.000 C 
ATOM     13  C   UNL     1      -0.407   3.249  -0.170  0.00  0.00    +0.000 C 
ATOM     14  C   UNL     1      -0.587   4.510  -1.009  0.00  0.00    +0.000 C 
ATOM     15  C   UNL     1      -1.610   2.952   0.763  0.00  0.00    +0.000 C 
ATOM     16  C   UNL     1      -1.506   1.462   0.345  0.00  0.00    +0.000 C 
ATOM     17  C   UNL     1      -0.764   1.932  -0.922  0.00  0.00    +0.000 C 
ENDBRANCH  10  16
ENDBRANCH   4  10
ENDBRANCH   1   8
BRANCH   1  18
ATOM     18  C   UNL     1      -7.791   0.951  -0.555  0.00  0.00    +0.000 C 
BRANCH  18  19
ATOM     19  N   UNL     1      -7.093   2.081  -1.154  0.00  0.00    +0.000 N 
ATOM     20  H   UNL     1      -6.538   2.692  -0.559  0.00  0.00    +0.000 HD
BRANCH  19  21
ATOM     21  C   UNL     1      -6.983   2.248  -2.524  0.00  0.00    +0.000 A 
ATOM     22  C   UNL     1      -7.663   1.441  -3.445  0.00  0.00    +0.000 A 
ATOM     23  C   UNL     1      -7.561   1.683  -4.821  0.00  0.00    +0.000 A 
ATOM     24  C   UNL     1      -6.779   2.733  -5.299  0.00  0.00    +0.000 A 
ATOM     25  C   UNL     1      -6.082   3.537  -4.392  0.00  0.00    +0.000 A 
ATOM     26  C   UNL     1      -6.189   3.284  -3.013  0.00  0.00    +0.000 A 
BRANCH  24  27
ATOM     27  C   UNL     1      -6.704   2.934  -6.778  0.00  0.00    +0.000 C 
ATOM     28  N   UNL     1      -6.502   4.212  -7.235  0.00  0.00    +0.000 N 
ATOM     29  O   UNL     1      -6.842   2.006  -7.558  0.00  0.00    +0.000 OA
ATOM     30  H   UNL     1      -6.357   5.016  -6.665  0.00  0.00    +0.000 HD
ATOM     31  H   UNL     1      -6.448   4.318  -8.251  0.00  0.00    +0.000 HD
ENDBRANCH  24  27
ENDBRANCH  19  21
ENDBRANCH  18  19
ENDBRANCH   1  18
TORSDOF 7
