REMARK  Name = 
REMARK  7 active torsions:
REMARK  status: ('A' for Active; 'I' for Inactive)
REMARK    1  A    between atoms: C_1  and  O_2
REMARK    2  A    between atoms: O_2  and  C_3
REMARK    3  A    between atoms: C_5  and  C_6
REMARK    4  A    between atoms: C_11  and  O_12
REMARK    5  A    between atoms: O_12  and  C_13
REMARK    6  A    between atoms: C_13  and  C_14
REMARK    7  A    between atoms: C_18  and  C_19
REMARK                            x       y       z     vdW  Elec       q    Type
REMARK                         _______ _______ _______ _____ _____    ______ ____
ROOT
ATOM      1  O   UNL     1       4.577   0.368   1.532  0.00  0.00    +0.000 OA
ENDROOT
BRANCH   1   7
ATOM      2  C   UNL     1       3.109  -1.016   0.051  0.00  0.00    +0.000 A 
ATOM      3  C   UNL     1       2.958  -2.263  -0.576  0.00  0.00    +0.000 A 
ATOM      4  C   UNL     1       3.921  -3.273  -0.443  0.00  0.00    +0.000 A 
ATOM      5  C   UNL     1       5.059  -3.028   0.327  0.00  0.00    +0.000 A 
ATOM      6  C   UNL     1       5.216  -1.786   0.962  0.00  0.00    +0.000 A 
ATOM      7  C   UNL     1       4.251  -0.776   0.834  0.00  0.00    +0.000 A 
BRANCH   4   8
ATOM      8  C   UNL     1       3.659  -4.558  -1.157  0.00  0.00    +0.000 C 
ATOM      9  N   UNL     1       4.588  -5.556  -1.085  0.00  0.00    +0.000 N 
ATOM     10  O   UNL     1       2.632  -4.730  -1.802  0.00  0.00    +0.000 OA
ATOM     11  H   UNL     1       5.464  -5.507  -0.591  0.00  0.00    +0.000 HD
ATOM     12  H   UNL     1       4.374  -6.408  -1.587  0.00  0.00    +0.000 HD
ENDBRANCH   4   8
BRANCH   2  14
ATOM     13  C   UNL     1       0.879  -0.349  -0.504  0.00  0.00    +0.000 C 
ATOM     14  O   UNL     1       2.205  -0.005  -0.130  0.00  0.00    +0.000 OA
ENDBRANCH   2  14
ENDBRANCH   1   7
BRANCH   1  15
ATOM     15  C   UNL     1       3.609   1.416   1.559  0.00  0.00    +0.000 C 
BRANCH  15  16
ATOM     16  C   UNL     1       4.089   2.574   2.390  0.00  0.00    +0.000 A 
ATOM     17  C   UNL     1       3.354   3.030   3.476  0.00  0.00    +0.000 A 
ATOM     18  N   UNL     1       3.678   4.122   4.197  0.00  0.00    +0.000 NA
ATOM     19  C   UNL     1       4.792   4.794   3.814  0.00  0.00    +0.000 A 
ATOM     20  C   UNL     1       5.618   4.448   2.741  0.00  0.00    +0.000 A 
ATOM     21  C   UNL     1       5.232   3.300   2.032  0.00  0.00    +0.000 A 
BRANCH  20  22
ATOM     22  C   UNL     1       6.805   5.244   2.358  0.00  0.00    +0.000 A 
ATOM     23  C   UNL     1       7.942   4.633   1.791  0.00  0.00    +0.000 A 
ATOM     24  C   UNL     1       9.058   5.382   1.406  0.00  0.00    +0.000 A 
ATOM     25  C   UNL     1       9.059   6.755   1.596  0.00  0.00    +0.000 A 
ATOM     26  F   UNL     1      10.128   7.473   1.231  0.00  0.00    +0.000 F 
ATOM     27  C   UNL     1       7.964   7.392   2.159  0.00  0.00    +0.000 A 
ATOM     28  C   UNL     1       6.843   6.642   2.532  0.00  0.00    +0.000 A 
ENDBRANCH  20  22
ENDBRANCH  15  16
ENDBRANCH   1  15
TORSDOF 6
