REMARK  Name = 
REMARK  5 active torsions:
REMARK  status: ('A' for Active; 'I' for Inactive)
REMARK    1  A    between atoms: C_2  and  C_3
REMARK    2  A    between atoms: C_6  and  C_7
REMARK    3  A    between atoms: C_11  and  C_12
REMARK    4  A    between atoms: C_12  and  N_13
REMARK    5  A    between atoms: C_17  and  C_18
REMARK                            x       y       z     vdW  Elec       q    Type
REMARK                         _______ _______ _______ _____ _____    ______ ____
ROOT
ATOM      1  C   UNL     1       6.537   1.686   2.015  0.00  0.00    +0.000 C 
ATOM      2  C   UNL     1       7.468   1.018   3.008  0.00  0.00    +0.000 C 
ATOM      3  C   UNL     1       6.130   1.467   3.484  0.00  0.00    +0.000 C 
ATOM      4  F   UNL     1       6.120   2.560   4.335  0.00  0.00    +0.000 F 
ENDROOT
BRANCH   1   5
ATOM      5  N   UNL     1       6.720   3.080   1.584  0.00  0.00    +0.000 N 
ATOM      6  C   UNL     1       7.797   3.588   0.868  0.00  0.00    +0.000 A 
ATOM      7  C   UNL     1       8.664   2.868   0.050  0.00  0.00    +0.000 A 
ATOM      8  N   UNL     1       9.740   3.395  -0.604  0.00  0.00    +0.000 NA
ATOM      9  C   UNL     1       9.893   4.732  -0.439  0.00  0.00    +0.000 A 
ATOM     10  C   UNL     1       9.012   5.478   0.331  0.00  0.00    +0.000 A 
ATOM     11  N   UNL     1       7.964   4.921   1.000  0.00  0.00    +0.000 NA
ATOM     12  H   UNL     1       6.427   3.816   2.222  0.00  0.00    +0.000 HD
BRANCH   9  13
ATOM     13  C   UNL     1      11.053   5.386  -1.110  0.00  0.00    +0.000 C 
ATOM     14  N   UNL     1      11.898   4.603  -1.856  0.00  0.00    +0.000 N 
ATOM     15  O   UNL     1      11.261   6.589  -1.009  0.00  0.00    +0.000 OA
ATOM     16  H   UNL     1      11.755   3.611  -2.006  0.00  0.00    +0.000 HD
ATOM     17  H   UNL     1      12.662   5.070  -2.325  0.00  0.00    +0.000 HD
ENDBRANCH   9  13
ENDBRANCH   1   5
BRANCH   1  22
ATOM     18  C   UNL     1       3.766  -0.017  -0.051  0.00  0.00    +0.000 A 
ATOM     19  C   UNL     1       4.525  -0.720  -0.996  0.00  0.00    +0.000 A 
ATOM     20  C   UNL     1       5.913  -0.675  -0.972  0.00  0.00    +0.000 A 
ATOM     21  C   UNL     1       6.564   0.074   0.005  0.00  0.00    +0.000 A 
ATOM     22  C   UNL     1       5.856   0.811   0.967  0.00  0.00    +0.000 A 
ATOM     23  C   UNL     1       4.458   0.735   0.912  0.00  0.00    +0.000 A 
BRANCH  18  27
ATOM     24  C   UNL     1      -0.528  -0.046  -0.099  0.00  0.00    +0.000 A 
ATOM     25  C   UNL     1       0.157   0.100   1.116  0.00  0.00    +0.000 A 
ATOM     26  C   UNL     1       1.551   0.103   1.120  0.00  0.00    +0.000 A 
ATOM     27  C   UNL     1       2.294  -0.034  -0.059  0.00  0.00    +0.000 A 
ATOM     28  C   UNL     1       1.582  -0.169  -1.263  0.00  0.00    +0.000 A 
ATOM     29  C   UNL     1       0.188  -0.178  -1.284  0.00  0.00    +0.000 A 
BRANCH  24  31
ATOM     30  N   UNL     1      -3.118  -0.084  -0.127  0.00  0.00    +0.000 NA
ATOM     31  C   UNL     1      -1.953  -0.056  -0.106  0.00  0.00    +0.000 C 
ENDBRANCH  24  31
ENDBRANCH  18  27
ENDBRANCH   1  22
TORSDOF 5
