REMARK  Name = 
REMARK  4 active torsions:
REMARK  status: ('A' for Active; 'I' for Inactive)
REMARK    1  A    between atoms: C_2  and  C_3
REMARK    2  A    between atoms: C_6  and  C_7
REMARK    3  A    between atoms: C_7  and  N_8
REMARK    4  A    between atoms: C_12  and  C_13
REMARK                            x       y       z     vdW  Elec       q    Type
REMARK                         _______ _______ _______ _____ _____    ______ ____
ROOT
ATOM      1  N   UNL     1       4.123  -1.383  -0.756  0.00  0.00    +0.000 N 
ATOM      2  C   UNL     1       4.112  -2.651  -0.195  0.00  0.00    +0.000 A 
ATOM      3  N   UNL     1       3.914  -2.803   1.125  0.00  0.00    +0.000 NA
ATOM      4  C   UNL     1       3.957  -4.055   1.623  0.00  0.00    +0.000 A 
ATOM      5  C   UNL     1       4.163  -5.170   0.847  0.00  0.00    +0.000 A 
ATOM      6  C   UNL     1       4.352  -4.920  -0.490  0.00  0.00    +0.000 A 
ATOM      7  N   UNL     1       4.334  -3.679  -1.032  0.00  0.00    +0.000 NA
ATOM      8  H   UNL     1       4.417  -1.392  -1.720  0.00  0.00    +0.000 HD
ENDROOT
BRANCH   5   9
ATOM      9  C   UNL     1       4.220  -6.497   1.472  0.00  0.00    +0.000 C 
ATOM     10  N   UNL     1       3.916  -7.583   0.702  0.00  0.00    +0.000 N 
ATOM     11  O   UNL     1       4.496  -6.620   2.656  0.00  0.00    +0.000 OA
ATOM     12  H   UNL     1       3.452  -7.526  -0.194  0.00  0.00    +0.000 HD
ATOM     13  H   UNL     1       3.859  -8.468   1.194  0.00  0.00    +0.000 HD
ENDBRANCH   5   9
BRANCH   1  14
ATOM     14  C   UNL     1       3.829  -0.164  -0.009  0.00  0.00    +0.000 C 
ATOM     15  C   UNL     1       4.742   0.286   1.117  0.00  0.00    +0.000 C 
ATOM     16  C   UNL     1       4.796   0.991  -0.198  0.00  0.00    +0.000 C 
BRANCH  14  20
ATOM     17  C   UNL     1      -0.484   0.399   0.349  0.00  0.00    +0.000 A 
ATOM     18  C   UNL     1       0.223   1.054  -0.664  0.00  0.00    +0.000 A 
ATOM     19  C   UNL     1       1.614   0.904  -0.762  0.00  0.00    +0.000 A 
ATOM     20  C   UNL     1       2.333   0.108   0.147  0.00  0.00    +0.000 A 
ATOM     21  C   UNL     1       1.597  -0.503   1.181  0.00  0.00    +0.000 A 
ATOM     22  C   UNL     1       0.216  -0.371   1.269  0.00  0.00    +0.000 A 
ATOM     23  F   UNL     1      -0.434  -1.020   2.248  0.00  0.00    +0.000 F 
BRANCH  17  25
ATOM     24  N   UNL     1      -3.064   0.578   0.445  0.00  0.00    +0.000 NA
ATOM     25  C   UNL     1      -1.906   0.493   0.421  0.00  0.00    +0.000 C 
ENDBRANCH  17  25
ENDBRANCH  14  20
ENDBRANCH   1  14
TORSDOF 4
