REMARK  Name = 
REMARK  6 active torsions:
REMARK  status: ('A' for Active; 'I' for Inactive)
REMARK    1  A    between atoms: C_2  and  C_25
REMARK    2  A    between atoms: N_3  and  C_4
REMARK    3  A    between atoms: C_4  and  C_5
REMARK    4  A    between atoms: C_8  and  C_9
REMARK    5  A    between atoms: C_9  and  N_10
REMARK    6  A    between atoms: C_11  and  C_13
REMARK                            x       y       z     vdW  Elec       q    Type
REMARK                         _______ _______ _______ _____ _____    ______ ____
ROOT
ATOM      1  C   UNL     1       3.260  -2.136   2.889  0.00  0.00    +0.000 A 
ATOM      2  C   UNL     1       4.095  -1.362   3.707  0.00  0.00    +0.000 A 
ATOM      3  C   UNL     1       4.922  -1.966   4.662  0.00  0.00    +0.000 A 
ATOM      4  C   UNL     1       4.947  -3.361   4.807  0.00  0.00    +0.000 A 
ATOM      5  C   UNL     1       4.109  -4.132   3.991  0.00  0.00    +0.000 A 
ATOM      6  C   UNL     1       3.284  -3.529   3.036  0.00  0.00    +0.000 A 
ENDROOT
BRANCH   1   7
ATOM      7  C   UNL     1       2.332  -1.487   1.895  0.00  0.00    +0.000 C 
BRANCH   7  10
ATOM      8  O   UNL     1       1.034  -0.337  -0.254  0.00  0.00    +0.000 OA
ATOM      9  C   UNL     1       2.200  -0.689  -0.402  0.00  0.00    +0.000 C 
ATOM     10  N   UNL     1       2.937  -1.299   0.596  0.00  0.00    +0.000 N 
ATOM     11  H   UNL     1       3.940  -1.382   0.512  0.00  0.00    +0.000 HD
BRANCH   9  12
ATOM     12  C   UNL     1       2.887  -0.423  -1.692  0.00  0.00    +0.000 A 
ATOM     13  C   UNL     1       2.490   0.700  -2.435  0.00  0.00    +0.000 A 
ATOM     14  C   UNL     1       3.084   0.976  -3.668  0.00  0.00    +0.000 A 
ATOM     15  C   UNL     1       4.068   0.124  -4.169  0.00  0.00    +0.000 A 
ATOM     16  C   UNL     1       4.448  -1.001  -3.436  0.00  0.00    +0.000 A 
ATOM     17 CL   UNL     1       5.645  -2.062  -4.074  0.00  0.00    +0.000 Cl
ATOM     18  C   UNL     1       3.865  -1.284  -2.198  0.00  0.00    +0.000 A 
ENDBRANCH   9  12
ENDBRANCH   7  10
ENDBRANCH   1   7
BRANCH   4  19
ATOM     19  C   UNL     1       5.825  -4.029   5.839  0.00  0.00    +0.000 C 
BRANCH  19  20
ATOM     20  N   UNL     1       5.133  -4.202   7.094  0.00  0.00    +0.000 N 
ATOM     21  C   UNL     1       5.761  -4.746   8.188  0.00  0.00    +0.000 C 
ATOM     22  O   UNL     1       6.945  -5.067   8.171  0.00  0.00    +0.000 OA
ATOM     23  H   UNL     1       4.121  -4.198   7.057  0.00  0.00    +0.000 HD
BRANCH  21  24
ATOM     24  C   UNL     1       4.952  -4.857   9.412  0.00  0.00    +0.000 A 
ATOM     25  C   UNL     1       5.571  -4.874  10.653  0.00  0.00    +0.000 A 
ATOM     26  S   UNL     1       4.481  -4.958  11.963  0.00  0.00    +0.000 S 
ATOM     27  C   UNL     1       3.142  -5.027  10.915  0.00  0.00    +0.000 A 
ATOM     28  N   UNL     1       1.877  -5.143  11.400  0.00  0.00    +0.000 NA
ATOM     29  C   UNL     1       0.961  -5.209  10.492  0.00  0.00    +0.000 A 
ATOM     30  N   UNL     1       1.198  -5.168   9.139  0.00  0.00    +0.000 N 
ATOM     31  C   UNL     1       2.453  -5.027   8.608  0.00  0.00    +0.000 A 
ATOM     32  O   UNL     1       2.626  -4.947   7.394  0.00  0.00    +0.000 OA
ATOM     33  C   UNL     1       3.522  -4.961   9.585  0.00  0.00    +0.000 A 
ATOM     34  H   UNL     1       0.435  -5.215   8.480  0.00  0.00    +0.000 HD
ENDBRANCH  21  24
ENDBRANCH  19  20
ENDBRANCH   4  19
TORSDOF 6
