REMARK  Name = 
REMARK  7 active torsions:
REMARK  status: ('A' for Active; 'I' for Inactive)
REMARK    1  A    between atoms: C_2  and  C_19
REMARK    2  A    between atoms: N_3  and  C_4
REMARK    3  A    between atoms: C_4  and  C_5
REMARK    4  A    between atoms: C_8  and  C_9
REMARK    5  A    between atoms: C_9  and  O_10
REMARK    6  A    between atoms: O_10  and  C_11
REMARK    7  A    between atoms: C_11  and  C_12
REMARK                            x       y       z     vdW  Elec       q    Type
REMARK                         _______ _______ _______ _____ _____    ______ ____
ROOT
ATOM      1  C   UNL     1       2.298   2.131   1.164  0.00  0.00    +0.000 C 
ENDROOT
BRANCH   1   2
ATOM      2  C   UNL     1       3.218   3.200   1.693  0.00  0.00    +0.000 A 
ATOM      3  C   UNL     1       2.937   4.553   1.459  0.00  0.00    +0.000 A 
ATOM      4  C   UNL     1       3.744   5.555   2.004  0.00  0.00    +0.000 A 
ATOM      5  C   UNL     1       4.859   5.228   2.786  0.00  0.00    +0.000 A 
ATOM      6  C   UNL     1       5.152   3.875   3.004  0.00  0.00    +0.000 A 
ATOM      7  C   UNL     1       4.349   2.871   2.452  0.00  0.00    +0.000 A 
BRANCH   5   8
ATOM      8  C   UNL     1       5.760   6.308   3.331  0.00  0.00    +0.000 C 
BRANCH   8   9
ATOM      9  O   UNL     1       5.022   7.192   4.173  0.00  0.00    +0.000 OA
BRANCH   9  10
ATOM     10  C   UNL     1       5.872   8.216   4.697  0.00  0.00    +0.000 C 
BRANCH  10  11
ATOM     11  C   UNL     1       5.042   9.094   5.565  0.00  0.00    +0.000 A 
ATOM     12  C   UNL     1       5.371  10.223   6.291  0.00  0.00    +0.000 A 
ATOM     13  C   UNL     1       4.200  10.670   6.949  0.00  0.00    +0.000 A 
ATOM     14  C   UNL     1       3.184   9.805   6.605  0.00  0.00    +0.000 A 
ATOM     15  N   UNL     1       3.704   8.856   5.768  0.00  0.00    +0.000 N 
ATOM     16  H   UNL     1       3.203   8.081   5.346  0.00  0.00    +0.000 HD
ENDBRANCH  10  11
ENDBRANCH   9  10
ENDBRANCH   8   9
ENDBRANCH   5   8
ENDBRANCH   1   2
BRANCH   1  19
ATOM     17  O   UNL     1       1.107   3.183  -1.162  0.00  0.00    +0.000 OA
ATOM     18  C   UNL     1       1.979   2.331  -1.275  0.00  0.00    +0.000 C 
ATOM     19  N   UNL     1       2.599   1.757  -0.194  0.00  0.00    +0.000 N 
ATOM     20  H   UNL     1       3.418   1.177  -0.337  0.00  0.00    +0.000 HD
BRANCH  18  21
ATOM     21  C   UNL     1       2.376   1.818  -2.592  0.00  0.00    +0.000 A 
ATOM     22  C   UNL     1       1.487   1.880  -3.656  0.00  0.00    +0.000 A 
ATOM     23  S   UNL     1       2.110   1.227  -5.104  0.00  0.00    +0.000 S 
ATOM     24  C   UNL     1       3.605   0.880  -4.368  0.00  0.00    +0.000 A 
ATOM     25  N   UNL     1       4.623   0.321  -5.076  0.00  0.00    +0.000 NA
ATOM     26  C   UNL     1       5.714   0.160  -4.403  0.00  0.00    +0.000 A 
ATOM     27  N   UNL     1       5.875   0.495  -3.084  0.00  0.00    +0.000 N 
ATOM     28  C   UNL     1       4.850   0.976  -2.308  0.00  0.00    +0.000 A 
ATOM     29  O   UNL     1       4.983   1.119  -1.097  0.00  0.00    +0.000 OA
ATOM     30  C   UNL     1       3.618   1.231  -3.030  0.00  0.00    +0.000 A 
ATOM     31  H   UNL     1       6.743   0.309  -2.605  0.00  0.00    +0.000 HD
ENDBRANCH  18  21
ENDBRANCH   1  19
TORSDOF 7
