REMARK  Name = 
REMARK  7 active torsions:
REMARK  status: ('A' for Active; 'I' for Inactive)
REMARK    1  A    between atoms: C_2  and  C_21
REMARK    2  A    between atoms: N_3  and  C_4
REMARK    3  A    between atoms: C_4  and  C_5
REMARK    4  A    between atoms: C_8  and  C_9
REMARK    5  A    between atoms: C_9  and  O_10
REMARK    6  A    between atoms: O_10  and  C_11
REMARK    7  A    between atoms: C_11  and  C_12
REMARK                            x       y       z     vdW  Elec       q    Type
REMARK                         _______ _______ _______ _____ _____    ______ ____
ROOT
ATOM      1  C   UNL     1       2.298   2.274  -0.994  0.00  0.00    +0.000 C 
ENDROOT
BRANCH   1   2
ATOM      2  C   UNL     1       3.233   3.395  -1.385  0.00  0.00    +0.000 A 
ATOM      3  C   UNL     1       2.849   4.726  -1.232  0.00  0.00    +0.000 A 
ATOM      4  C   UNL     1       3.738   5.732  -1.611  0.00  0.00    +0.000 A 
ATOM      5  C   UNL     1       4.994   5.397  -2.119  0.00  0.00    +0.000 A 
ATOM      6  C   UNL     1       5.302   4.045  -2.202  0.00  0.00    +0.000 A 
ATOM      7  N   UNL     1       4.457   3.047  -1.853  0.00  0.00    +0.000 NA
BRANCH   5   8
ATOM      8  C   UNL     1       5.962   6.440  -2.594  0.00  0.00    +0.000 C 
BRANCH   8   9
ATOM      9  O   UNL     1       6.309   7.298  -1.512  0.00  0.00    +0.000 OA
BRANCH   9  10
ATOM     10  C   UNL     1       7.194   8.336  -1.937  0.00  0.00    +0.000 C 
BRANCH  10  11
ATOM     11  C   UNL     1       7.512   9.275  -0.798  0.00  0.00    +0.000 A 
ATOM     12  N   UNL     1       8.827   9.355  -0.437  0.00  0.00    +0.000 NA
ATOM     13  C   UNL     1       9.152  10.196   0.570  0.00  0.00    +0.000 A 
ATOM     14  C   UNL     1       8.232  10.978   1.244  0.00  0.00    +0.000 A 
ATOM     15  C   UNL     1       6.897  10.898   0.862  0.00  0.00    +0.000 A 
ATOM     16  C   UNL     1       6.524  10.042  -0.174  0.00  0.00    +0.000 A 
ATOM     17 CL   UNL     1       4.866  10.007  -0.647  0.00  0.00    +0.000 Cl
ENDBRANCH  10  11
ENDBRANCH   9  10
ENDBRANCH   8   9
ENDBRANCH   5   8
ENDBRANCH   1   2
BRANCH   1  20
ATOM     18  O   UNL     1       0.629   0.515   0.344  0.00  0.00    +0.000 OA
ATOM     19  C   UNL     1       1.557   1.021   0.973  0.00  0.00    +0.000 C 
ATOM     20  N   UNL     1       2.382   1.965   0.415  0.00  0.00    +0.000 N 
ATOM     21  H   UNL     1       3.285   2.140   0.847  0.00  0.00    +0.000 HD
BRANCH  19  22
ATOM     22  C   UNL     1       1.791   0.698   2.385  0.00  0.00    +0.000 A 
ATOM     23  C   UNL     1       0.753   0.202   3.162  0.00  0.00    +0.000 A 
ATOM     24  S   UNL     1       1.188  -0.077   4.787  0.00  0.00    +0.000 S 
ATOM     25  C   UNL     1       2.795   0.403   4.496  0.00  0.00    +0.000 A 
ATOM     26  N   UNL     1       3.728   0.378   5.488  0.00  0.00    +0.000 NA
ATOM     27  C   UNL     1       4.911   0.732   5.114  0.00  0.00    +0.000 A 
ATOM     28  N   UNL     1       5.248   1.120   3.842  0.00  0.00    +0.000 N 
ATOM     29  C   UNL     1       4.332   1.200   2.824  0.00  0.00    +0.000 A 
ATOM     30  O   UNL     1       4.650   1.611   1.715  0.00  0.00    +0.000 OA
ATOM     31  C   UNL     1       2.989   0.790   3.182  0.00  0.00    +0.000 A 
ATOM     32  H   UNL     1       6.191   1.399   3.616  0.00  0.00    +0.000 HD
ENDBRANCH  19  22
ENDBRANCH   1  20
TORSDOF 7
