REMARK  Name = 
REMARK  5 active torsions:
REMARK  status: ('A' for Active; 'I' for Inactive)
REMARK    1  A    between atoms: C_1  and  O_2
REMARK    2  A    between atoms: O_2  and  C_3
REMARK    3  A    between atoms: C_5  and  C_6
REMARK    4  A    between atoms: C_11  and  C_12
REMARK    5  A    between atoms: C_13  and  C_14
REMARK                            x       y       z     vdW  Elec       q    Type
REMARK                         _______ _______ _______ _____ _____    ______ ____
ROOT
ATOM      1  C   UNL     1       3.006   0.877  -0.903  0.00  0.00    +0.000 A 
ATOM      2  C   UNL     1       2.684   2.165  -1.337  0.00  0.00    +0.000 A 
ATOM      3  C   UNL     1       3.485   2.761  -2.295  0.00  0.00    +0.000 A 
ATOM      4  N   UNL     1       4.571   2.168  -2.855  0.00  0.00    +0.000 NA
ATOM      5  C   UNL     1       4.860   0.923  -2.404  0.00  0.00    +0.000 A 
ATOM      6  C   UNL     1       4.147   0.233  -1.421  0.00  0.00    +0.000 A 
ENDROOT
BRANCH   3   7
ATOM      7  C   UNL     1       3.161   4.147  -2.761  0.00  0.00    +0.000 C 
ATOM      8  N   UNL     1       4.012   4.667  -3.696  0.00  0.00    +0.000 N 
ATOM      9  O   UNL     1       2.202   4.779  -2.334  0.00  0.00    +0.000 OA
ATOM     10  H   UNL     1       4.801   4.116  -4.015  0.00  0.00    +0.000 HD
ATOM     11  H   UNL     1       3.866   5.605  -4.037  0.00  0.00    +0.000 HD
ENDBRANCH   3   7
BRANCH   1  13
ATOM     12  C   UNL     1       0.956   0.687   0.295  0.00  0.00    +0.000 C 
ATOM     13  O   UNL     1       2.272   0.199   0.042  0.00  0.00    +0.000 OA
ENDBRANCH   1  13
BRANCH   6  14
ATOM     14  C   UNL     1       4.531  -1.137  -1.013  0.00  0.00    +0.000 C 
ATOM     15  C   UNL     1       5.790  -1.611  -1.032  0.00  0.00    +0.000 C 
BRANCH  15  16
ATOM     16  C   UNL     1       6.190  -2.978  -0.648  0.00  0.00    +0.000 A 
ATOM     17  C   UNL     1       5.352  -4.088  -0.818  0.00  0.00    +0.000 A 
ATOM     18  C   UNL     1       5.787  -5.372  -0.468  0.00  0.00    +0.000 A 
ATOM     19  C   UNL     1       7.070  -5.555   0.041  0.00  0.00    +0.000 A 
ATOM     20 CL   UNL     1       7.601  -7.131   0.480  0.00  0.00    +0.000 Cl
ATOM     21  C   UNL     1       7.926  -4.468   0.193  0.00  0.00    +0.000 A 
ATOM     22  C   UNL     1       7.488  -3.186  -0.156  0.00  0.00    +0.000 A 
ENDBRANCH  15  16
ENDBRANCH   6  14
TORSDOF 4
