REMARK  Name = 
REMARK  9 active torsions:
REMARK  status: ('A' for Active; 'I' for Inactive)
REMARK    1  A    between atoms: C_1  and  C_2
REMARK    2  A    between atoms: C_3  and  C_4
REMARK    3  A    between atoms: C_7  and  C_8
REMARK    4  A    between atoms: C_14  and  C_15
REMARK    5  A    between atoms: C_14  and  C_16
REMARK    6  A    between atoms: C_19  and  C_20
REMARK    7  A    between atoms: C_20  and  C_21
REMARK    8  A    between atoms: C_20  and  C_22
REMARK    9  A    between atoms: C_20  and  O_23
REMARK                            x       y       z     vdW  Elec       q    Type
REMARK                         _______ _______ _______ _____ _____    ______ ____
ROOT
ATOM      1  C   UNL     1       2.714  -0.102  -1.459  0.00  0.00    +0.000 C 
ATOM      2  C   UNL     1       2.455  -0.017   0.043  0.00  0.00    +0.000 C 
ATOM      3  C   UNL     1       3.236  -1.110   0.852  0.00  0.00    +0.000 C 
ATOM      4  C   UNL     1       4.234   0.010   1.258  0.00  0.00    +0.000 C 
ATOM      5  C   UNL     1       3.158   1.088   0.920  0.00  0.00    +0.000 C 
ATOM      6  C   UNL     1       2.327   1.500   2.151  0.00  0.00    +0.000 C 
ENDROOT
BRANCH   3   7
ATOM      7  C   UNL     1       2.480  -1.919   1.999  0.00  0.00    +0.000 A 
ATOM      8  C   UNL     1       3.138  -2.396   3.147  0.00  0.00    +0.000 A 
ATOM      9  C   UNL     1       2.451  -3.090   4.144  0.00  0.00    +0.000 A 
ATOM     10  C   UNL     1       1.095  -3.306   3.965  0.00  0.00    +0.000 A 
ATOM     11  N   UNL     1       0.402  -2.891   2.873  0.00  0.00    +0.000 NA
ATOM     12  C   UNL     1       1.114  -2.226   1.934  0.00  0.00    +0.000 A 
BRANCH  10  13
ATOM     13  C   UNL     1       0.309  -4.036   5.008  0.00  0.00    +0.000 C 
ATOM     14  N   UNL     1      -1.025  -4.181   4.729  0.00  0.00    +0.000 N 
ATOM     15  O   UNL     1       0.808  -4.474   6.034  0.00  0.00    +0.000 OA
ATOM     16  H   UNL     1      -1.394  -3.798   3.865  0.00  0.00    +0.000 HD
ATOM     17  H   UNL     1      -1.627  -4.662   5.380  0.00  0.00    +0.000 HD
ENDBRANCH  10  13
ENDBRANCH   3   7
BRANCH   5  18
ATOM     18  C   UNL     1       3.646   2.439   0.206  0.00  0.00    +0.000 A 
ATOM     19  C   UNL     1       2.788   3.193  -0.616  0.00  0.00    +0.000 A 
ATOM     20  C   UNL     1       3.179   4.405  -1.193  0.00  0.00    +0.000 A 
ATOM     21  C   UNL     1       4.450   4.944  -0.951  0.00  0.00    +0.000 A 
ATOM     22  C   UNL     1       5.328   4.193  -0.158  0.00  0.00    +0.000 A 
ATOM     23  C   UNL     1       4.929   2.977   0.410  0.00  0.00    +0.000 A 
BRANCH  21  24
ATOM     24  C   UNL     1       4.854   6.277  -1.572  0.00  0.00    +0.000 C 
ATOM     25  C   UNL     1       5.830   7.089  -0.709  0.00  0.00    +0.000 C 
ATOM     26  C   UNL     1       5.440   6.047  -2.966  0.00  0.00    +0.000 C 
BRANCH  24  27
ATOM     27  O   UNL     1       3.693   7.105  -1.728  0.00  0.00    +0.000 OA
ATOM     28  H   UNL     1       3.270   7.160  -0.853  0.00  0.00    +0.000 HD
ENDBRANCH  24  27
ENDBRANCH  21  24
ENDBRANCH   5  18
TORSDOF 5
