REMARK  Name = 
REMARK  5 active torsions:
REMARK  status: ('A' for Active; 'I' for Inactive)
REMARK    1  A    between atoms: C_2  and  C_4
REMARK    2  A    between atoms: C_7  and  N_8
REMARK    3  A    between atoms: N_8  and  C_9
REMARK    4  A    between atoms: C_9  and  C_10
REMARK    5  A    between atoms: C_14  and  C_15
REMARK                            x       y       z     vdW  Elec       q    Type
REMARK                         _______ _______ _______ _____ _____    ______ ____
ROOT
ATOM      1  C   UNL     1       5.131   2.248   5.697  0.00  0.00    +0.000 C 
ENDROOT
BRANCH   1   2
ATOM      2  C   UNL     1       6.076   3.029   6.599  0.00  0.00    +0.000 A 
ATOM      3  N   UNL     1       6.333   4.309   6.264  0.00  0.00    +0.000 NA
ATOM      4  C   UNL     1       7.115   4.998   7.106  0.00  0.00    +0.000 A 
ATOM      5  C   UNL     1       7.641   4.466   8.262  0.00  0.00    +0.000 A 
ATOM      6  C   UNL     1       7.333   3.147   8.538  0.00  0.00    +0.000 A 
ATOM      7  N   UNL     1       6.551   2.420   7.710  0.00  0.00    +0.000 NA
BRANCH   6   8
ATOM      8  C   UNL     1       7.842   2.449   9.733  0.00  0.00    +0.000 A 
ATOM      9  C   UNL     1       8.096   1.072   9.728  0.00  0.00    +0.000 A 
ATOM     10  N   UNL     1       8.611   0.367  10.771  0.00  0.00    +0.000 NA
ATOM     11  C   UNL     1       8.880   1.065  11.897  0.00  0.00    +0.000 A 
ATOM     12  C   UNL     1       8.642   2.419  12.019  0.00  0.00    +0.000 A 
ATOM     13  F   UNL     1       8.920   3.063  13.160  0.00  0.00    +0.000 F 
ATOM     14  C   UNL     1       8.116   3.115  10.938  0.00  0.00    +0.000 A 
ENDBRANCH   6   8
ENDBRANCH   1   2
BRANCH   1  15
ATOM     15  N   UNL     1       5.639   2.121   4.328  0.00  0.00    +0.000 N 
ATOM     16  H   UNL     1       6.097   2.967   3.993  0.00  0.00    +0.000 HD
BRANCH  15  20
ATOM     17  C   UNL     1       3.589  -0.080   1.368  0.00  0.00    +0.000 A 
ATOM     18  C   UNL     1       3.009   0.086   2.626  0.00  0.00    +0.000 A 
ATOM     19  C   UNL     1       3.666   0.838   3.607  0.00  0.00    +0.000 A 
ATOM     20  C   UNL     1       4.894   1.461   3.352  0.00  0.00    +0.000 A 
ATOM     21  C   UNL     1       5.459   1.287   2.081  0.00  0.00    +0.000 A 
ATOM     22  C   UNL     1       4.822   0.518   1.099  0.00  0.00    +0.000 A 
BRANCH  17  24
ATOM     23  N   UNL     1       1.603  -1.074   0.368  0.00  0.00    +0.000 N 
ATOM     24  C   UNL     1       2.962  -0.934   0.328  0.00  0.00    +0.000 C 
ATOM     25  O   UNL     1       3.623  -1.477  -0.547  0.00  0.00    +0.000 OA
ATOM     26  H   UNL     1       1.182  -1.592  -0.392  0.00  0.00    +0.000 HD
ATOM     27  H   UNL     1       1.007  -0.463   0.908  0.00  0.00    +0.000 HD
ENDBRANCH  17  24
ENDBRANCH  15  20
ENDBRANCH   1  15
TORSDOF 5
