REMARK  Name = 
REMARK  6 active torsions:
REMARK  status: ('A' for Active; 'I' for Inactive)
REMARK    1  A    between atoms: C_1  and  C_2
REMARK    2  A    between atoms: C_2  and  C_3
REMARK    3  A    between atoms: C_2  and  C_4
REMARK    4  A    between atoms: C_2  and  C_15
REMARK    5  A    between atoms: C_5  and  C_6
REMARK    6  A    between atoms: C_9  and  C_10
REMARK                            x       y       z     vdW  Elec       q    Type
REMARK                         _______ _______ _______ _____ _____    ______ ____
ROOT
ATOM      1  C   UNL     1       3.111  -1.272  -0.525  0.00  0.00    +0.000 C 
ATOM      2  C   UNL     1       2.867  -2.505  -0.045  0.00  0.00    +0.000 C 
ENDROOT
BRANCH   2   3
ATOM      3  C   UNL     1       3.324  -3.752  -0.660  0.00  0.00    +0.000 A 
ATOM      4  C   UNL     1       4.489  -3.845  -1.413  0.00  0.00    +0.000 A 
ATOM      5  C   UNL     1       4.814  -5.065  -2.003  0.00  0.00    +0.000 A 
ATOM      6  C   UNL     1       3.985  -6.173  -1.815  0.00  0.00    +0.000 A 
ATOM      7  C   UNL     1       2.868  -5.997  -1.012  0.00  0.00    +0.000 A 
ATOM      8  N   UNL     1       2.525  -4.820  -0.429  0.00  0.00    +0.000 NA
BRANCH   6   9
ATOM      9  C   UNL     1       4.331  -7.449  -2.484  0.00  0.00    +0.000 C 
ATOM     10  N   UNL     1       3.513  -8.531  -2.319  0.00  0.00    +0.000 N 
ATOM     11  O   UNL     1       5.330  -7.542  -3.189  0.00  0.00    +0.000 OA
ATOM     12  H   UNL     1       2.660  -8.560  -1.783  0.00  0.00    +0.000 HD
ATOM     13  H   UNL     1       3.783  -9.375  -2.811  0.00  0.00    +0.000 HD
ENDBRANCH   6   9
ENDBRANCH   2   3
BRANCH   1  15
ATOM     14  C   UNL     1       1.038   0.017   0.107  0.00  0.00    +0.000 C 
ATOM     15  C   UNL     1       2.583   0.034   0.075  0.00  0.00    +0.000 C 
ATOM     16  C   UNL     1       3.095   0.155   1.530  0.00  0.00    +0.000 C 
BRANCH  15  17
ATOM     17  C   UNL     1       3.051   1.246  -0.764  0.00  0.00    +0.000 A 
ATOM     18  C   UNL     1       2.684   1.373  -2.109  0.00  0.00    +0.000 A 
ATOM     19  C   UNL     1       3.141   2.463  -2.847  0.00  0.00    +0.000 A 
ATOM     20  C   UNL     1       3.950   3.408  -2.234  0.00  0.00    +0.000 A 
ATOM     21  C   UNL     1       4.269   3.223  -0.902  0.00  0.00    +0.000 A 
ATOM     22  N   UNL     1       3.843   2.173  -0.165  0.00  0.00    +0.000 NA
ENDBRANCH  15  17
ENDBRANCH   1  15
TORSDOF 4
