REMARK  Name = 
REMARK  10 active torsions:
REMARK  status: ('A' for Active; 'I' for Inactive)
REMARK    1  A    between atoms: C_1  and  C_2
REMARK    2  A    between atoms: N_4  and  C_5
REMARK    3  A    between atoms: C_7  and  C_8
REMARK    4  A    between atoms: C_8  and  C_9
REMARK    5  A    between atoms: C_8  and  C_10
REMARK    6  A    between atoms: C_10  and  N_11
REMARK    7  A    between atoms: N_11  and  C_12
REMARK    8  A    between atoms: C_15  and  C_16
REMARK    9  A    between atoms: C_22  and  C_23
REMARK   10  A    between atoms: C_29  and  C_30
REMARK                            x       y       z     vdW  Elec       q    Type
REMARK                         _______ _______ _______ _____ _____    ______ ____
ROOT
ATOM      1  C   UNL     1       1.911   1.372  -3.343  0.00  0.00    +0.000 A 
ATOM      2  C   UNL     1       2.301   2.655  -3.762  0.00  0.00    +0.000 A 
ATOM      3  C   UNL     1       1.554   3.426  -4.674  0.00  0.00    +0.000 A 
ATOM      4  C   UNL     1       0.367   2.888  -5.179  0.00  0.00    +0.000 A 
ATOM      5  C   UNL     1      -0.070   1.620  -4.772  0.00  0.00    +0.000 A 
ATOM      6  C   UNL     1       0.697   0.892  -3.842  0.00  0.00    +0.000 A 
ENDROOT
BRANCH   1  10
ATOM      7  C   UNL     1       2.018  -2.386  -3.171  0.00  0.00    +0.000 C 
ATOM      8  C   UNL     1       2.716  -1.792  -1.950  0.00  0.00    +0.000 C 
ATOM      9  C   UNL     1       2.194  -0.390  -1.569  0.00  0.00    +0.000 C 
ATOM     10  N   UNL     1       2.706   0.646  -2.477  0.00  0.00    +0.000 N 
ATOM     11  C   UNL     1       4.168   0.600  -2.669  0.00  0.00    +0.000 C 
ATOM     12  C   UNL     1       4.616  -0.827  -3.052  0.00  0.00    +0.000 C 
ATOM     13  C   UNL     1       6.137  -0.914  -3.090  0.00  0.00    +0.000 C 
ATOM     14  O   UNL     1       4.149  -1.806  -2.107  0.00  0.00    +0.000 OA
ENDBRANCH   1  10
BRANCH   5  15
ATOM     15  C   UNL     1      -1.326   1.005  -5.337  0.00  0.00    +0.000 C 
ATOM     16  F   UNL     1      -1.954   1.792  -6.256  0.00  0.00    +0.000 F 
ATOM     17  F   UNL     1      -1.083  -0.178  -5.969  0.00  0.00    +0.000 F 
ATOM     18  F   UNL     1      -2.254   0.733  -4.380  0.00  0.00    +0.000 F 
ENDBRANCH   5  15
BRANCH   3  19
ATOM     19  C   UNL     1       2.046   4.793  -5.145  0.00  0.00    +0.000 C 
ATOM     20  C   UNL     1       2.215   5.757  -3.965  0.00  0.00    +0.000 C 
BRANCH  19  21
ATOM     21  C   UNL     1       3.337   4.615  -5.975  0.00  0.00    +0.000 C 
BRANCH  21  22
ATOM     22  N   UNL     1       3.849   5.881  -6.520  0.00  0.00    +0.000 N 
ATOM     23  H   UNL     1       3.935   6.605  -5.809  0.00  0.00    +0.000 HD
BRANCH  22  24
ATOM     24  C   UNL     1       5.019   5.809  -7.296  0.00  0.00    +0.000 A 
ATOM     25  C   UNL     1       5.329   4.713  -8.106  0.00  0.00    +0.000 A 
ATOM     26  C   UNL     1       6.464   4.722  -8.913  0.00  0.00    +0.000 A 
ATOM     27  C   UNL     1       7.261   5.858  -8.918  0.00  0.00    +0.000 A 
ATOM     28  N   UNL     1       6.995   6.967  -8.177  0.00  0.00    +0.000 NA
ATOM     29  C   UNL     1       5.876   6.912  -7.409  0.00  0.00    +0.000 A 
BRANCH  27  30
ATOM     30  C   UNL     1       8.469   5.894  -9.797  0.00  0.00    +0.000 C 
ATOM     31  N   UNL     1       9.196   7.050  -9.751  0.00  0.00    +0.000 N 
ATOM     32  O   UNL     1       8.791   4.959 -10.520  0.00  0.00    +0.000 OA
ATOM     33  H   UNL     1       8.883   7.813  -9.160  0.00  0.00    +0.000 HD
ATOM     34  H   UNL     1       9.999   7.157 -10.351  0.00  0.00    +0.000 HD
ENDBRANCH  27  30
ENDBRANCH  22  24
ENDBRANCH  21  22
ENDBRANCH  19  21
ENDBRANCH   3  19
TORSDOF 7
