REMARK  Name = 
REMARK  4 active torsions:
REMARK  status: ('A' for Active; 'I' for Inactive)
REMARK    1  A    between atoms: C_2  and  C_4
REMARK    2  A    between atoms: N_8  and  C_9
REMARK    3  A    between atoms: C_9  and  C_10
REMARK    4  A    between atoms: C_14  and  C_15
REMARK                            x       y       z     vdW  Elec       q    Type
REMARK                         _______ _______ _______ _____ _____    ______ ____
ROOT
ATOM      1  C   UNL     1       5.050   3.013   5.242  0.00  0.00    +0.000 C 
ENDROOT
BRANCH   1   6
ATOM      2  C   UNL     1       7.707   1.160   1.268  0.00  0.00    +0.000 A 
ATOM      3  C   UNL     1       7.261   0.509   2.411  0.00  0.00    +0.000 A 
ATOM      4  C   UNL     1       6.417   1.186   3.292  0.00  0.00    +0.000 A 
ATOM      5  C   UNL     1       6.050   2.501   3.034  0.00  0.00    +0.000 A 
ATOM      6  N   UNL     1       5.163   3.208   3.813  0.00  0.00    +0.000 N 
ATOM      7  N   UNL     1       6.486   3.144   1.932  0.00  0.00    +0.000 NA
ATOM      8  C   UNL     1       7.308   2.474   1.081  0.00  0.00    +0.000 A 
ATOM      9  H   UNL     1       5.130   4.168   3.485  0.00  0.00    +0.000 HD
BRANCH   2  11
ATOM     10  N   UNL     1       8.508  -0.856   0.181  0.00  0.00    +0.000 N 
ATOM     11  C   UNL     1       8.582   0.512   0.272  0.00  0.00    +0.000 C 
ATOM     12  O   UNL     1       9.318   1.157  -0.459  0.00  0.00    +0.000 OA
ATOM     13  H   UNL     1       9.045  -1.284  -0.565  0.00  0.00    +0.000 HD
ATOM     14  H   UNL     1       7.745  -1.388   0.571  0.00  0.00    +0.000 HD
ENDBRANCH   2  11
ENDBRANCH   1   6
BRANCH   1  15
ATOM     15  C   UNL     1       6.026   3.841   6.044  0.00  0.00    +0.000 A 
ATOM     16  C   UNL     1       6.000   5.239   6.000  0.00  0.00    +0.000 A 
ATOM     17  C   UNL     1       6.798   5.982   6.866  0.00  0.00    +0.000 A 
ATOM     18  C   UNL     1       7.612   5.337   7.803  0.00  0.00    +0.000 A 
ATOM     19  C   UNL     1       7.650   3.935   7.896  0.00  0.00    +0.000 A 
ATOM     20  C   UNL     1       6.875   3.209   6.970  0.00  0.00    +0.000 A 
BRANCH  19  21
ATOM     21  C   UNL     1       8.356   3.237   8.998  0.00  0.00    +0.000 A 
ATOM     22  C   UNL     1       8.407   3.797  10.291  0.00  0.00    +0.000 A 
ATOM     23  C   UNL     1       8.937   3.093  11.380  0.00  0.00    +0.000 A 
ATOM     24  C   UNL     1       9.425   1.805  11.199  0.00  0.00    +0.000 A 
ATOM     25  C   UNL     1       9.410   1.248   9.928  0.00  0.00    +0.000 A 
ATOM     26  F   UNL     1       9.866   0.001   9.751  0.00  0.00    +0.000 F 
ATOM     27  C   UNL     1       8.900   1.950   8.837  0.00  0.00    +0.000 A 
ENDBRANCH  19  21
ENDBRANCH   1  15
TORSDOF 4
