REMARK  Name = 
REMARK  8 active torsions:
REMARK  status: ('A' for Active; 'I' for Inactive)
REMARK    1  A    between atoms: C_1  and  C_2
REMARK    2  A    between atoms: C_2  and  N_3
REMARK    3  A    between atoms: C_2  and  C_17
REMARK    4  A    between atoms: C_4  and  C_6
REMARK    5  A    between atoms: N_12  and  C_13
REMARK    6  A    between atoms: C_20  and  C_21
REMARK    7  A    between atoms: C_21  and  N_22
REMARK    8  A    between atoms: C_23  and  C_25
REMARK                            x       y       z     vdW  Elec       q    Type
REMARK                         _______ _______ _______ _____ _____    ______ ____
ROOT
ATOM      1  C   UNL     1       1.213   0.255   0.724  0.00  0.00    +0.000 C 
ATOM      2  C   UNL     1       2.520  -0.021  -0.030  0.00  0.00    +0.000 C 
ENDROOT
BRANCH   2   3
ATOM      3  C   UNL     1       2.911   1.093  -0.994  0.00  0.00    +0.000 A 
ATOM      4  C   UNL     1       3.607   0.784  -2.175  0.00  0.00    +0.000 A 
ATOM      5  C   UNL     1       3.964   1.786  -3.088  0.00  0.00    +0.000 A 
ATOM      6  C   UNL     1       3.649   3.127  -2.835  0.00  0.00    +0.000 A 
ATOM      7  C   UNL     1       2.989   3.444  -1.643  0.00  0.00    +0.000 A 
ATOM      8  C   UNL     1       2.641   2.444  -0.729  0.00  0.00    +0.000 A 
BRANCH   6   9
ATOM      9  C   UNL     1       3.982   4.214  -3.822  0.00  0.00    +0.000 C 
BRANCH   9  10
ATOM     10  N   UNL     1       2.888   4.474  -4.724  0.00  0.00    +0.000 N 
ATOM     11  C   UNL     1       2.952   5.471  -5.669  0.00  0.00    +0.000 C 
ATOM     12  O   UNL     1       3.878   6.276  -5.735  0.00  0.00    +0.000 OA
ATOM     13  H   UNL     1       2.137   3.797  -4.842  0.00  0.00    +0.000 HD
BRANCH  11  14
ATOM     14  C   UNL     1       1.746   5.536  -6.616  0.00  0.00    +0.000 C 
ATOM     15  C   UNL     1       0.669   6.491  -6.141  0.00  0.00    +0.000 C 
ATOM     16  C   UNL     1      -0.543   6.044  -6.939  0.00  0.00    +0.000 C 
ATOM     17  C   UNL     1      -0.329   4.552  -7.162  0.00  0.00    +0.000 C 
ATOM     18  N   UNL     1       1.018   4.241  -6.668  0.00  0.00    +0.000 NA
ATOM     19  H   UNL     1       1.494   3.609  -7.311  0.00  0.00    +0.000 HD
ENDBRANCH  11  14
ENDBRANCH   9  10
ENDBRANCH   6   9
ENDBRANCH   2   3
BRANCH   2  20
ATOM     20  N   UNL     1       3.600  -0.257   0.907  0.00  0.00    +0.000 N 
ATOM     21  C   UNL     1       3.744  -1.414   1.619  0.00  0.00    +0.000 C 
ATOM     22  O   UNL     1       2.953  -2.351   1.520  0.00  0.00    +0.000 OA
ATOM     23  H   UNL     1       4.330   0.449   0.939  0.00  0.00    +0.000 HD
BRANCH  21  24
ATOM     24  C   UNL     1       4.878  -1.473   2.554  0.00  0.00    +0.000 A 
ATOM     25  C   UNL     1       4.853  -2.366   3.617  0.00  0.00    +0.000 A 
ATOM     26  S   UNL     1       6.248  -2.306   4.595  0.00  0.00    +0.000 S 
ATOM     27  C   UNL     1       6.952  -1.110   3.611  0.00  0.00    +0.000 A 
ATOM     28  N   UNL     1       8.196  -0.634   3.876  0.00  0.00    +0.000 NA
ATOM     29  C   UNL     1       8.619   0.257   3.039  0.00  0.00    +0.000 A 
ATOM     30  N   UNL     1       7.911   0.738   1.958  0.00  0.00    +0.000 N 
ATOM     31  C   UNL     1       8.464   1.766   1.101  0.00  0.00    +0.000 C 
ATOM     32  C   UNL     1       6.621   0.302   1.686  0.00  0.00    +0.000 A 
ATOM     33  O   UNL     1       5.943   0.783   0.780  0.00  0.00    +0.000 OA
ATOM     34  C   UNL     1       6.120  -0.731   2.576  0.00  0.00    +0.000 A 
ENDBRANCH  21  24
ENDBRANCH   2  20
TORSDOF 6
