REMARK  Name = 
REMARK  7 active torsions:
REMARK  status: ('A' for Active; 'I' for Inactive)
REMARK    1  A    between atoms: C_1  and  C_2
REMARK    2  A    between atoms: C_2  and  N_3
REMARK    3  A    between atoms: C_2  and  C_18
REMARK    4  A    between atoms: C_7  and  C_8
REMARK    5  A    between atoms: C_8  and  N_9
REMARK    6  A    between atoms: N_9  and  C_10
REMARK    7  A    between atoms: C_13  and  N_14
REMARK                            x       y       z     vdW  Elec       q    Type
REMARK                         _______ _______ _______ _____ _____    ______ ____
ROOT
ATOM      1  N   UNL     1      -2.814  -2.813  10.899  0.00  0.00    +0.000 N 
ATOM      2  C   UNL     1      -2.076  -3.666  10.113  0.00  0.00    +0.000 A 
ATOM      3  N   UNL     1      -1.609  -3.115   8.986  0.00  0.00    +0.000 NA
ATOM      4  C   UNL     1      -0.642  -3.791   8.333  0.00  0.00    +0.000 A 
ATOM      5  C   UNL     1      -0.147  -5.006   8.752  0.00  0.00    +0.000 A 
ATOM      6  C   UNL     1      -0.822  -5.561   9.817  0.00  0.00    +0.000 A 
ATOM      7  N   UNL     1      -1.789  -4.917  10.508  0.00  0.00    +0.000 NA
ATOM      8  H   UNL     1      -3.130  -2.007  10.372  0.00  0.00    +0.000 HD
ENDROOT
BRANCH   1  10
ATOM      9  C   UNL     1      -5.017  -3.816  11.301  0.00  0.00    +0.000 C 
ATOM     10  C   UNL     1      -3.684  -3.336  11.914  0.00  0.00    +0.000 C 
BRANCH  10  11
ATOM     11  C   UNL     1      -3.971  -2.381  13.059  0.00  0.00    +0.000 A 
ATOM     12  C   UNL     1      -3.501  -2.543  14.351  0.00  0.00    +0.000 A 
ATOM     13  S   UNL     1      -4.508  -1.739  15.483  0.00  0.00    +0.000 S 
ATOM     14  C   UNL     1      -5.399  -0.993  14.236  0.00  0.00    +0.000 A 
ATOM     15  N   UNL     1      -6.528  -0.274  14.471  0.00  0.00    +0.000 NA
ATOM     16  C   UNL     1      -7.003   0.317  13.423  0.00  0.00    +0.000 A 
ATOM     17  N   UNL     1      -6.419   0.305  12.179  0.00  0.00    +0.000 N 
ATOM     18  C   UNL     1      -5.299  -0.441  11.886  0.00  0.00    +0.000 A 
ATOM     19  O   UNL     1      -4.768  -0.418  10.780  0.00  0.00    +0.000 OA
ATOM     20  C   UNL     1      -4.817  -1.222  13.007  0.00  0.00    +0.000 A 
ATOM     21  H   UNL     1      -6.789   0.870  11.429  0.00  0.00    +0.000 HD
ENDBRANCH  10  11
ENDBRANCH   1  10
BRANCH   5  22
ATOM     22  C   UNL     1       1.050  -5.643   8.128  0.00  0.00    +0.000 C 
BRANCH  22  23
ATOM     23  N   UNL     1       2.242  -4.788   8.271  0.00  0.00    +0.000 NA
ATOM     24  H   UNL     1       2.354  -4.549   9.247  0.00  0.00    +0.000 HD
BRANCH  23  25
ATOM     25  C   UNL     1       3.459  -5.465   7.804  0.00  0.00    +0.000 C 
ATOM     26  C   UNL     1       3.465  -5.704   6.287  0.00  0.00    +0.000 C 
ATOM     27  C   UNL     1       4.305  -4.596   5.649  0.00  0.00    +0.000 C 
ATOM     28  C   UNL     1       4.766  -3.699   6.794  0.00  0.00    +0.000 C 
ATOM     29  C   UNL     1       4.721  -4.610   8.020  0.00  0.00    +0.000 C 
BRANCH  28  30
ATOM     30  N   UNL     1       6.084  -3.131   6.537  0.00  0.00    +0.000 NA
ATOM     31  H   UNL     1       6.777  -3.864   6.461  0.00  0.00    +0.000 HD
ATOM     32  H   UNL     1       6.367  -2.554   7.334  0.00  0.00    +0.000 HD
ENDBRANCH  28  30
ENDBRANCH  23  25
ENDBRANCH  22  23
ENDBRANCH   5  22
TORSDOF 6
