REMARK  Name = 
REMARK  8 active torsions:
REMARK  status: ('A' for Active; 'I' for Inactive)
REMARK    1  A    between atoms: C_1  and  C_2
REMARK    2  A    between atoms: C_2  and  C_3
REMARK    3  A    between atoms: C_3  and  N_4
REMARK    4  A    between atoms: C_3  and  C_17
REMARK    5  A    between atoms: C_5  and  C_7
REMARK    6  A    between atoms: C_20  and  C_21
REMARK    7  A    between atoms: C_21  and  C_22
REMARK    8  A    between atoms: C_21  and  C_23
REMARK                            x       y       z     vdW  Elec       q    Type
REMARK                         _______ _______ _______ _____ _____    ______ ____
ROOT
ATOM      1  C   UNL     1      11.062  -4.284  -2.890  0.00  0.00    +0.000 C 
ENDROOT
BRANCH   1   2
ATOM      2  C   UNL     1      10.405  -3.349  -1.878  0.00  0.00    +0.000 A 
ATOM      3  C   UNL     1      10.437  -1.968  -2.103  0.00  0.00    +0.000 A 
ATOM      4  C   UNL     1       9.908  -1.077  -1.165  0.00  0.00    +0.000 A 
ATOM      5  C   UNL     1       9.318  -1.540   0.022  0.00  0.00    +0.000 A 
ATOM      6  C   UNL     1       9.245  -2.925   0.229  0.00  0.00    +0.000 A 
ATOM      7  C   UNL     1       9.781  -3.818  -0.709  0.00  0.00    +0.000 A 
BRANCH   5   8
ATOM      8  C   UNL     1       8.814  -0.537   1.052  0.00  0.00    +0.000 C 
ATOM      9  C   UNL     1       9.647  -0.584   2.342  0.00  0.00    +0.000 C 
BRANCH   8  10
ATOM     10  C   UNL     1       7.319  -0.638   1.332  0.00  0.00    +0.000 A 
ATOM     11  C   UNL     1       6.412  -0.018   0.472  0.00  0.00    +0.000 A 
ATOM     12  C   UNL     1       5.051  -0.080   0.761  0.00  0.00    +0.000 A 
ATOM     13  C   UNL     1       4.627  -0.762   1.894  0.00  0.00    +0.000 A 
ATOM     14  C   UNL     1       5.585  -1.363   2.690  0.00  0.00    +0.000 A 
ATOM     15  N   UNL     1       6.911  -1.322   2.433  0.00  0.00    +0.000 NA
ENDBRANCH   8  10
ENDBRANCH   5   8
ENDBRANCH   1   2
BRANCH   1  16
ATOM     16  N   UNL     1      10.033  -5.100  -3.510  0.00  0.00    +0.000 N 
ATOM     17  C   UNL     1      10.126  -5.642  -4.766  0.00  0.00    +0.000 C 
ATOM     18  O   UNL     1      10.994  -5.337  -5.570  0.00  0.00    +0.000 OA
ATOM     19  H   UNL     1       9.373  -5.502  -2.861  0.00  0.00    +0.000 HD
BRANCH  17  20
ATOM     20  C   UNL     1       9.044  -6.580  -5.096  0.00  0.00    +0.000 A 
ATOM     21  C   UNL     1       8.591  -6.729  -6.399  0.00  0.00    +0.000 A 
ATOM     22  S   UNL     1       7.258  -7.791  -6.536  0.00  0.00    +0.000 S 
ATOM     23  C   UNL     1       7.271  -8.120  -4.865  0.00  0.00    +0.000 A 
ATOM     24  N   UNL     1       6.350  -8.945  -4.295  0.00  0.00    +0.000 NA
ATOM     25  C   UNL     1       6.494  -9.108  -3.023  0.00  0.00    +0.000 A 
ATOM     26  N   UNL     1       7.489  -8.541  -2.269  0.00  0.00    +0.000 N 
ATOM     27  C   UNL     1       8.443  -7.712  -2.801  0.00  0.00    +0.000 A 
ATOM     28  O   UNL     1       9.316  -7.219  -2.095  0.00  0.00    +0.000 OA
ATOM     29  C   UNL     1       8.295  -7.454  -4.220  0.00  0.00    +0.000 A 
ATOM     30  H   UNL     1       7.555  -8.712  -1.277  0.00  0.00    +0.000 HD
ENDBRANCH  17  20
ENDBRANCH   1  16
BRANCH   1  32
ATOM     31  C   UNL     1      13.284  -4.383  -1.618  0.00  0.00    +0.000 C 
ATOM     32  C   UNL     1      12.149  -5.176  -2.253  0.00  0.00    +0.000 C 
ENDBRANCH   1  32
TORSDOF 6
