REMARK  Name = 
REMARK  9 active torsions:
REMARK  status: ('A' for Active; 'I' for Inactive)
REMARK    1  A    between atoms: C_1  and  O_2
REMARK    2  A    between atoms: O_2  and  C_3
REMARK    3  A    between atoms: C_10  and  C_11
REMARK    4  A    between atoms: N_13  and  C_14
REMARK    5  A    between atoms: C_14  and  C_15
REMARK    6  A    between atoms: C_18  and  C_19
REMARK    7  A    between atoms: C_19  and  O_20
REMARK    8  A    between atoms: O_20  and  C_21
REMARK    9  A    between atoms: C_21  and  C_22
REMARK                            x       y       z     vdW  Elec       q    Type
REMARK                         _______ _______ _______ _____ _____    ______ ____
ROOT
ATOM      1  C   UNL     1       3.076  -2.621   2.036  0.00  0.00    +0.000 C 
ENDROOT
BRANCH   1   2
ATOM      2  C   UNL     1       2.063  -1.886   2.879  0.00  0.00    +0.000 A 
ATOM      3  C   UNL     1       1.032  -2.581   3.525  0.00  0.00    +0.000 A 
ATOM      4  C   UNL     1       0.077  -1.894   4.283  0.00  0.00    +0.000 A 
ATOM      5  C   UNL     1       0.125  -0.498   4.405  0.00  0.00    +0.000 A 
ATOM      6  C   UNL     1       1.147   0.196   3.747  0.00  0.00    +0.000 A 
ATOM      7  C   UNL     1       2.104  -0.490   2.989  0.00  0.00    +0.000 A 
BRANCH   5   8
ATOM      8  C   UNL     1      -0.912   0.236   5.219  0.00  0.00    +0.000 C 
BRANCH   8   9
ATOM      9  O   UNL     1      -0.848  -0.232   6.562  0.00  0.00    +0.000 OA
BRANCH   9  10
ATOM     10  C   UNL     1      -1.774   0.451   7.411  0.00  0.00    +0.000 C 
BRANCH  10  11
ATOM     11  C   UNL     1      -1.679  -0.063   8.832  0.00  0.00    +0.000 A 
ATOM     12  C   UNL     1      -0.465  -0.518   9.347  0.00  0.00    +0.000 A 
ATOM     13  C   UNL     1      -0.412  -0.970  10.662  0.00  0.00    +0.000 A 
ATOM     14  C   UNL     1      -1.565  -0.944  11.435  0.00  0.00    +0.000 A 
ATOM     15  C   UNL     1      -2.726  -0.457  10.860  0.00  0.00    +0.000 A 
ATOM     16  N   UNL     1      -2.808  -0.013   9.585  0.00  0.00    +0.000 NA
ENDBRANCH  10  11
ENDBRANCH   9  10
ENDBRANCH   8   9
ENDBRANCH   5   8
ENDBRANCH   1   2
BRANCH   1  19
ATOM     17  C   UNL     1       3.338  -3.381  -0.296  0.00  0.00    +0.000 C 
ATOM     18  O   UNL     1       4.419  -3.907  -0.042  0.00  0.00    +0.000 OA
ATOM     19  N   UNL     1       2.620  -2.734   0.672  0.00  0.00    +0.000 N 
ATOM     20  H   UNL     1       1.746  -2.285   0.439  0.00  0.00    +0.000 HD
BRANCH  17  28
ATOM     21  C   UNL     1       0.383  -2.248  -1.655  0.00  0.00    +0.000 A 
ATOM     22  N   UNL     1      -0.651  -1.880  -2.436  0.00  0.00    +0.000 NA
ATOM     23  C   UNL     1      -0.592  -2.179  -3.736  0.00  0.00    +0.000 A 
ATOM     24  N   UNL     1       0.389  -2.819  -4.367  0.00  0.00    +0.000 NA
ATOM     25  C   UNL     1       1.404  -3.159  -3.554  0.00  0.00    +0.000 A 
ATOM     26  S   UNL     1       2.743  -3.988  -4.187  0.00  0.00    +0.000 S 
ATOM     27  C   UNL     1       3.500  -4.027  -2.666  0.00  0.00    +0.000 A 
ATOM     28  C   UNL     1       2.768  -3.414  -1.655  0.00  0.00    +0.000 A 
ATOM     29  C   UNL     1       1.504  -2.908  -2.189  0.00  0.00    +0.000 A 
BRANCH  21  31
ATOM     30  C   UNL     1      -0.995  -1.765   0.173  0.00  0.00    +0.000 C 
ATOM     31  O   UNL     1       0.334  -1.918  -0.317  0.00  0.00    +0.000 OA
ENDBRANCH  21  31
ENDBRANCH  17  28
ENDBRANCH   1  19
TORSDOF 8
