REMARK  Name = 
REMARK  7 active torsions:
REMARK  status: ('A' for Active; 'I' for Inactive)
REMARK    1  A    between atoms: C_1  and  N_2
REMARK    2  A    between atoms: N_2  and  C_3
REMARK    3  A    between atoms: C_3  and  C_4
REMARK    4  A    between atoms: C_7  and  C_8
REMARK    5  A    between atoms: C_8  and  O_9
REMARK    6  A    between atoms: O_9  and  C_10
REMARK    7  A    between atoms: C_13  and  C_14
REMARK                            x       y       z     vdW  Elec       q    Type
REMARK                         _______ _______ _______ _____ _____    ______ ____
ROOT
ATOM      1  O   UNL     1       9.203  -1.281   1.263  0.00  0.00    +0.000 OA
ENDROOT
BRANCH   1   2
ATOM      2  C   UNL     1      10.579  -1.332   1.356  0.00  0.00    +0.000 A 
ATOM      3  C   UNL     1      11.169  -1.251   2.615  0.00  0.00    +0.000 A 
ATOM      4  N   UNL     1      12.518  -1.308   2.811  0.00  0.00    +0.000 NA
ATOM      5  C   UNL     1      13.248  -1.457   1.667  0.00  0.00    +0.000 A 
ATOM      6  C   UNL     1      12.659  -1.538   0.417  0.00  0.00    +0.000 A 
ATOM      7  N   UNL     1      11.318  -1.476   0.233  0.00  0.00    +0.000 NA
BRANCH   5   8
ATOM      8  C   UNL     1      14.732  -1.539   1.773  0.00  0.00    +0.000 C 
ATOM      9  N   UNL     1      15.258  -1.447   3.031  0.00  0.00    +0.000 N 
ATOM     10  O   UNL     1      15.446  -1.683   0.788  0.00  0.00    +0.000 OA
ATOM     11  H   UNL     1      14.655  -1.329   3.836  0.00  0.00    +0.000 HD
ATOM     12  H   UNL     1      16.260  -1.502   3.146  0.00  0.00    +0.000 HD
ENDBRANCH   5   8
ENDBRANCH   1   2
BRANCH   1  13
ATOM     13  C   UNL     1       8.762  -1.358  -0.097  0.00  0.00    +0.000 C 
BRANCH  13  17
ATOM     14  C   UNL     1       4.432  -1.384  -0.342  0.00  0.00    +0.000 A 
ATOM     15  C   UNL     1       5.142  -0.175  -0.305  0.00  0.00    +0.000 A 
ATOM     16  C   UNL     1       6.537  -0.165  -0.214  0.00  0.00    +0.000 A 
ATOM     17  C   UNL     1       7.253  -1.366  -0.154  0.00  0.00    +0.000 A 
ATOM     18  C   UNL     1       6.547  -2.576  -0.173  0.00  0.00    +0.000 A 
ATOM     19  C   UNL     1       5.152  -2.585  -0.274  0.00  0.00    +0.000 A 
BRANCH  14  20
ATOM     20  C   UNL     1       2.921  -1.395  -0.414  0.00  0.00    +0.000 C 
BRANCH  20  22
ATOM     21  C   UNL     1       0.974  -0.773  -1.689  0.00  0.00    +0.000 C 
ATOM     22  N   UNL     1       2.429  -0.773  -1.644  0.00  0.00    +0.000 NA
ATOM     23  H   UNL     1       2.764   0.187  -1.688  0.00  0.00    +0.000 HD
ENDBRANCH  20  22
ENDBRANCH  14  20
ENDBRANCH  13  17
ENDBRANCH   1  13
TORSDOF 6
