REMARK  Name = 
REMARK  7 active torsions:
REMARK  status: ('A' for Active; 'I' for Inactive)
REMARK    1  A    between atoms: N_1  and  C_2
REMARK    2  A    between atoms: C_2  and  C_3
REMARK    3  A    between atoms: C_6  and  O_7
REMARK    4  A    between atoms: O_7  and  C_8
REMARK    5  A    between atoms: C_8  and  C_9
REMARK    6  A    between atoms: C_9  and  O_10
REMARK    7  A    between atoms: C_9  and  C_11
REMARK                            x       y       z     vdW  Elec       q    Type
REMARK                         _______ _______ _______ _____ _____    ______ ____
ROOT
ATOM      1  O   UNL     1       4.105  -5.256   0.576  0.00  0.00    +0.000 OA
ENDROOT
BRANCH   1   5
ATOM      2  C   UNL     1       3.470  -1.231  -0.070  0.00  0.00    +0.000 A 
ATOM      3  C   UNL     1       2.407  -2.057   0.311  0.00  0.00    +0.000 A 
ATOM      4  C   UNL     1       2.624  -3.418   0.518  0.00  0.00    +0.000 A 
ATOM      5  C   UNL     1       3.909  -3.907   0.356  0.00  0.00    +0.000 A 
ATOM      6  N   UNL     1       4.952  -3.147  -0.035  0.00  0.00    +0.000 NA
ATOM      7  C   UNL     1       4.710  -1.834  -0.240  0.00  0.00    +0.000 A 
BRANCH   2   8
ATOM      8  C   UNL     1       3.292   0.242  -0.297  0.00  0.00    +0.000 C 
BRANCH   8   9
ATOM      9  N   UNL     1       2.863   0.925   0.917  0.00  0.00    +0.000 NA
ATOM     10  H   UNL     1       2.824   1.927   0.742  0.00  0.00    +0.000 HD
ATOM     11  H   UNL     1       3.566   0.790   1.643  0.00  0.00    +0.000 HD
ENDBRANCH   8   9
ENDBRANCH   2   8
ENDBRANCH   1   5
BRANCH   1  12
ATOM     12  C   UNL     1       5.488  -5.563   0.831  0.00  0.00    +0.000 C 
BRANCH  12  13
ATOM     13  C   UNL     1       5.704  -7.086   0.851  0.00  0.00    +0.000 C 
BRANCH  13  14
ATOM     14  C   UNL     1       5.543  -7.826  -0.466  0.00  0.00    +0.000 A 
ATOM     15  C   UNL     1       5.180  -7.196  -1.667  0.00  0.00    +0.000 A 
ATOM     16  C   UNL     1       5.077  -7.925  -2.855  0.00  0.00    +0.000 A 
ATOM     17  C   UNL     1       5.338  -9.292  -2.863  0.00  0.00    +0.000 A 
ATOM     18  C   UNL     1       5.701  -9.935  -1.683  0.00  0.00    +0.000 A 
ATOM     19  C   UNL     1       5.800  -9.209  -0.496  0.00  0.00    +0.000 A 
ENDBRANCH  13  14
BRANCH  13  20
ATOM     20  O   UNL     1       4.836  -7.679   1.822  0.00  0.00    +0.000 OA
ATOM     21  H   UNL     1       3.934  -7.514   1.493  0.00  0.00    +0.000 HD
ENDBRANCH  13  20
ENDBRANCH  12  13
ENDBRANCH   1  12
TORSDOF 7
