REMARK  Name = 
REMARK  6 active torsions:
REMARK  status: ('A' for Active; 'I' for Inactive)
REMARK    1  A    between atoms: C_2  and  C_3
REMARK    2  A    between atoms: C_3  and  N_4
REMARK    3  A    between atoms: C_5  and  C_7
REMARK    4  A    between atoms: N_17  and  C_18
REMARK    5  A    between atoms: C_18  and  C_19
REMARK    6  A    between atoms: C_22  and  C_23
REMARK                            x       y       z     vdW  Elec       q    Type
REMARK                         _______ _______ _______ _____ _____    ______ ____
ROOT
ATOM      1  O   UNL     1       7.811   0.262   4.755  0.00  0.00    +0.000 OA
ATOM      2  C   UNL     1       7.453  -0.471   3.836  0.00  0.00    +0.000 C 
ATOM      3  N   UNL     1       6.854  -0.022   2.682  0.00  0.00    +0.000 N 
ATOM      4  H   UNL     1       6.803  -0.664   1.895  0.00  0.00    +0.000 HD
ENDROOT
BRANCH   2   5
ATOM      5  C   UNL     1       7.695  -1.982   3.862  0.00  0.00    +0.000 C 
BRANCH   5   6
ATOM      6  N   UNL     1       8.998  -2.300   3.314  0.00  0.00    +0.000 N 
ATOM      7  C   UNL     1       9.207  -2.441   1.970  0.00  0.00    +0.000 C 
ATOM      8  O   UNL     1       8.299  -2.273   1.158  0.00  0.00    +0.000 OA
ATOM      9  H   UNL     1       9.745  -2.478   3.976  0.00  0.00    +0.000 HD
BRANCH   7  10
ATOM     10  C   UNL     1      10.584  -2.732   1.549  0.00  0.00    +0.000 A 
ATOM     11  C   UNL     1      10.985  -2.434   0.253  0.00  0.00    +0.000 A 
ATOM     12  S   UNL     1      12.625  -2.786  -0.053  0.00  0.00    +0.000 S 
ATOM     13  C   UNL     1      12.846  -3.399   1.518  0.00  0.00    +0.000 A 
ATOM     14  N   UNL     1      14.050  -3.894   1.912  0.00  0.00    +0.000 NA
ATOM     15  C   UNL     1      14.068  -4.358   3.117  0.00  0.00    +0.000 A 
ATOM     16  N   UNL     1      12.988  -4.372   3.964  0.00  0.00    +0.000 N 
ATOM     17  C   UNL     1      11.766  -3.844   3.625  0.00  0.00    +0.000 A 
ATOM     18  O   UNL     1      10.844  -3.807   4.433  0.00  0.00    +0.000 OA
ATOM     19  C   UNL     1      11.687  -3.322   2.273  0.00  0.00    +0.000 A 
ATOM     20  H   UNL     1      13.074  -4.741   4.900  0.00  0.00    +0.000 HD
ENDBRANCH   7  10
ENDBRANCH   5   6
ENDBRANCH   2   5
BRANCH   3  21
ATOM     21  C   UNL     1       6.548   1.378   2.455  0.00  0.00    +0.000 C 
BRANCH  21  22
ATOM     22  C   UNL     1       5.041   1.604   2.225  0.00  0.00    +0.000 C 
ATOM     23  C   UNL     1       4.182   1.173   3.423  0.00  0.00    +0.000 C 
ATOM     24  C   UNL     1       4.306   2.114   4.623  0.00  0.00    +0.000 C 
ATOM     25  C   UNL     1       3.975   3.567   4.254  0.00  0.00    +0.000 C 
ATOM     26  C   UNL     1       4.807   4.024   3.045  0.00  0.00    +0.000 C 
ATOM     27  C   UNL     1       4.762   3.064   1.851  0.00  0.00    +0.000 C 
BRANCH  25  28
ATOM     28  C   UNL     1       2.467   3.742   4.021  0.00  0.00    +0.000 C 
ATOM     29  O   UNL     1       2.006   3.809   2.880  0.00  0.00    +0.000 OA
ATOM     30  N   UNL     1       1.630   3.747   5.123  0.00  0.00    +0.000 N 
ATOM     31  C   UNL     1       2.030   3.895   6.526  0.00  0.00    +0.000 C 
ATOM     32  C   UNL     1       1.202   2.972   7.427  0.00  0.00    +0.000 C 
ATOM     33  O   UNL     1      -0.207   3.150   7.219  0.00  0.00    +0.000 OA
ATOM     34  C   UNL     1      -0.555   2.897   5.847  0.00  0.00    +0.000 C 
ATOM     35  C   UNL     1       0.183   3.860   4.916  0.00  0.00    +0.000 C 
ENDBRANCH  25  28
ENDBRANCH  21  22
ENDBRANCH   3  21
TORSDOF 6
