REMARK  Name = 
REMARK  10 active torsions:
REMARK  status: ('A' for Active; 'I' for Inactive)
REMARK    1  A    between atoms: C_1  and  C_2
REMARK    2  A    between atoms: C_4  and  O_5
REMARK    3  A    between atoms: O_5  and  C_6
REMARK    4  A    between atoms: C_6  and  C_7
REMARK    5  A    between atoms: C_7  and  C_8
REMARK    6  A    between atoms: C_7  and  C_9
REMARK    7  A    between atoms: C_7  and  C_10
REMARK    8  A    between atoms: C_10  and  N_11
REMARK    9  A    between atoms: C_15  and  C_16
REMARK   10  A    between atoms: C_23  and  C_24
REMARK                            x       y       z     vdW  Elec       q    Type
REMARK                         _______ _______ _______ _____ _____    ______ ____
ROOT
ATOM      1  C   UNL     1      -6.134   0.248  -0.036  0.00  0.00    +0.000 C 
ATOM      2  C   UNL     1      -6.316  -0.611  -1.304  0.00  0.00    +0.000 C 
ATOM      3  C   UNL     1      -6.352  -0.621   1.215  0.00  0.00    +0.000 C 
ENDROOT
BRANCH   1   4
ATOM      4  C   UNL     1      -4.683   0.808  -0.018  0.00  0.00    +0.000 C 
BRANCH   4   5
ATOM      5  O   UNL     1      -4.490   1.617   1.149  0.00  0.00    +0.000 OA
BRANCH   5   9
ATOM      6  C   UNL     1      -1.852   4.451   4.073  0.00  0.00    +0.000 C 
ATOM      7  C   UNL     1      -1.940   3.618   2.823  0.00  0.00    +0.000 A 
ATOM      8  C   UNL     1      -3.143   2.964   2.498  0.00  0.00    +0.000 A 
ATOM      9  C   UNL     1      -3.263   2.189   1.337  0.00  0.00    +0.000 A 
ATOM     10  C   UNL     1      -2.167   2.062   0.486  0.00  0.00    +0.000 A 
ATOM     11  C   UNL     1      -0.962   2.702   0.795  0.00  0.00    +0.000 A 
ATOM     12  C   UNL     1      -0.841   3.477   1.955  0.00  0.00    +0.000 A 
BRANCH  12  13
ATOM     13  C   UNL     1       0.416   4.115   2.235  0.00  0.00    +0.000 C 
ATOM     14  N   UNL     1       1.435   4.631   2.460  0.00  0.00    +0.000 NA
ENDBRANCH  12  13
ENDBRANCH   5   9
ENDBRANCH   4   5
ENDBRANCH   1   4
BRANCH   1  15
ATOM     15  C   UNL     1      -7.121   1.441  -0.046  0.00  0.00    +0.000 C 
BRANCH  15  16
ATOM     16  N   UNL     1      -8.511   1.008  -0.063  0.00  0.00    +0.000 N 
ATOM     17  C   UNL     1      -9.516   1.961  -0.104  0.00  0.00    +0.000 A 
ATOM     18  C   UNL     1      -9.359   3.201  -0.707  0.00  0.00    +0.000 A 
ATOM     19  C   UNL     1     -10.426   4.095  -0.732  0.00  0.00    +0.000 A 
ATOM     20  C   UNL     1     -11.652   3.724  -0.186  0.00  0.00    +0.000 A 
ATOM     21  C   UNL     1     -11.730   2.461   0.378  0.00  0.00    +0.000 A 
ATOM     22  N   UNL     1     -10.691   1.585   0.437  0.00  0.00    +0.000 NA
ATOM     23  H   UNL     1      -8.789   0.346   0.658  0.00  0.00    +0.000 HD
BRANCH  20  24
ATOM     24  C   UNL     1     -12.778   4.685  -0.251  0.00  0.00    +0.000 C 
ATOM     25  N   UNL     1     -13.989   4.336   0.275  0.00  0.00    +0.000 N 
ATOM     26  O   UNL     1     -12.637   5.787  -0.771  0.00  0.00    +0.000 OA
ATOM     27  H   UNL     1     -14.215   3.461   0.722  0.00  0.00    +0.000 HD
ATOM     28  H   UNL     1     -14.725   5.024   0.194  0.00  0.00    +0.000 HD
ENDBRANCH  20  24
ENDBRANCH  15  16
ENDBRANCH   1  15
TORSDOF 7
