REMARK  Name = 
REMARK  4 active torsions:
REMARK  status: ('A' for Active; 'I' for Inactive)
REMARK    1  A    between atoms: N_1  and  C_2
REMARK    2  A    between atoms: C_2  and  C_3
REMARK    3  A    between atoms: C_6  and  C_7
REMARK    4  A    between atoms: C_7  and  N_8
REMARK                            x       y       z     vdW  Elec       q    Type
REMARK                         _______ _______ _______ _____ _____    ______ ____
ROOT
ATOM      1  C   UNL     1       3.769  -3.083   4.943  0.00  0.00    +0.000 C 
ENDROOT
BRANCH   1   2
ATOM      2  N   UNL     1       4.965  -3.135   5.776  0.00  0.00    +0.000 N 
ATOM      3  C   UNL     1       6.253  -3.225   5.318  0.00  0.00    +0.000 A 
ATOM      4  N   UNL     1       7.062  -3.720   6.227  0.00  0.00    +0.000 NA
ATOM      5  C   UNL     1       6.279  -3.931   7.333  0.00  0.00    +0.000 A 
ATOM      6  C   UNL     1       6.611  -4.530   8.555  0.00  0.00    +0.000 A 
ATOM      7  C   UNL     1       5.617  -4.625   9.527  0.00  0.00    +0.000 A 
ATOM      8  F   UNL     1       5.895  -5.242  10.685  0.00  0.00    +0.000 F 
ATOM      9  C   UNL     1       4.340  -4.109   9.327  0.00  0.00    +0.000 A 
ATOM     10  C   UNL     1       3.988  -3.519   8.108  0.00  0.00    +0.000 A 
ATOM     11  C   UNL     1       4.976  -3.482   7.114  0.00  0.00    +0.000 A 
ENDBRANCH   1   2
BRANCH   1  15
ATOM     12  C   UNL     1       3.845  -0.205   1.701  0.00  0.00    +0.000 A 
ATOM     13  C   UNL     1       4.287  -1.520   1.497  0.00  0.00    +0.000 A 
ATOM     14  C   UNL     1       4.262  -2.449   2.546  0.00  0.00    +0.000 A 
ATOM     15  C   UNL     1       3.814  -2.078   3.822  0.00  0.00    +0.000 A 
ATOM     16  C   UNL     1       3.371  -0.765   4.022  0.00  0.00    +0.000 A 
ATOM     17  C   UNL     1       3.384   0.158   2.972  0.00  0.00    +0.000 A 
BRANCH  12  18
ATOM     18  C   UNL     1       3.915   0.808   0.586  0.00  0.00    +0.000 C 
BRANCH  18  19
ATOM     19  N   UNL     1       3.125   0.408  -0.572  0.00  0.00    +0.000 NA
ATOM     20  H   UNL     1       3.147   1.157  -1.264  0.00  0.00    +0.000 HD
ATOM     21  H   UNL     1       2.151   0.308  -0.289  0.00  0.00    +0.000 HD
ENDBRANCH  18  19
ENDBRANCH  12  18
ENDBRANCH   1  15
TORSDOF 4
