REMARK  Name = 
REMARK  3 active torsions:
REMARK  status: ('A' for Active; 'I' for Inactive)
REMARK    1  A    between atoms: C_2  and  C_4
REMARK    2  A    between atoms: N_8  and  C_9
REMARK    3  A    between atoms: C_9  and  C_10
REMARK                            x       y       z     vdW  Elec       q    Type
REMARK                         _______ _______ _______ _____ _____    ______ ____
ROOT
ATOM      1  C   UNL     1       3.233  -1.345  -0.005  0.00  0.00    +0.000 A 
ATOM      2  C   UNL     1       3.698  -1.217   1.299  0.00  0.00    +0.000 A 
ATOM      3  C   UNL     1       4.460  -2.248   1.848  0.00  0.00    +0.000 A 
ATOM      4  C   UNL     1       4.721  -3.395   1.100  0.00  0.00    +0.000 A 
ATOM      5  N   UNL     1       5.393  -4.436   1.730  0.00  0.00    +0.000 N 
ATOM      6  N   UNL     1       4.268  -3.531  -0.160  0.00  0.00    +0.000 NA
ATOM      7  C   UNL     1       3.538  -2.512  -0.687  0.00  0.00    +0.000 A 
ATOM      8  H   UNL     1       6.302  -4.153   2.078  0.00  0.00    +0.000 HD
ENDROOT
BRANCH   1  10
ATOM      9  N   UNL     1       2.516   0.967  -0.228  0.00  0.00    +0.000 N 
ATOM     10  C   UNL     1       2.406  -0.319  -0.677  0.00  0.00    +0.000 C 
ATOM     11  O   UNL     1       1.677  -0.600  -1.618  0.00  0.00    +0.000 OA
ATOM     12  H   UNL     1       2.017   1.671  -0.756  0.00  0.00    +0.000 HD
ATOM     13  H   UNL     1       3.265   1.279   0.378  0.00  0.00    +0.000 HD
ENDBRANCH   1  10
BRANCH   5  14
ATOM     14  C   UNL     1       5.375  -5.748   1.108  0.00  0.00    +0.000 C 
BRANCH  14  15
ATOM     15  C   UNL     1       5.025  -6.753   2.176  0.00  0.00    +0.000 A 
ATOM     16  C   UNL     1       3.839  -6.613   2.899  0.00  0.00    +0.000 A 
ATOM     17  N   UNL     1       3.436  -7.454   3.880  0.00  0.00    +0.000 NA
ATOM     18  C   UNL     1       4.254  -8.495   4.150  0.00  0.00    +0.000 A 
ATOM     19  C   UNL     1       5.445  -8.731   3.480  0.00  0.00    +0.000 A 
ATOM     20 BR   UNL     1       6.515 -10.220   3.922  0.00  0.00    +0.000 Br
ATOM     21  C   UNL     1       5.838  -7.849   2.476  0.00  0.00    +0.000 A 
ENDBRANCH  14  15
ENDBRANCH   5  14
TORSDOF 3
