REMARK  Name = 
REMARK  5 active torsions:
REMARK  status: ('A' for Active; 'I' for Inactive)
REMARK    1  A    between atoms: C_2  and  C_4
REMARK    2  A    between atoms: C_7  and  N_8
REMARK    3  A    between atoms: N_8  and  C_9
REMARK    4  A    between atoms: C_9  and  C_10
REMARK    5  A    between atoms: C_15  and  C_16
REMARK                            x       y       z     vdW  Elec       q    Type
REMARK                         _______ _______ _______ _____ _____    ______ ____
ROOT
ATOM      1  C   UNL     1       4.759  -0.280   6.004  0.00  0.00    +0.000 C 
ENDROOT
BRANCH   1   2
ATOM      2  C   UNL     1       5.644   0.061   7.186  0.00  0.00    +0.000 A 
ATOM      3  C   UNL     1       5.826   1.377   7.618  0.00  0.00    +0.000 A 
ATOM      4  C   UNL     1       6.660   1.634   8.704  0.00  0.00    +0.000 A 
ATOM      5  F   UNL     1       6.826   2.899   9.115  0.00  0.00    +0.000 F 
ATOM      6  C   UNL     1       7.318   0.610   9.378  0.00  0.00    +0.000 A 
ATOM      7  C   UNL     1       7.155  -0.718   8.963  0.00  0.00    +0.000 A 
ATOM      8  C   UNL     1       6.322  -0.972   7.860  0.00  0.00    +0.000 A 
BRANCH   7   9
ATOM      9  C   UNL     1       7.843  -1.851   9.703  0.00  0.00    +0.000 C 
ATOM     10  C   UNL     1       8.798  -2.642   8.796  0.00  0.00    +0.000 C 
ATOM     11  C   UNL     1       9.362  -3.852   9.529  0.00  0.00    +0.000 C 
ATOM     12  O   UNL     1       8.311  -4.671  10.039  0.00  0.00    +0.000 OA
ATOM     13  C   UNL     1       7.510  -3.984  10.998  0.00  0.00    +0.000 C 
ATOM     14  C   UNL     1       6.818  -2.788  10.361  0.00  0.00    +0.000 C 
ENDBRANCH   7   9
ENDBRANCH   1   2
BRANCH   1  15
ATOM     15  N   UNL     1       3.727  -1.202   6.460  0.00  0.00    +0.000 N 
ATOM     16  H   UNL     1       3.007  -0.741   7.006  0.00  0.00    +0.000 HD
BRANCH  15  20
ATOM     17  C   UNL     1       2.246  -3.996   3.843  0.00  0.00    +0.000 A 
ATOM     18  C   UNL     1       3.158  -3.043   3.418  0.00  0.00    +0.000 A 
ATOM     19  N   UNL     1       3.641  -2.071   4.241  0.00  0.00    +0.000 NA
ATOM     20  C   UNL     1       3.192  -2.076   5.513  0.00  0.00    +0.000 A 
ATOM     21  C   UNL     1       2.261  -3.046   5.918  0.00  0.00    +0.000 A 
ATOM     22  N   UNL     1       1.756  -4.017   5.111  0.00  0.00    +0.000 NA
BRANCH  17  24
ATOM     23  N   UNL     1       0.877  -5.946   3.398  0.00  0.00    +0.000 N 
ATOM     24  C   UNL     1       1.786  -5.051   2.900  0.00  0.00    +0.000 C 
ATOM     25  O   UNL     1       2.193  -5.122   1.748  0.00  0.00    +0.000 OA
ATOM     26  H   UNL     1       0.519  -6.675   2.798  0.00  0.00    +0.000 HD
ATOM     27  H   UNL     1       0.538  -5.853   4.349  0.00  0.00    +0.000 HD
ENDBRANCH  17  24
ENDBRANCH  15  20
ENDBRANCH   1  15
TORSDOF 5
