REMARK  Name = 
REMARK  8 active torsions:
REMARK  status: ('A' for Active; 'I' for Inactive)
REMARK    1  A    between atoms: C_2  and  C_23
REMARK    2  A    between atoms: N_3  and  C_4
REMARK    3  A    between atoms: C_4  and  C_5
REMARK    4  A    between atoms: C_8  and  C_9
REMARK    5  A    between atoms: C_9  and  N_10
REMARK    6  A    between atoms: C_11  and  C_13
REMARK    7  A    between atoms: C_13  and  C_14
REMARK    8  A    between atoms: C_14  and  O_16
REMARK                            x       y       z     vdW  Elec       q    Type
REMARK                         _______ _______ _______ _____ _____    ______ ____
ROOT
ATOM      1  C   UNL     1       3.182   1.551   3.429  0.00  0.00    +0.000 A 
ATOM      2  C   UNL     1       3.311   2.930   3.648  0.00  0.00    +0.000 A 
ATOM      3  C   UNL     1       4.138   3.417   4.667  0.00  0.00    +0.000 A 
ATOM      4  C   UNL     1       4.867   2.536   5.475  0.00  0.00    +0.000 A 
ATOM      5  C   UNL     1       4.760   1.159   5.235  0.00  0.00    +0.000 A 
ATOM      6  C   UNL     1       3.935   0.672   4.217  0.00  0.00    +0.000 A 
ENDROOT
BRANCH   1   7
ATOM      7  C   UNL     1       2.249   1.025   2.370  0.00  0.00    +0.000 C 
BRANCH   7  10
ATOM      8  O   UNL     1       1.078  -0.089   0.130  0.00  0.00    +0.000 OA
ATOM      9  C   UNL     1       2.208   0.378   0.016  0.00  0.00    +0.000 C 
ATOM     10  N   UNL     1       2.897   0.887   1.090  0.00  0.00    +0.000 N 
ATOM     11  H   UNL     1       3.734   1.439   0.932  0.00  0.00    +0.000 HD
BRANCH   9  12
ATOM     12  C   UNL     1       2.900   0.386  -1.278  0.00  0.00    +0.000 A 
ATOM     13  C   UNL     1       2.549  -0.535  -2.256  0.00  0.00    +0.000 A 
ATOM     14  S   UNL     1       3.439  -0.369  -3.702  0.00  0.00    +0.000 S 
ATOM     15  C   UNL     1       4.293   0.969  -3.086  0.00  0.00    +0.000 A 
ATOM     16  N   UNL     1       5.201   1.632  -3.851  0.00  0.00    +0.000 NA
ATOM     17  C   UNL     1       5.746   2.649  -3.270  0.00  0.00    +0.000 A 
ATOM     18  N   UNL     1       5.476   3.054  -1.989  0.00  0.00    +0.000 N 
ATOM     19  C   UNL     1       4.600   2.388  -1.164  0.00  0.00    +0.000 A 
ATOM     20  O   UNL     1       4.435   2.733   0.001  0.00  0.00    +0.000 OA
ATOM     21  C   UNL     1       3.932   1.259  -1.783  0.00  0.00    +0.000 A 
ATOM     22  H   UNL     1       5.954   3.844  -1.584  0.00  0.00    +0.000 HD
ENDBRANCH   9  12
ENDBRANCH   7  10
ENDBRANCH   1   7
BRANCH   4  23
ATOM     23  C   UNL     1       5.741   3.047   6.591  0.00  0.00    +0.000 C 
BRANCH  23  24
ATOM     24  N   UNL     1       5.020   3.182   7.838  0.00  0.00    +0.000 N 
ATOM     25  C   UNL     1       5.009   2.173   8.781  0.00  0.00    +0.000 C 
ATOM     26  O   UNL     1       5.587   1.104   8.615  0.00  0.00    +0.000 OA
ATOM     27  H   UNL     1       4.326   3.915   7.923  0.00  0.00    +0.000 HD
BRANCH  25  28
ATOM     28  C   UNL     1       4.256   2.519  10.086  0.00  0.00    +0.000 C 
ATOM     29  C   UNL     1       3.555   1.284  10.641  0.00  0.00    +0.000 C 
ATOM     30  C   UNL     1       2.373   1.851  11.383  0.00  0.00    +0.000 C 
ATOM     31  C   UNL     1       2.022   3.075  10.568  0.00  0.00    +0.000 C 
ATOM     32  O   UNL     1       3.219   3.523   9.904  0.00  0.00    +0.000 OA
BRANCH  28  33
ATOM     33  C   UNL     1       5.258   3.082  11.108  0.00  0.00    +0.000 C 
ATOM     34  O   UNL     1       6.182   2.472  11.620  0.00  0.00    +0.000 OA
BRANCH  33  35
ATOM     35  O   UNL     1       4.988   4.380  11.431  0.00  0.00    +0.000 OA
ATOM     36  H   UNL     1       4.201   4.678  10.919  0.00  0.00    +0.000 HD
ENDBRANCH  33  35
ENDBRANCH  28  33
ENDBRANCH  25  28
ENDBRANCH  23  24
ENDBRANCH   4  23
TORSDOF 8
