REMARK  Name = 
REMARK  7 active torsions:
REMARK  status: ('A' for Active; 'I' for Inactive)
REMARK    1  A    between atoms: C_1  and  C_2
REMARK    2  A    between atoms: C_2  and  N_3
REMARK    3  A    between atoms: C_2  and  C_10
REMARK    4  A    between atoms: N_3  and  C_4
REMARK    5  A    between atoms: C_13  and  C_14
REMARK    6  A    between atoms: C_14  and  N_15
REMARK    7  A    between atoms: C_16  and  C_18
REMARK                            x       y       z     vdW  Elec       q    Type
REMARK                         _______ _______ _______ _____ _____    ______ ____
ROOT
ATOM      1  C   UNL     1       2.964   0.025  -1.423  0.00  0.00    +0.000 A 
ATOM      2  C   UNL     1       3.149   1.270  -2.023  0.00  0.00    +0.000 A 
ATOM      3  C   UNL     1       3.547   1.335  -3.360  0.00  0.00    +0.000 A 
ATOM      4  C   UNL     1       3.766   0.160  -4.079  0.00  0.00    +0.000 A 
ATOM      5  C   UNL     1       3.604  -1.036  -3.393  0.00  0.00    +0.000 A 
ATOM      6  N   UNL     1       3.198  -1.128  -2.105  0.00  0.00    +0.000 NA
ENDROOT
BRANCH   1   8
ATOM      7  C   UNL     1       1.467   0.930   0.445  0.00  0.00    +0.000 C 
ATOM      8  C   UNL     1       2.499  -0.125   0.029  0.00  0.00    +0.000 C 
BRANCH   8   9
ATOM      9  N   UNL     1       3.658  -0.066   0.934  0.00  0.00    +0.000 N 
ATOM     10  H   UNL     1       4.132   0.830   0.917  0.00  0.00    +0.000 HD
BRANCH   9  11
ATOM     11  C   UNL     1       3.685  -0.711   2.169  0.00  0.00    +0.000 A 
ATOM     12  C   UNL     1       2.955  -1.864   2.462  0.00  0.00    +0.000 A 
ATOM     13  C   UNL     1       3.109  -2.475   3.700  0.00  0.00    +0.000 A 
ATOM     14  N   UNL     1       3.942  -2.031   4.663  0.00  0.00    +0.000 NA
ATOM     15  C   UNL     1       4.667  -0.938   4.358  0.00  0.00    +0.000 A 
ATOM     16  C   UNL     1       4.583  -0.268   3.144  0.00  0.00    +0.000 A 
ENDBRANCH   9  11
ENDBRANCH   8   9
ENDBRANCH   1   8
BRANCH   4  17
ATOM     17  C   UNL     1       4.230   0.177  -5.507  0.00  0.00    +0.000 C 
BRANCH  17  18
ATOM     18  N   UNL     1       5.669   0.150  -5.574  0.00  0.00    +0.000 N 
ATOM     19  C   UNL     1       6.364   0.300  -6.743  0.00  0.00    +0.000 C 
ATOM     20  O   UNL     1       5.793   0.376  -7.825  0.00  0.00    +0.000 OA
ATOM     21  H   UNL     1       6.162   0.078  -4.690  0.00  0.00    +0.000 HD
BRANCH  19  22
ATOM     22  C   UNL     1       7.832   0.373  -6.633  0.00  0.00    +0.000 A 
ATOM     23  C   UNL     1       8.607   0.412  -7.785  0.00  0.00    +0.000 A 
ATOM     24  S   UNL     1      10.282   0.527  -7.487  0.00  0.00    +0.000 S 
ATOM     25  C   UNL     1      10.040   0.524  -5.804  0.00  0.00    +0.000 A 
ATOM     26  N   UNL     1      11.093   0.601  -4.947  0.00  0.00    +0.000 NA
ATOM     27  C   UNL     1      10.771   0.595  -3.698  0.00  0.00    +0.000 A 
ATOM     28  N   UNL     1       9.489   0.517  -3.225  0.00  0.00    +0.000 N 
ATOM     29  C   UNL     1       8.398   0.432  -4.050  0.00  0.00    +0.000 A 
ATOM     30  O   UNL     1       7.265   0.348  -3.580  0.00  0.00    +0.000 OA
ATOM     31  C   UNL     1       8.698   0.435  -5.470  0.00  0.00    +0.000 A 
ATOM     32  H   UNL     1       9.297   0.500  -2.235  0.00  0.00    +0.000 HD
ENDBRANCH  19  22
ENDBRANCH  17  18
ENDBRANCH   4  17
TORSDOF 6
