REMARK  Name = 
REMARK  8 active torsions:
REMARK  status: ('A' for Active; 'I' for Inactive)
REMARK    1  A    between atoms: N_1  and  C_2
REMARK    2  A    between atoms: C_2  and  C_3
REMARK    3  A    between atoms: C_7  and  N_8
REMARK    4  A    between atoms: N_8  and  C_9
REMARK    5  A    between atoms: C_9  and  C_10
REMARK    6  A    between atoms: C_13  and  C_14
REMARK    7  A    between atoms: C_14  and  N_15
REMARK    8  A    between atoms: C_16  and  C_18
REMARK                            x       y       z     vdW  Elec       q    Type
REMARK                         _______ _______ _______ _____ _____    ______ ____
ROOT
ATOM      1  C   UNL     1       3.853   3.049   6.608  0.00  0.00    +0.000 A 
ATOM      2  C   UNL     1       4.046   4.084   7.522  0.00  0.00    +0.000 A 
ATOM      3  C   UNL     1       4.154   3.775   8.878  0.00  0.00    +0.000 A 
ATOM      4  C   UNL     1       4.065   2.446   9.297  0.00  0.00    +0.000 A 
ATOM      5  C   UNL     1       3.840   1.486   8.319  0.00  0.00    +0.000 A 
ATOM      6  N   UNL     1       3.742   1.754   6.999  0.00  0.00    +0.000 NA
ENDROOT
BRANCH   1   7
ATOM      7  C   UNL     1       3.773   3.338   5.121  0.00  0.00    +0.000 C 
BRANCH   7   8
ATOM      8  N   UNL     1       2.401   3.619   4.694  0.00  0.00    +0.000 N 
ATOM      9  H   UNL     1       1.909   4.234   5.333  0.00  0.00    +0.000 HD
BRANCH   8  14
ATOM     10  C   UNL     1       0.770   5.044   1.671  0.00  0.00    +0.000 A 
ATOM     11  C   UNL     1       1.614   4.578   0.656  0.00  0.00    +0.000 A 
ATOM     12  C   UNL     1       2.709   3.782   0.972  0.00  0.00    +0.000 A 
ATOM     13  C   UNL     1       2.983   3.466   2.305  0.00  0.00    +0.000 A 
ATOM     14  C   UNL     1       2.186   3.952   3.350  0.00  0.00    +0.000 A 
ATOM     15  C   UNL     1       1.055   4.706   3.006  0.00  0.00    +0.000 A 
BRANCH  10  16
ATOM     16  C   UNL     1      -0.381   5.956   1.339  0.00  0.00    +0.000 C 
BRANCH  16  17
ATOM     17  N   UNL     1       0.034   7.351   1.430  0.00  0.00    +0.000 NA
ATOM     18  H   UNL     1      -0.693   7.945   1.038  0.00  0.00    +0.000 HD
ATOM     19  H   UNL     1       0.862   7.485   0.850  0.00  0.00    +0.000 HD
ENDBRANCH  16  17
ENDBRANCH  10  16
ENDBRANCH   8  14
ENDBRANCH   7   8
ENDBRANCH   1   7
BRANCH   4  20
ATOM     20  C   UNL     1       4.171   2.053  10.739  0.00  0.00    +0.000 C 
BRANCH  20  21
ATOM     21  N   UNL     1       2.882   2.052  11.383  0.00  0.00    +0.000 N 
ATOM     22  C   UNL     1       2.770   1.799  12.727  0.00  0.00    +0.000 C 
ATOM     23  O   UNL     1       3.756   1.620  13.436  0.00  0.00    +0.000 OA
ATOM     24  H   UNL     1       2.060   1.967  10.792  0.00  0.00    +0.000 HD
BRANCH  22  25
ATOM     25  C   UNL     1       1.414   1.812  13.291  0.00  0.00    +0.000 A 
ATOM     26  C   UNL     1       1.238   2.071  14.643  0.00  0.00    +0.000 A 
ATOM     27  S   UNL     1      -0.395   2.080  15.132  0.00  0.00    +0.000 S 
ATOM     28  C   UNL     1      -0.925   1.690  13.562  0.00  0.00    +0.000 A 
ATOM     29  N   UNL     1      -2.244   1.514  13.294  0.00  0.00    +0.000 NA
ATOM     30  C   UNL     1      -2.501   1.193  12.068  0.00  0.00    +0.000 A 
ATOM     31  N   UNL     1      -1.555   1.041  11.086  0.00  0.00    +0.000 N 
ATOM     32  C   UNL     1      -0.214   1.243  11.305  0.00  0.00    +0.000 A 
ATOM     33  O   UNL     1       0.605   1.155  10.395  0.00  0.00    +0.000 OA
ATOM     34  C   UNL     1       0.130   1.583  12.670  0.00  0.00    +0.000 A 
ATOM     35  H   UNL     1      -1.825   0.802  10.143  0.00  0.00    +0.000 HD
ENDBRANCH  22  25
ENDBRANCH  20  21
ENDBRANCH   4  20
TORSDOF 8
