REMARK  Name = 
REMARK  8 active torsions:
REMARK  status: ('A' for Active; 'I' for Inactive)
REMARK    1  A    between atoms: C_1  and  C_2
REMARK    2  A    between atoms: C_2  and  N_3
REMARK    3  A    between atoms: C_2  and  C_16
REMARK    4  A    between atoms: C_4  and  C_6
REMARK    5  A    between atoms: C_19  and  C_20
REMARK    6  A    between atoms: C_20  and  C_21
REMARK    7  A    between atoms: C_20  and  C_22
REMARK    8  A    between atoms: C_20  and  C_23
REMARK                            x       y       z     vdW  Elec       q    Type
REMARK                         _______ _______ _______ _____ _____    ______ ____
ROOT
ATOM      1  C   UNL     1       3.648  -1.024  -0.413  0.00  0.00    +0.000 C 
ATOM      2  C   UNL     1       2.450  -0.103  -0.168  0.00  0.00    +0.000 C 
ENDROOT
BRANCH   2   3
ATOM      3  C   UNL     1       2.887   1.009   0.769  0.00  0.00    +0.000 A 
ATOM      4  C   UNL     1       2.855   2.342   0.349  0.00  0.00    +0.000 A 
ATOM      5  C   UNL     1       3.145   3.376   1.239  0.00  0.00    +0.000 A 
ATOM      6  C   UNL     1       3.451   3.128   2.587  0.00  0.00    +0.000 A 
ATOM      7  C   UNL     1       3.530   1.778   2.978  0.00  0.00    +0.000 A 
ATOM      8  C   UNL     1       3.277   0.735   2.082  0.00  0.00    +0.000 A 
BRANCH   6   9
ATOM      9  C   UNL     1       3.683   4.274   3.609  0.00  0.00    +0.000 C 
ATOM     10  C   UNL     1       2.880   5.544   3.217  0.00  0.00    +0.000 C 
ATOM     11  C   UNL     1       3.113   3.804   4.977  0.00  0.00    +0.000 C 
BRANCH   9  12
ATOM     12  C   UNL     1       5.176   4.674   3.709  0.00  0.00    +0.000 A 
ATOM     13  C   UNL     1       5.866   5.161   2.581  0.00  0.00    +0.000 A 
ATOM     14  C   UNL     1       7.222   5.449   2.673  0.00  0.00    +0.000 A 
ATOM     15  N   UNL     1       7.940   5.328   3.806  0.00  0.00    +0.000 NA
ATOM     16  C   UNL     1       7.269   4.901   4.893  0.00  0.00    +0.000 A 
ATOM     17  C   UNL     1       5.918   4.570   4.894  0.00  0.00    +0.000 A 
ENDBRANCH   9  12
ENDBRANCH   6   9
ENDBRANCH   2   3
BRANCH   2  18
ATOM     18  N   UNL     1       1.313  -0.808   0.405  0.00  0.00    +0.000 N 
ATOM     19  C   UNL     1       0.696  -1.858  -0.219  0.00  0.00    +0.000 C 
ATOM     20  O   UNL     1       1.050  -2.290  -1.319  0.00  0.00    +0.000 OA
ATOM     21  H   UNL     1       0.762  -0.287   1.081  0.00  0.00    +0.000 HD
BRANCH  19  22
ATOM     22  C   UNL     1      -0.382  -2.506   0.523  0.00  0.00    +0.000 A 
ATOM     23  C   UNL     1      -0.645  -3.856   0.346  0.00  0.00    +0.000 A 
ATOM     24  S   UNL     1      -1.947  -4.418   1.295  0.00  0.00    +0.000 S 
ATOM     25  C   UNL     1      -2.216  -2.867   1.943  0.00  0.00    +0.000 A 
ATOM     26  N   UNL     1      -3.234  -2.629   2.811  0.00  0.00    +0.000 NA
ATOM     27  C   UNL     1      -3.336  -1.399   3.187  0.00  0.00    +0.000 A 
ATOM     28  N   UNL     1      -2.503  -0.383   2.787  0.00  0.00    +0.000 N 
ATOM     29  C   UNL     1      -1.437  -0.590   1.956  0.00  0.00    +0.000 A 
ATOM     30  O   UNL     1      -0.650   0.325   1.679  0.00  0.00    +0.000 OA
ATOM     31  C   UNL     1      -1.303  -1.943   1.471  0.00  0.00    +0.000 A 
ATOM     32  H   UNL     1      -2.622   0.554   3.140  0.00  0.00    +0.000 HD
ENDBRANCH  19  22
ENDBRANCH   2  18
TORSDOF 5
