REMARK  Name = 
REMARK  7 active torsions:
REMARK  status: ('A' for Active; 'I' for Inactive)
REMARK    1  A    between atoms: C_2  and  C_15
REMARK    2  A    between atoms: N_3  and  C_4
REMARK    3  A    between atoms: C_4  and  C_5
REMARK    4  A    between atoms: N_8  and  C_9
REMARK    5  A    between atoms: C_9  and  C_10
REMARK    6  A    between atoms: C_10  and  C_11
REMARK    7  A    between atoms: C_11  and  O_12
REMARK                            x       y       z     vdW  Elec       q    Type
REMARK                         _______ _______ _______ _____ _____    ______ ____
ROOT
ATOM      1  O   UNL     1      -0.149  -0.584  -1.691  0.00  0.00    +0.000 OA
ATOM      2  C   UNL     1       0.736  -0.183  -2.457  0.00  0.00    +0.000 C 
ATOM      3  N   UNL     1       1.965  -0.774  -2.540  0.00  0.00    +0.000 N 
ATOM      4  H   UNL     1       2.715  -0.281  -3.016  0.00  0.00    +0.000 HD
ENDROOT
BRANCH   2   5
ATOM      5  C   UNL     1       0.504   0.931  -3.370  0.00  0.00    +0.000 A 
ATOM      6  C   UNL     1      -0.750   1.228  -3.878  0.00  0.00    +0.000 A 
ATOM      7  S   UNL     1      -0.743   2.589  -4.919  0.00  0.00    +0.000 S 
ATOM      8  C   UNL     1       0.927   2.827  -4.691  0.00  0.00    +0.000 A 
ATOM      9  N   UNL     1       1.592   3.848  -5.294  0.00  0.00    +0.000 NA
ATOM     10  C   UNL     1       2.846   3.917  -5.003  0.00  0.00    +0.000 A 
ATOM     11  N   UNL     1       3.507   3.055  -4.163  0.00  0.00    +0.000 N 
ATOM     12  C   UNL     1       2.901   1.979  -3.585  0.00  0.00    +0.000 A 
ATOM     13  O   UNL     1       3.556   1.152  -2.946  0.00  0.00    +0.000 OA
ATOM     14  C   UNL     1       1.475   1.875  -3.855  0.00  0.00    +0.000 A 
ATOM     15  H   UNL     1       4.499   3.132  -4.004  0.00  0.00    +0.000 HD
ENDBRANCH   2   5
BRANCH   3  16
ATOM     16  C   UNL     1       2.361  -1.864  -1.679  0.00  0.00    +0.000 C 
BRANCH  16  17
ATOM     17  C   UNL     1       3.413  -2.760  -2.351  0.00  0.00    +0.000 C 
ATOM     18  C   UNL     1       2.907  -3.378  -3.661  0.00  0.00    +0.000 C 
ATOM     19  C   UNL     1       1.932  -4.530  -3.446  0.00  0.00    +0.000 C 
ATOM     20  N   UNL     1       2.501  -5.571  -2.575  0.00  0.00    +0.000 NA
ATOM     21  C   UNL     1       2.842  -5.003  -1.262  0.00  0.00    +0.000 C 
ATOM     22  C   UNL     1       3.873  -3.876  -1.405  0.00  0.00    +0.000 C 
BRANCH  20  23
ATOM     23  C   UNL     1       1.565  -6.706  -2.450  0.00  0.00    +0.000 C 
BRANCH  23  24
ATOM     24  C   UNL     1       1.270  -7.397  -3.791  0.00  0.00    +0.000 C 
BRANCH  24  25
ATOM     25  C   UNL     1       2.521  -7.942  -4.463  0.00  0.00    +0.000 C 
BRANCH  25  26
ATOM     26  O   UNL     1       2.172  -8.555  -5.701  0.00  0.00    +0.000 OA
ATOM     27  H   UNL     1       1.501  -9.232  -5.515  0.00  0.00    +0.000 HD
ENDBRANCH  25  26
ENDBRANCH  24  25
ENDBRANCH  23  24
ENDBRANCH  20  23
ENDBRANCH  16  17
ENDBRANCH   3  16
TORSDOF 7
