REMARK  Name = 
REMARK  6 active torsions:
REMARK  status: ('A' for Active; 'I' for Inactive)
REMARK    1  A    between atoms: C_1  and  C_2
REMARK    2  A    between atoms: C_2  and  C_3
REMARK    3  A    between atoms: C_2  and  C_14
REMARK    4  A    between atoms: C_3  and  N_4
REMARK    5  A    between atoms: C_8  and  C_9
REMARK    6  A    between atoms: C_18  and  C_19
REMARK                            x       y       z     vdW  Elec       q    Type
REMARK                         _______ _______ _______ _____ _____    ______ ____
ROOT
ATOM      1  C   UNL     1       2.950   0.292   1.437  0.00  0.00    +0.000 C 
ENDROOT
BRANCH   1   2
ATOM      2  N   UNL     1       2.405  -0.399   2.601  0.00  0.00    +0.000 N 
ATOM      3  C   UNL     1       3.027  -0.047   3.809  0.00  0.00    +0.000 A 
ATOM      4  C   UNL     1       2.605  -0.638   5.010  0.00  0.00    +0.000 A 
ATOM      5  N   UNL     1       3.141  -0.360   6.230  0.00  0.00    +0.000 NA
ATOM      6  C   UNL     1       4.135   0.568   6.202  0.00  0.00    +0.000 A 
ATOM      7  C   UNL     1       4.555   1.172   5.030  0.00  0.00    +0.000 A 
ATOM      8  N   UNL     1       4.007   0.881   3.822  0.00  0.00    +0.000 NA
ATOM      9  H   UNL     1       2.453  -1.407   2.481  0.00  0.00    +0.000 HD
BRANCH   6  10
ATOM     10  C   UNL     1       4.786   0.938   7.486  0.00  0.00    +0.000 C 
ATOM     11  N   UNL     1       4.302   0.317   8.605  0.00  0.00    +0.000 N 
ATOM     12  O   UNL     1       5.702   1.749   7.546  0.00  0.00    +0.000 OA
ATOM     13  H   UNL     1       3.538  -0.346   8.531  0.00  0.00    +0.000 HD
ATOM     14  H   UNL     1       4.702   0.535   9.505  0.00  0.00    +0.000 HD
ENDBRANCH   6  10
ENDBRANCH   1   2
BRANCH   1  16
ATOM     15  C   UNL     1       0.810   0.157   0.010  0.00  0.00    +0.000 C 
ATOM     16  C   UNL     1       2.233  -0.245   0.236  0.00  0.00    +0.000 C 
BRANCH  16  17
ATOM     17  C   UNL     1       2.783  -1.406  -0.472  0.00  0.00    +0.000 A 
ATOM     18  C   UNL     1       2.031  -2.581  -0.578  0.00  0.00    +0.000 A 
ATOM     19  C   UNL     1       2.544  -3.696  -1.237  0.00  0.00    +0.000 A 
ATOM     20  C   UNL     1       3.806  -3.639  -1.824  0.00  0.00    +0.000 A 
ATOM     21  C   UNL     1       4.570  -2.465  -1.754  0.00  0.00    +0.000 A 
ATOM     22  C   UNL     1       4.056  -1.358  -1.054  0.00  0.00    +0.000 A 
BRANCH  21  23
ATOM     23  C   UNL     1       5.913  -2.370  -2.436  0.00  0.00    +0.000 C 
ATOM     24  F   UNL     1       6.253  -3.494  -3.127  0.00  0.00    +0.000 F 
ATOM     25  F   UNL     1       5.964  -1.351  -3.340  0.00  0.00    +0.000 F 
ATOM     26  F   UNL     1       6.932  -2.147  -1.562  0.00  0.00    +0.000 F 
ENDBRANCH  21  23
ENDBRANCH  16  17
ENDBRANCH   1  16
TORSDOF 5
