REMARK  Name = 
REMARK  6 active torsions:
REMARK  status: ('A' for Active; 'I' for Inactive)
REMARK    1  A    between atoms: C_1  and  C_2
REMARK    2  A    between atoms: C_2  and  C_3
REMARK    3  A    between atoms: C_2  and  C_4
REMARK    4  A    between atoms: C_2  and  C_5
REMARK    5  A    between atoms: N_7  and  C_8
REMARK    6  A    between atoms: C_8  and  C_9
REMARK                            x       y       z     vdW  Elec       q    Type
REMARK                         _______ _______ _______ _____ _____    ______ ____
ROOT
ATOM      1  C   UNL     1       3.030   0.481  -1.327  0.00  0.00    +0.000 A 
ATOM      2  C   UNL     1       2.917   1.826  -1.651  0.00  0.00    +0.000 A 
ATOM      3  N   UNL     1       3.378   2.030  -2.921  0.00  0.00    +0.000 N 
ATOM      4  C   UNL     1       3.802   0.838  -3.466  0.00  0.00    +0.000 A 
ATOM      5  C   UNL     1       4.326   0.552  -4.739  0.00  0.00    +0.000 A 
ATOM      6  C   UNL     1       4.677  -0.765  -5.036  0.00  0.00    +0.000 A 
ATOM      7  C   UNL     1       4.518  -1.766  -4.090  0.00  0.00    +0.000 A 
ATOM      8  C   UNL     1       3.990  -1.473  -2.827  0.00  0.00    +0.000 A 
ATOM      9  C   UNL     1       3.611  -0.151  -2.489  0.00  0.00    +0.000 A 
ENDROOT
BRANCH   1  11
ATOM     10  C   UNL     1       1.039   0.071   0.148  0.00  0.00    +0.000 C 
ATOM     11  C   UNL     1       2.570  -0.096   0.016  0.00  0.00    +0.000 C 
ATOM     12  C   UNL     1       3.253   0.665   1.176  0.00  0.00    +0.000 C 
ATOM     13  C   UNL     1       2.888  -1.587   0.209  0.00  0.00    +0.000 C 
ENDBRANCH   1  11
BRANCH   3  14
ATOM     14  C   UNL     1       3.402   3.333  -3.579  0.00  0.00    +0.000 C 
BRANCH  14  15
ATOM     15  C   UNL     1       2.180   3.544  -4.411  0.00  0.00    +0.000 A 
ATOM     16  C   UNL     1       0.912   3.632  -3.868  0.00  0.00    +0.000 A 
ATOM     17  N   UNL     1      -0.210   3.780  -4.600  0.00  0.00    +0.000 NA
ATOM     18  C   UNL     1      -0.035   3.836  -5.926  0.00  0.00    +0.000 A 
ATOM     19  N   UNL     1       1.142   3.794  -6.568  0.00  0.00    +0.000 NA
ATOM     20  C   UNL     1       2.229   3.648  -5.786  0.00  0.00    +0.000 A 
ENDBRANCH  14  15
ENDBRANCH   3  14
TORSDOF 3
