REMARK  Name = 
REMARK  7 active torsions:
REMARK  status: ('A' for Active; 'I' for Inactive)
REMARK    1  A    between atoms: C_1  and  C_2
REMARK    2  A    between atoms: C_2  and  C_3
REMARK    3  A    between atoms: C_7  and  O_8
REMARK    4  A    between atoms: O_8  and  C_9
REMARK    5  A    between atoms: C_12  and  C_13
REMARK    6  A    between atoms: C_13  and  N_14
REMARK    7  A    between atoms: C_15  and  C_17
REMARK                            x       y       z     vdW  Elec       q    Type
REMARK                         _______ _______ _______ _____ _____    ______ ____
ROOT
ATOM      1  C   UNL     1       9.356  -2.979  -7.238  0.00  0.00    +0.000 C 
ENDROOT
BRANCH   1   5
ATOM      2  C   UNL     1       7.076  -1.072  -4.208  0.00  0.00    +0.000 A 
ATOM      3  C   UNL     1       6.392  -1.819  -5.153  0.00  0.00    +0.000 A 
ATOM      4  C   UNL     1       7.124  -2.442  -6.164  0.00  0.00    +0.000 A 
ATOM      5  C   UNL     1       8.516  -2.321  -6.185  0.00  0.00    +0.000 A 
ATOM      6  C   UNL     1       9.101  -1.536  -5.196  0.00  0.00    +0.000 A 
ATOM      7  N   UNL     1       8.416  -0.917  -4.208  0.00  0.00    +0.000 NA
BRANCH   2   8
ATOM      8  O   UNL     1       6.312  -0.469  -3.226  0.00  0.00    +0.000 OA
BRANCH   8  13
ATOM      9  C   UNL     1       6.679   2.180  -0.543  0.00  0.00    +0.000 C 
ATOM     10  C   UNL     1       6.785   3.383  -1.497  0.00  0.00    +0.000 C 
ATOM     11  C   UNL     1       7.594   3.052  -2.745  0.00  0.00    +0.000 C 
ATOM     12  C   UNL     1       7.013   1.847  -3.467  0.00  0.00    +0.000 C 
ATOM     13  C   UNL     1       6.965   0.618  -2.552  0.00  0.00    +0.000 C 
ATOM     14  C   UNL     1       6.150   0.939  -1.286  0.00  0.00    +0.000 C 
BRANCH   9  16
ATOM     15  C   UNL     1       5.684   1.483   1.720  0.00  0.00    +0.000 C 
ATOM     16  C   UNL     1       5.806   2.572   0.666  0.00  0.00    +0.000 C 
ENDBRANCH   9  16
ENDBRANCH   8  13
ENDBRANCH   2   8
ENDBRANCH   1   5
BRANCH   1  17
ATOM     17  N   UNL     1       9.547  -2.119  -8.380  0.00  0.00    +0.000 N 
ATOM     18  C   UNL     1      10.215  -2.564  -9.493  0.00  0.00    +0.000 C 
ATOM     19  O   UNL     1      10.621  -3.719  -9.585  0.00  0.00    +0.000 OA
ATOM     20  H   UNL     1       9.424  -1.121  -8.240  0.00  0.00    +0.000 HD
BRANCH  18  21
ATOM     21  C   UNL     1      10.367  -1.606 -10.595  0.00  0.00    +0.000 A 
ATOM     22  C   UNL     1      10.587  -2.074 -11.884  0.00  0.00    +0.000 A 
ATOM     23  S   UNL     1      10.683  -0.836 -13.053  0.00  0.00    +0.000 S 
ATOM     24  C   UNL     1      10.492   0.371 -11.871  0.00  0.00    +0.000 A 
ATOM     25  N   UNL     1      10.504   1.690 -12.207  0.00  0.00    +0.000 NA
ATOM     26  C   UNL     1      10.383   2.497 -11.209  0.00  0.00    +0.000 A 
ATOM     27  N   UNL     1      10.244   2.108  -9.901  0.00  0.00    +0.000 N 
ATOM     28  C   UNL     1      10.195   0.789  -9.517  0.00  0.00    +0.000 A 
ATOM     29  O   UNL     1      10.025   0.470  -8.344  0.00  0.00    +0.000 OA
ATOM     30  C   UNL     1      10.338  -0.162 -10.603  0.00  0.00    +0.000 A 
ATOM     31  H   UNL     1      10.150   2.792  -9.166  0.00  0.00    +0.000 HD
ENDBRANCH  18  21
ENDBRANCH   1  17
TORSDOF 6
