REMARK  Name = 
REMARK  7 active torsions:
REMARK  status: ('A' for Active; 'I' for Inactive)
REMARK    1  A    between atoms: C_1  and  O_2
REMARK    2  A    between atoms: O_2  and  C_3
REMARK    3  A    between atoms: C_6  and  C_7
REMARK    4  A    between atoms: C_7  and  C_8
REMARK    5  A    between atoms: C_7  and  N_9
REMARK    6  A    between atoms: N_9  and  C_10
REMARK    7  A    between atoms: C_13  and  C_14
REMARK                            x       y       z     vdW  Elec       q    Type
REMARK                         _______ _______ _______ _____ _____    ______ ____
ROOT
ATOM      1  N   UNL     1       4.250   5.222  -3.204  0.00  0.00    +0.000 N 
ATOM      2  H   UNL     1       3.669   5.321  -2.372  0.00  0.00    +0.000 HD
ENDROOT
BRANCH   1   3
ATOM      3  C   UNL     1       4.965   6.397  -3.464  0.00  0.00    +0.000 A 
ATOM      4  C   UNL     1       6.077   6.457  -4.304  0.00  0.00    +0.000 A 
ATOM      5  C   UNL     1       6.705   7.672  -4.580  0.00  0.00    +0.000 A 
ATOM      6  C   UNL     1       6.190   8.824  -4.011  0.00  0.00    +0.000 A 
ATOM      7  N   UNL     1       5.085   8.842  -3.218  0.00  0.00    +0.000 NA
ATOM      8  C   UNL     1       4.501   7.635  -2.994  0.00  0.00    +0.000 A 
BRANCH   6   9
ATOM      9  C   UNL     1       6.880  10.129  -4.264  0.00  0.00    +0.000 C 
ATOM     10  N   UNL     1       6.324  11.219  -3.656  0.00  0.00    +0.000 N 
ATOM     11  O   UNL     1       7.882  10.224  -4.963  0.00  0.00    +0.000 OA
ATOM     12  H   UNL     1       5.497  11.106  -3.082  0.00  0.00    +0.000 HD
ATOM     13  H   UNL     1       6.750  12.127  -3.779  0.00  0.00    +0.000 HD
ENDBRANCH   6   9
ENDBRANCH   1   3
BRANCH   1  14
ATOM     14  C   UNL     1       4.928   3.915  -3.223  0.00  0.00    +0.000 C 
ATOM     15  C   UNL     1       4.887   3.278  -4.615  0.00  0.00    +0.000 C 
BRANCH  14  19
ATOM     16  C   UNL     1       3.006   1.313  -0.314  0.00  0.00    +0.000 A 
ATOM     17  C   UNL     1       4.341   1.684  -0.161  0.00  0.00    +0.000 A 
ATOM     18  C   UNL     1       4.955   2.521  -1.101  0.00  0.00    +0.000 A 
ATOM     19  C   UNL     1       4.246   2.996  -2.214  0.00  0.00    +0.000 A 
ATOM     20  C   UNL     1       2.906   2.606  -2.365  0.00  0.00    +0.000 A 
ATOM     21  C   UNL     1       2.297   1.771  -1.425  0.00  0.00    +0.000 A 
BRANCH  16  23
ATOM     22  C   UNL     1       2.953   0.089   1.721  0.00  0.00    +0.000 C 
ATOM     23  O   UNL     1       2.289   0.522   0.540  0.00  0.00    +0.000 OA
ENDBRANCH  16  23
ENDBRANCH  14  19
ENDBRANCH   1  14
TORSDOF 5
