REMARK  Name = 
REMARK  7 active torsions:
REMARK  status: ('A' for Active; 'I' for Inactive)
REMARK    1  A    between atoms: C_1  and  C_2
REMARK    2  A    between atoms: C_5  and  O_6
REMARK    3  A    between atoms: O_6  and  C_7
REMARK    4  A    between atoms: C_7  and  C_8
REMARK    5  A    between atoms: C_11  and  C_12
REMARK    6  A    between atoms: C_12  and  N_13
REMARK    7  A    between atoms: C_14  and  C_16
REMARK                            x       y       z     vdW  Elec       q    Type
REMARK                         _______ _______ _______ _____ _____    ______ ____
ROOT
ATOM      1  C   UNL     1       8.911  -1.027   0.129  0.00  0.00    +0.000 A 
ATOM      2  C   UNL     1       9.813  -2.100   0.178  0.00  0.00    +0.000 A 
ATOM      3  C   UNL     1      11.196  -1.876   0.212  0.00  0.00    +0.000 A 
ATOM      4  C   UNL     1      11.713  -0.574   0.221  0.00  0.00    +0.000 A 
ATOM      5  C   UNL     1      10.812   0.499   0.168  0.00  0.00    +0.000 A 
ATOM      6  C   UNL     1       9.428   0.276   0.133  0.00  0.00    +0.000 A 
ENDROOT
BRANCH   1   7
ATOM      7  C   UNL     1       7.419  -1.276   0.011  0.00  0.00    +0.000 C 
BRANCH   7   8
ATOM      8  O   UNL     1       6.790  -1.367   1.289  0.00  0.00    +0.000 OA
BRANCH   8  13
ATOM      9  C   UNL     1       1.315  -2.554   2.060  0.00  0.00    +0.000 C 
ATOM     10  C   UNL     1       2.758  -2.203   1.855  0.00  0.00    +0.000 A 
ATOM     11  C   UNL     1       3.620  -2.008   2.924  0.00  0.00    +0.000 A 
ATOM     12  C   UNL     1       4.965  -1.724   2.661  0.00  0.00    +0.000 A 
ATOM     13  C   UNL     1       5.445  -1.640   1.347  0.00  0.00    +0.000 A 
ATOM     14  C   UNL     1       4.494  -1.848   0.347  0.00  0.00    +0.000 A 
ATOM     15 CL   UNL     1       4.768  -1.796  -1.354  0.00  0.00    +0.000 Cl
ATOM     16  N   UNL     1       3.182  -2.126   0.577  0.00  0.00    +0.000 NA
ENDBRANCH   8  13
ENDBRANCH   7   8
ENDBRANCH   1   7
BRANCH   4  17
ATOM     17  C   UNL     1      13.188  -0.335   0.419  0.00  0.00    +0.000 C 
BRANCH  17  18
ATOM     18  N   UNL     1      13.994  -0.198  -0.773  0.00  0.00    +0.000 N 
ATOM     19  C   UNL     1      15.333   0.102  -0.597  0.00  0.00    +0.000 C 
ATOM     20  O   UNL     1      15.799   0.253   0.532  0.00  0.00    +0.000 OA
ATOM     21  H   UNL     1      13.635  -0.500  -1.675  0.00  0.00    +0.000 HD
BRANCH  19  22
ATOM     22  C   UNL     1      16.193   0.290  -1.774  0.00  0.00    +0.000 A 
ATOM     23  C   UNL     1      17.556   0.502  -1.595  0.00  0.00    +0.000 A 
ATOM     24  S   UNL     1      18.386   0.890  -3.031  0.00  0.00    +0.000 S 
ATOM     25  C   UNL     1      16.932   0.903  -3.908  0.00  0.00    +0.000 A 
ATOM     26  N   UNL     1      16.878   1.406  -5.176  0.00  0.00    +0.000 NA
ATOM     27  C   UNL     1      15.692   1.428  -5.677  0.00  0.00    +0.000 A 
ATOM     28  N   UNL     1      14.574   0.895  -5.084  0.00  0.00    +0.000 N 
ATOM     29  C   UNL     1      14.618   0.254  -3.867  0.00  0.00    +0.000 A 
ATOM     30  O   UNL     1      13.674  -0.401  -3.438  0.00  0.00    +0.000 OA
ATOM     31  C   UNL     1      15.873   0.414  -3.168  0.00  0.00    +0.000 A 
ATOM     32  H   UNL     1      13.700   0.851  -5.584  0.00  0.00    +0.000 HD
ENDBRANCH  19  22
ENDBRANCH  17  18
ENDBRANCH   4  17
TORSDOF 6
