REMARK  Name = 
REMARK  6 active torsions:
REMARK  status: ('A' for Active; 'I' for Inactive)
REMARK    1  A    between atoms: C_2  and  C_14
REMARK    2  A    between atoms: N_3  and  C_4
REMARK    3  A    between atoms: C_4  and  C_5
REMARK    4  A    between atoms: N_8  and  C_9
REMARK    5  A    between atoms: C_9  and  C_10
REMARK    6  A    between atoms: C_10  and  O_11
REMARK                            x       y       z     vdW  Elec       q    Type
REMARK                         _______ _______ _______ _____ _____    ______ ____
ROOT
ATOM      1  O   UNL     1       0.636   1.993   3.438  0.00  0.00    +0.000 OA
ATOM      2  C   UNL     1       0.240   2.699   2.514  0.00  0.00    +0.000 C 
ATOM      3  N   UNL     1       0.960   2.876   1.365  0.00  0.00    +0.000 N 
ATOM      4  H   UNL     1       0.593   3.479   0.635  0.00  0.00    +0.000 HD
ENDROOT
BRANCH   2   5
ATOM      5  C   UNL     1      -1.057   3.388   2.569  0.00  0.00    +0.000 A 
ATOM      6  C   UNL     1      -2.007   3.008   3.508  0.00  0.00    +0.000 A 
ATOM      7  S   UNL     1      -3.432   3.946   3.458  0.00  0.00    +0.000 S 
ATOM      8  C   UNL     1      -2.817   4.916   2.204  0.00  0.00    +0.000 A 
ATOM      9  N   UNL     1      -3.528   5.971   1.719  0.00  0.00    +0.000 NA
ATOM     10  C   UNL     1      -2.923   6.652   0.805  0.00  0.00    +0.000 A 
ATOM     11  N   UNL     1      -1.679   6.356   0.308  0.00  0.00    +0.000 N 
ATOM     12  C   UNL     1      -0.990   5.230   0.672  0.00  0.00    +0.000 A 
ATOM     13  O   UNL     1       0.006   4.876   0.046  0.00  0.00    +0.000 OA
ATOM     14  C   UNL     1      -1.568   4.492   1.785  0.00  0.00    +0.000 A 
ATOM     15  H   UNL     1      -1.291   6.889  -0.455  0.00  0.00    +0.000 HD
ENDBRANCH   2   5
BRANCH   3  16
ATOM     16  C   UNL     1       2.255   2.298   1.105  0.00  0.00    +0.000 C 
BRANCH  16  17
ATOM     17  C   UNL     1       3.413   3.284   1.353  0.00  0.00    +0.000 C 
ATOM     18  C   UNL     1       3.328   4.582   0.540  0.00  0.00    +0.000 C 
ATOM     19  C   UNL     1       3.491   4.347  -0.965  0.00  0.00    +0.000 C 
ATOM     20  N   UNL     1       4.721   3.609  -1.307  0.00  0.00    +0.000 NA
ATOM     21  C   UNL     1       4.884   2.382  -0.501  0.00  0.00    +0.000 C 
ATOM     22  C   UNL     1       4.756   2.633   1.006  0.00  0.00    +0.000 C 
BRANCH  20  23
ATOM     23  C   UNL     1       4.743   3.234  -2.746  0.00  0.00    +0.000 C 
BRANCH  23  24
ATOM     24  C   UNL     1       4.759   4.424  -3.718  0.00  0.00    +0.000 C 
BRANCH  24  25
ATOM     25  O   UNL     1       5.880   5.265  -3.470  0.00  0.00    +0.000 OA
ATOM     26  H   UNL     1       5.929   5.351  -2.498  0.00  0.00    +0.000 HD
ENDBRANCH  24  25
ENDBRANCH  23  24
ENDBRANCH  20  23
ENDBRANCH  16  17
ENDBRANCH   3  16
TORSDOF 6
