REMARK  Name = 
REMARK  7 active torsions:
REMARK  status: ('A' for Active; 'I' for Inactive)
REMARK    1  A    between atoms: C_1  and  O_2
REMARK    2  A    between atoms: O_2  and  C_3
REMARK    3  A    between atoms: C_6  and  C_7
REMARK    4  A    between atoms: C_11  and  C_12
REMARK    5  A    between atoms: C_12  and  N_13
REMARK    6  A    between atoms: C_17  and  C_18
REMARK    7  A    between atoms: C_21  and  C_22
REMARK                            x       y       z     vdW  Elec       q    Type
REMARK                         _______ _______ _______ _____ _____    ______ ____
ROOT
ATOM      1  C   UNL     1       6.548  -4.123  -6.701  0.00  0.00    +0.000 C 
ENDROOT
BRANCH   1   2
ATOM      2  N   UNL     1       5.539  -4.589  -7.625  0.00  0.00    +0.000 N 
ATOM      3  C   UNL     1       5.710  -5.900  -8.042  0.00  0.00    +0.000 A 
ATOM      4  N   UNL     1       6.249  -6.811  -7.225  0.00  0.00    +0.000 NA
ATOM      5  C   UNL     1       6.350  -8.072  -7.700  0.00  0.00    +0.000 A 
ATOM      6  C   UNL     1       5.925  -8.476  -8.950  0.00  0.00    +0.000 A 
ATOM      7  C   UNL     1       5.401  -7.464  -9.738  0.00  0.00    +0.000 A 
ATOM      8  C   UNL     1       4.869  -7.648 -11.128  0.00  0.00    +0.000 C 
ATOM      9  N   UNL     1       5.297  -6.182  -9.283  0.00  0.00    +0.000 NA
ATOM     10  H   UNL     1       5.419  -4.026  -8.459  0.00  0.00    +0.000 HD
BRANCH   6  11
ATOM     11  C   UNL     1       6.097  -9.882  -9.375  0.00  0.00    +0.000 C 
ATOM     12  N   UNL     1       6.031 -10.853  -8.411  0.00  0.00    +0.000 N 
ATOM     13  O   UNL     1       6.300 -10.194 -10.540  0.00  0.00    +0.000 OA
ATOM     14  H   UNL     1       5.727 -10.703  -7.459  0.00  0.00    +0.000 HD
ATOM     15  H   UNL     1       6.094 -11.812  -8.733  0.00  0.00    +0.000 HD
ENDBRANCH   6  11
ENDBRANCH   1   2
BRANCH   1  20
ATOM     16  C   UNL     1       5.256  -1.103  -4.710  0.00  0.00    +0.000 A 
ATOM     17  C   UNL     1       5.875  -0.064  -5.430  0.00  0.00    +0.000 A 
ATOM     18  C   UNL     1       6.634  -0.318  -6.577  0.00  0.00    +0.000 A 
ATOM     19  C   UNL     1       6.828  -1.625  -7.010  0.00  0.00    +0.000 A 
ATOM     20  C   UNL     1       6.271  -2.692  -6.297  0.00  0.00    +0.000 A 
ATOM     21  C   UNL     1       5.462  -2.415  -5.177  0.00  0.00    +0.000 A 
BRANCH  16  25
ATOM     22  C   UNL     1       2.817  -0.205  -1.343  0.00  0.00    +0.000 A 
ATOM     23  C   UNL     1       3.495  -1.410  -1.345  0.00  0.00    +0.000 A 
ATOM     24  C   UNL     1       4.311  -1.712  -2.437  0.00  0.00    +0.000 A 
ATOM     25  C   UNL     1       4.425  -0.821  -3.518  0.00  0.00    +0.000 A 
ATOM     26  C   UNL     1       3.689   0.361  -3.392  0.00  0.00    +0.000 A 
ATOM     27  N   UNL     1       2.904   0.694  -2.340  0.00  0.00    +0.000 NA
BRANCH  22  29
ATOM     28  C   UNL     1       1.371   1.328  -0.342  0.00  0.00    +0.000 C 
ATOM     29  O   UNL     1       2.001   0.052  -0.260  0.00  0.00    +0.000 OA
ENDBRANCH  22  29
ENDBRANCH  16  25
ENDBRANCH   1  20
TORSDOF 5
