REMARK  Name = 
REMARK  4 active torsions:
REMARK  status: ('A' for Active; 'I' for Inactive)
REMARK    1  A    between atoms: C_2  and  C_4
REMARK    2  A    between atoms: N_8  and  C_9
REMARK    3  A    between atoms: C_9  and  C_10
REMARK    4  A    between atoms: C_10  and  C_11
REMARK                            x       y       z     vdW  Elec       q    Type
REMARK                         _______ _______ _______ _____ _____    ______ ____
ROOT
ATOM      1  C   UNL     1       3.028   0.378   1.422  0.00  0.00    +0.000 A 
ATOM      2  C   UNL     1       4.317   0.807   1.124  0.00  0.00    +0.000 A 
ATOM      3  C   UNL     1       5.087   1.388   2.133  0.00  0.00    +0.000 A 
ATOM      4  C   UNL     1       4.582   1.481   3.431  0.00  0.00    +0.000 A 
ATOM      5  N   UNL     1       5.378   2.098   4.414  0.00  0.00    +0.000 N 
ATOM      6  N   UNL     1       3.329   1.079   3.722  0.00  0.00    +0.000 NA
ATOM      7  C   UNL     1       2.574   0.558   2.719  0.00  0.00    +0.000 A 
ATOM      8  H   UNL     1       6.359   1.934   4.214  0.00  0.00    +0.000 HD
ENDROOT
BRANCH   1  10
ATOM      9  N   UNL     1       2.696  -0.886  -0.630  0.00  0.00    +0.000 N 
ATOM     10  C   UNL     1       2.123  -0.225   0.419  0.00  0.00    +0.000 C 
ATOM     11  O   UNL     1       0.908  -0.168   0.543  0.00  0.00    +0.000 OA
ATOM     12  H   UNL     1       2.061  -1.382  -1.245  0.00  0.00    +0.000 HD
ATOM     13  H   UNL     1       3.664  -1.174  -0.630  0.00  0.00    +0.000 HD
ENDBRANCH   1  10
BRANCH   5  14
ATOM     14  C   UNL     1       5.034   1.686   5.780  0.00  0.00    +0.000 C 
BRANCH  14  15
ATOM     15  C   UNL     1       5.992   2.362   6.771  0.00  0.00    +0.000 C 
BRANCH  15  16
ATOM     16  C   UNL     1       5.736   1.952   8.195  0.00  0.00    +0.000 A 
ATOM     17  C   UNL     1       4.817   2.637   8.993  0.00  0.00    +0.000 A 
ATOM     18  C   UNL     1       4.599   2.224  10.304  0.00  0.00    +0.000 A 
ATOM     19  C   UNL     1       5.310   1.134  10.775  0.00  0.00    +0.000 A 
ATOM     20  N   UNL     1       6.201   0.442  10.035  0.00  0.00    +0.000 NA
ATOM     21  C   UNL     1       6.391   0.864   8.764  0.00  0.00    +0.000 A 
ENDBRANCH  15  16
ENDBRANCH  14  15
ENDBRANCH   5  14
TORSDOF 4
