REMARK  Name = 
REMARK  6 active torsions:
REMARK  status: ('A' for Active; 'I' for Inactive)
REMARK    1  A    between atoms: C_1  and  C_2
REMARK    2  A    between atoms: C_5  and  C_6
REMARK    3  A    between atoms: C_6  and  C_7
REMARK    4  A    between atoms: C_6  and  N_8
REMARK    5  A    between atoms: N_8  and  C_9
REMARK    6  A    between atoms: C_12  and  C_13
REMARK                            x       y       z     vdW  Elec       q    Type
REMARK                         _______ _______ _______ _____ _____    ______ ____
ROOT
ATOM      1  N   UNL     1      -3.911   1.377   0.085  0.00  0.00    +0.000 N 
ATOM      2  H   UNL     1      -3.223   2.072  -0.203  0.00  0.00    +0.000 HD
ENDROOT
BRANCH   1   3
ATOM      3  C   UNL     1      -5.176   1.662  -0.441  0.00  0.00    +0.000 A 
ATOM      4  C   UNL     1      -6.212   0.733  -0.531  0.00  0.00    +0.000 A 
ATOM      5  C   UNL     1      -7.481   1.112  -0.976  0.00  0.00    +0.000 A 
ATOM      6  C   UNL     1      -7.692   2.438  -1.318  0.00  0.00    +0.000 A 
ATOM      7  N   UNL     1      -6.735   3.397  -1.229  0.00  0.00    +0.000 NA
ATOM      8  C   UNL     1      -5.521   2.979  -0.774  0.00  0.00    +0.000 A 
BRANCH   6   9
ATOM      9  C   UNL     1      -9.042   2.863  -1.812  0.00  0.00    +0.000 C 
ATOM     10  N   UNL     1      -9.162   4.183  -2.143  0.00  0.00    +0.000 N 
ATOM     11  O   UNL     1      -9.982   2.086  -1.919  0.00  0.00    +0.000 OA
ATOM     12  H   UNL     1      -8.366   4.803  -2.036  0.00  0.00    +0.000 HD
ATOM     13  H   UNL     1     -10.048   4.536  -2.476  0.00  0.00    +0.000 HD
ENDBRANCH   6   9
ENDBRANCH   1   3
BRANCH   1  14
ATOM     14  C   UNL     1      -3.342   0.021   0.037  0.00  0.00    +0.000 C 
ATOM     15  C   UNL     1      -3.763  -0.812   1.253  0.00  0.00    +0.000 C 
BRANCH  14  20
ATOM     16  C   UNL     1       2.500   0.401  -0.099  0.00  0.00    +0.000 C 
ATOM     17  C   UNL     1       1.003   0.300  -0.072  0.00  0.00    +0.000 A 
ATOM     18  C   UNL     1       0.294  -0.229  -1.156  0.00  0.00    +0.000 A 
ATOM     19  C   UNL     1      -1.102  -0.310  -1.121  0.00  0.00    +0.000 A 
ATOM     20  C   UNL     1      -1.819   0.134   0.000  0.00  0.00    +0.000 A 
ATOM     21  C   UNL     1      -1.100   0.673   1.080  0.00  0.00    +0.000 A 
ATOM     22  C   UNL     1       0.295   0.750   1.046  0.00  0.00    +0.000 A 
ENDBRANCH  14  20
ENDBRANCH   1  14
TORSDOF 4
