REMARK  Name = 
REMARK  5 active torsions:
REMARK  status: ('A' for Active; 'I' for Inactive)
REMARK    1  A    between atoms: C_2  and  C_4
REMARK    2  A    between atoms: C_7  and  O_8
REMARK    3  A    between atoms: O_8  and  C_9
REMARK    4  A    between atoms: C_9  and  C_10
REMARK    5  A    between atoms: C_14  and  C_15
REMARK                            x       y       z     vdW  Elec       q    Type
REMARK                         _______ _______ _______ _____ _____    ______ ____
ROOT
ATOM      1  C   UNL     1       5.066   5.877   0.269  0.00  0.00    +0.000 C 
ENDROOT
BRANCH   1   2
ATOM      2  C   UNL     1       6.020   7.033   0.062  0.00  0.00    +0.000 A 
ATOM      3  C   UNL     1       5.520   8.341   0.022  0.00  0.00    +0.000 A 
ATOM      4  C   UNL     1       6.386   9.430  -0.065  0.00  0.00    +0.000 A 
ATOM      5  C   UNL     1       7.765   9.225  -0.090  0.00  0.00    +0.000 A 
ATOM      6  C   UNL     1       8.293   7.929  -0.029  0.00  0.00    +0.000 A 
ATOM      7  C   UNL     1       7.406   6.840   0.035  0.00  0.00    +0.000 A 
BRANCH   6   8
ATOM      8  C   UNL     1       9.796   7.716   0.018  0.00  0.00    +0.000 C 
ATOM      9  C   UNL     1      10.303   6.910  -1.186  0.00  0.00    +0.000 C 
ATOM     10  C   UNL     1      11.783   6.588  -1.034  0.00  0.00    +0.000 C 
ATOM     11  O   UNL     1      12.033   5.917   0.200  0.00  0.00    +0.000 OA
ATOM     12  C   UNL     1      11.705   6.726   1.327  0.00  0.00    +0.000 C 
ATOM     13  C   UNL     1      10.220   7.052   1.338  0.00  0.00    +0.000 C 
ENDBRANCH   6   8
ENDBRANCH   1   2
BRANCH   1  14
ATOM     14  O   UNL     1       5.510   4.688  -0.394  0.00  0.00    +0.000 OA
BRANCH  14  18
ATOM     15  C   UNL     1       2.970   1.510   0.268  0.00  0.00    +0.000 A 
ATOM     16  C   UNL     1       4.112   1.328  -0.514  0.00  0.00    +0.000 A 
ATOM     17  C   UNL     1       4.967   2.411  -0.737  0.00  0.00    +0.000 A 
ATOM     18  C   UNL     1       4.647   3.633  -0.166  0.00  0.00    +0.000 A 
ATOM     19  N   UNL     1       3.542   3.836   0.587  0.00  0.00    +0.000 NA
ATOM     20  C   UNL     1       2.727   2.774   0.781  0.00  0.00    +0.000 A 
BRANCH  15  22
ATOM     21  N   UNL     1       2.458  -0.845   0.569  0.00  0.00    +0.000 N 
ATOM     22  C   UNL     1       1.997   0.441   0.568  0.00  0.00    +0.000 C 
ATOM     23  O   UNL     1       0.834   0.696   0.849  0.00  0.00    +0.000 OA
ATOM     24  H   UNL     1       1.806  -1.546   0.900  0.00  0.00    +0.000 HD
ATOM     25  H   UNL     1       3.442  -1.069   0.609  0.00  0.00    +0.000 HD
ENDBRANCH  15  22
ENDBRANCH  14  18
ENDBRANCH   1  14
TORSDOF 5
