REMARK  Name = 
REMARK  7 active torsions:
REMARK  status: ('A' for Active; 'I' for Inactive)
REMARK    1  A    between atoms: N_1  and  C_2
REMARK    2  A    between atoms: C_2  and  C_3
REMARK    3  A    between atoms: C_3  and  C_4
REMARK    4  A    between atoms: C_7  and  C_8
REMARK    5  A    between atoms: C_8  and  C_9
REMARK    6  A    between atoms: C_14  and  C_15
REMARK    7  A    between atoms: C_15  and  O_17
REMARK                            x       y       z     vdW  Elec       q    Type
REMARK                         _______ _______ _______ _____ _____    ______ ____
ROOT
ATOM      1  C   UNL     1       9.370  -0.422  -0.479  0.00  0.00    +0.000 A 
ATOM      2  C   UNL     1       9.565  -1.786  -0.794  0.00  0.00    +0.000 A 
ATOM      3  N   UNL     1      10.182  -2.469   0.171  0.00  0.00    +0.000 NA
ATOM      4  N   UNL     1      10.441  -1.550   1.134  0.00  0.00    +0.000 N 
ATOM      5  C   UNL     1      11.178  -1.742   2.301  0.00  0.00    +0.000 A 
ATOM      6  C   UNL     1      11.384  -0.718   3.155  0.00  0.00    +0.000 A 
ATOM      7  C   UNL     1      10.795   0.579   2.829  0.00  0.00    +0.000 A 
ATOM      8  C   UNL     1      10.080   0.769   1.705  0.00  0.00    +0.000 A 
ATOM      9  C   UNL     1       9.906  -0.305   0.788  0.00  0.00    +0.000 A 
ENDROOT
BRANCH   6  10
ATOM     10  C   UNL     1      12.261  -0.979   4.327  0.00  0.00    +0.000 C 
ATOM     11  O   UNL     1      13.072  -1.888   4.373  0.00  0.00    +0.000 OA
BRANCH  10  12
ATOM     12  O   UNL     1      12.089  -0.120   5.352  0.00  0.00    +0.000 OA
ATOM     13  H   UNL     1      11.312   0.461   5.287  0.00  0.00    +0.000 HD
ENDBRANCH  10  12
ENDBRANCH   6  10
BRANCH   1  14
ATOM     14  C   UNL     1       8.829   0.645  -1.368  0.00  0.00    +0.000 C 
BRANCH  14  18
ATOM     15  C   UNL     1       4.498   0.613  -1.151  0.00  0.00    +0.000 A 
ATOM     16  C   UNL     1       5.247   1.384  -0.257  0.00  0.00    +0.000 A 
ATOM     17  C   UNL     1       6.647   1.385  -0.314  0.00  0.00    +0.000 A 
ATOM     18  C   UNL     1       7.325   0.616  -1.274  0.00  0.00    +0.000 A 
ATOM     19  C   UNL     1       6.569  -0.142  -2.176  0.00  0.00    +0.000 A 
ATOM     20  C   UNL     1       5.171  -0.143  -2.119  0.00  0.00    +0.000 A 
BRANCH  15  21
ATOM     21  C   UNL     1       2.989   0.588  -1.079  0.00  0.00    +0.000 C 
BRANCH  21  22
ATOM     22  C   UNL     1       2.336   1.683  -1.929  0.00  0.00    +0.000 C 
BRANCH  22  23
ATOM     23  N   UNL     1       0.876   1.609  -1.848  0.00  0.00    +0.000 NA
ATOM     24  H   UNL     1       0.469   2.353  -2.415  0.00  0.00    +0.000 HD
ATOM     25  H   UNL     1       0.574   1.784  -0.890  0.00  0.00    +0.000 HD
ENDBRANCH  22  23
ENDBRANCH  21  22
ENDBRANCH  15  21
ENDBRANCH  14  18
ENDBRANCH   1  14
TORSDOF 7
