REMARK  Name = 
REMARK  3 active torsions:
REMARK  status: ('A' for Active; 'I' for Inactive)
REMARK    1  A    between atoms: C_2  and  C_4
REMARK    2  A    between atoms: N_8  and  C_9
REMARK    3  A    between atoms: C_9  and  C_10
REMARK                            x       y       z     vdW  Elec       q    Type
REMARK                         _______ _______ _______ _____ _____    ______ ____
ROOT
ATOM      1  C   UNL     1       3.416  -2.649   1.925  0.00  0.00    +0.000 A 
ATOM      2  C   UNL     1       2.707  -3.403   0.994  0.00  0.00    +0.000 A 
ATOM      3  C   UNL     1       3.393  -4.008  -0.063  0.00  0.00    +0.000 A 
ATOM      4  C   UNL     1       4.767  -3.842  -0.179  0.00  0.00    +0.000 A 
ATOM      5  N   UNL     1       5.522  -4.333  -1.243  0.00  0.00    +0.000 N 
ATOM      6  N   UNL     1       5.463  -3.105   0.716  0.00  0.00    +0.000 NA
ATOM      7  C   UNL     1       4.782  -2.523   1.738  0.00  0.00    +0.000 A 
ATOM      8  H   UNL     1       6.495  -4.125  -1.028  0.00  0.00    +0.000 HD
ENDROOT
BRANCH   1  10
ATOM      9  N   UNL     1       1.602  -2.482   3.532  0.00  0.00    +0.000 N 
ATOM     10  C   UNL     1       2.781  -1.964   3.070  0.00  0.00    +0.000 C 
ATOM     11  O   UNL     1       3.298  -0.993   3.600  0.00  0.00    +0.000 OA
ATOM     12  H   UNL     1       1.232  -2.066   4.377  0.00  0.00    +0.000 HD
ATOM     13  H   UNL     1       1.281  -3.408   3.290  0.00  0.00    +0.000 HD
ENDBRANCH   1  10
BRANCH   5  14
ATOM     14  C   UNL     1       5.255  -5.562  -2.003  0.00  0.00    +0.000 C 
ATOM     15  C   UNL     1       5.338  -5.397  -3.519  0.00  0.00    +0.000 C 
ATOM     16  C   UNL     1       4.036  -5.753  -2.889  0.00  0.00    +0.000 C 
BRANCH  14  17
ATOM     17  C   UNL     1       5.864  -6.827  -1.396  0.00  0.00    +0.000 A 
ATOM     18  C   UNL     1       5.147  -7.606  -0.468  0.00  0.00    +0.000 A 
ATOM     19  C   UNL     1       5.657  -8.811   0.023  0.00  0.00    +0.000 A 
ATOM     20  C   UNL     1       6.904  -9.249  -0.403  0.00  0.00    +0.000 A 
ATOM     21  F   UNL     1       7.381 -10.420   0.039  0.00  0.00    +0.000 F 
ATOM     22  C   UNL     1       7.658  -8.492  -1.288  0.00  0.00    +0.000 A 
ATOM     23  C   UNL     1       7.144  -7.285  -1.770  0.00  0.00    +0.000 A 
ENDBRANCH  14  17
ENDBRANCH   5  14
TORSDOF 3
