REMARK  Name = 
REMARK  7 active torsions:
REMARK  status: ('A' for Active; 'I' for Inactive)
REMARK    1  A    between atoms: C_1  and  C_2
REMARK    2  A    between atoms: C_7  and  C_8
REMARK    3  A    between atoms: N_10  and  C_11
REMARK    4  A    between atoms: C_11  and  C_12
REMARK    5  A    between atoms: C_15  and  C_16
REMARK    6  A    between atoms: C_16  and  N_17
REMARK    7  A    between atoms: C_18  and  C_20
REMARK                            x       y       z     vdW  Elec       q    Type
REMARK                         _______ _______ _______ _____ _____    ______ ____
ROOT
ATOM      1  C   UNL     1       8.169   4.518   0.032  0.00  0.00    +0.000 A 
ATOM      2  C   UNL     1       9.067   5.594   0.041  0.00  0.00    +0.000 A 
ATOM      3  C   UNL     1       8.602   6.917   0.050  0.00  0.00    +0.000 A 
ATOM      4  C   UNL     1       7.227   7.190   0.071  0.00  0.00    +0.000 A 
ATOM      5  C   UNL     1       6.331   6.113   0.054  0.00  0.00    +0.000 A 
ATOM      6  C   UNL     1       6.795   4.794   0.048  0.00  0.00    +0.000 A 
ENDROOT
BRANCH   1   7
ATOM      7  C   UNL     1       8.664   3.091   0.020  0.00  0.00    +0.000 C 
BRANCH   7  10
ATOM      8  C   UNL     1       9.298   1.283   1.560  0.00  0.00    +0.000 C 
ATOM      9  O   UNL     1       9.552   0.524   0.628  0.00  0.00    +0.000 OA
ATOM     10  N   UNL     1       8.853   2.566   1.350  0.00  0.00    +0.000 N 
ATOM     11  H   UNL     1       8.636   3.174   2.134  0.00  0.00    +0.000 HD
BRANCH   8  18
ATOM     12  C   UNL     1       8.932   2.616   8.261  0.00  0.00    +0.000 C 
ATOM     13  C   UNL     1       9.069   2.145   6.841  0.00  0.00    +0.000 A 
ATOM     14  N   UNL     1       9.483   0.943   6.562  0.00  0.00    +0.000 NA
ATOM     15  C   UNL     1       9.545   0.699   5.231  0.00  0.00    +0.000 A 
ATOM     16  N   UNL     1       9.953  -0.488   4.701  0.00  0.00    +0.000 N 
ATOM     17  C   UNL     1       9.905  -0.404   3.331  0.00  0.00    +0.000 A 
ATOM     18  C   UNL     1       9.456   0.862   2.959  0.00  0.00    +0.000 A 
ATOM     19  C   UNL     1       9.229   1.548   4.191  0.00  0.00    +0.000 A 
ATOM     20  C   UNL     1       8.768   2.868   4.541  0.00  0.00    +0.000 A 
ATOM     21  O   UNL     1       8.447   3.726   3.727  0.00  0.00    +0.000 OA
ATOM     22  N   UNL     1       8.714   3.091   5.898  0.00  0.00    +0.000 N 
ATOM     23  H   UNL     1      10.244  -1.291   5.244  0.00  0.00    +0.000 HD
ATOM     24  H   UNL     1       8.399   4.007   6.176  0.00  0.00    +0.000 HD
ENDBRANCH   8  18
ENDBRANCH   7  10
ENDBRANCH   1   7
BRANCH   4  25
ATOM     25  C   UNL     1       6.705   8.604   0.091  0.00  0.00    +0.000 C 
BRANCH  25  26
ATOM     26  N   UNL     1       6.479   9.112  -1.239  0.00  0.00    +0.000 N 
ATOM     27  C   UNL     1       6.012  10.387  -1.438  0.00  0.00    +0.000 C 
ATOM     28  O   UNL     1       5.794  11.154  -0.503  0.00  0.00    +0.000 OA
ATOM     29  H   UNL     1       6.416   8.433  -1.992  0.00  0.00    +0.000 HD
BRANCH  27  30
ATOM     30  C   UNL     1       5.850  10.819  -2.833  0.00  0.00    +0.000 A 
ATOM     31  C   UNL     1       5.894  12.172  -3.144  0.00  0.00    +0.000 A 
ATOM     32  S   UNL     1       5.753  12.495  -4.812  0.00  0.00    +0.000 S 
ATOM     33  C   UNL     1       5.570  10.842  -5.172  0.00  0.00    +0.000 A 
ATOM     34  N   UNL     1       5.379  10.422  -6.452  0.00  0.00    +0.000 NA
ATOM     35  C   UNL     1       5.219   9.146  -6.575  0.00  0.00    +0.000 A 
ATOM     36  N   UNL     1       5.238   8.253  -5.535  0.00  0.00    +0.000 N 
ATOM     37  C   UNL     1       5.461   8.628  -4.232  0.00  0.00    +0.000 A 
ATOM     38  O   UNL     1       5.519   7.799  -3.330  0.00  0.00    +0.000 OA
ATOM     39  C   UNL     1       5.633  10.054  -4.037  0.00  0.00    +0.000 A 
ATOM     40  H   UNL     1       5.115   7.265  -5.699  0.00  0.00    +0.000 HD
ENDBRANCH  27  30
ENDBRANCH  25  26
ENDBRANCH   4  25
TORSDOF 6
