REMARK  Name = 
REMARK  8 active torsions:
REMARK  status: ('A' for Active; 'I' for Inactive)
REMARK    1  A    between atoms: C_1  and  O_2
REMARK    2  A    between atoms: O_2  and  C_3
REMARK    3  A    between atoms: C_7  and  C_8
REMARK    4  A    between atoms: C_8  and  O_9
REMARK    5  A    between atoms: O_9  and  C_10
REMARK    6  A    between atoms: C_13  and  C_14
REMARK    7  A    between atoms: C_14  and  N_15
REMARK    8  A    between atoms: C_16  and  C_18
REMARK                            x       y       z     vdW  Elec       q    Type
REMARK                         _______ _______ _______ _____ _____    ______ ____
ROOT
ATOM      1  C   UNL     1       7.763   4.831  -0.195  0.00  0.00    +0.000 A 
ATOM      2  C   UNL     1       7.802   5.115  -1.555  0.00  0.00    +0.000 A 
ATOM      3  C   UNL     1       8.895   5.799  -2.083  0.00  0.00    +0.000 A 
ATOM      4  C   UNL     1       9.906   6.215  -1.220  0.00  0.00    +0.000 A 
ATOM      5  N   UNL     1       9.875   5.971   0.114  0.00  0.00    +0.000 NA
ATOM      6  C   UNL     1       8.807   5.295   0.593  0.00  0.00    +0.000 A 
ENDROOT
BRANCH   1   7
ATOM      7  O   UNL     1       6.684   4.120   0.242  0.00  0.00    +0.000 OA
BRANCH   7   8
ATOM      8  C   UNL     1       6.922   3.353   1.427  0.00  0.00    +0.000 C 
BRANCH   8  13
ATOM      9  C   UNL     1       4.797   0.810   3.010  0.00  0.00    +0.000 A 
ATOM     10  C   UNL     1       4.141   0.184   1.965  0.00  0.00    +0.000 A 
ATOM     11  C   UNL     1       4.398   0.618   0.669  0.00  0.00    +0.000 A 
ATOM     12  C   UNL     1       5.297   1.659   0.468  0.00  0.00    +0.000 A 
ATOM     13  C   UNL     1       5.901   2.251   1.576  0.00  0.00    +0.000 A 
ATOM     14  N   UNL     1       5.671   1.823   2.842  0.00  0.00    +0.000 NA
BRANCH   9  16
ATOM     15  C   UNL     1       5.280   1.020   5.282  0.00  0.00    +0.000 C 
ATOM     16  O   UNL     1       4.527   0.344   4.279  0.00  0.00    +0.000 OA
ENDBRANCH   9  16
ENDBRANCH   8  13
ENDBRANCH   7   8
ENDBRANCH   1   7
BRANCH   4  17
ATOM     17  C   UNL     1      11.120   6.935  -1.749  0.00  0.00    +0.000 C 
BRANCH  17  18
ATOM     18  N   UNL     1      12.192   6.021  -2.070  0.00  0.00    +0.000 N 
ATOM     19  C   UNL     1      12.450   5.615  -3.351  0.00  0.00    +0.000 C 
ATOM     20  O   UNL     1      11.779   6.003  -4.304  0.00  0.00    +0.000 OA
ATOM     21  H   UNL     1      12.586   5.510  -1.285  0.00  0.00    +0.000 HD
BRANCH  19  22
ATOM     22  C   UNL     1      13.624   4.754  -3.541  0.00  0.00    +0.000 A 
ATOM     23  C   UNL     1      14.239   4.704  -4.785  0.00  0.00    +0.000 A 
ATOM     24  S   UNL     1      15.620   3.706  -4.828  0.00  0.00    +0.000 S 
ATOM     25  C   UNL     1      15.418   3.265  -3.197  0.00  0.00    +0.000 A 
ATOM     26  N   UNL     1      16.274   2.392  -2.600  0.00  0.00    +0.000 NA
ATOM     27  C   UNL     1      15.984   2.118  -1.372  0.00  0.00    +0.000 A 
ATOM     28  N   UNL     1      14.921   2.643  -0.685  0.00  0.00    +0.000 N 
ATOM     29  C   UNL     1      14.061   3.566  -1.232  0.00  0.00    +0.000 A 
ATOM     30  O   UNL     1      13.167   4.076  -0.566  0.00  0.00    +0.000 OA
ATOM     31  C   UNL     1      14.324   3.887  -2.621  0.00  0.00    +0.000 A 
ATOM     32  H   UNL     1      14.757   2.400   0.281  0.00  0.00    +0.000 HD
ENDBRANCH  19  22
ENDBRANCH  17  18
ENDBRANCH   4  17
TORSDOF 7
