REMARK  Name = 
REMARK  7 active torsions:
REMARK  status: ('A' for Active; 'I' for Inactive)
REMARK    1  A    between atoms: C_1  and  O_2
REMARK    2  A    between atoms: O_2  and  C_3
REMARK    3  A    between atoms: C_8  and  C_9
REMARK    4  A    between atoms: C_9  and  C_10
REMARK    5  A    between atoms: C_13  and  C_14
REMARK    6  A    between atoms: C_14  and  N_15
REMARK    7  A    between atoms: C_16  and  C_18
REMARK                            x       y       z     vdW  Elec       q    Type
REMARK                         _______ _______ _______ _____ _____    ______ ____
ROOT
ATOM      1  C   UNL     1       0.550   3.951   1.584  0.00  0.00    +0.000 C 
ENDROOT
BRANCH   1   5
ATOM      2  C   UNL     1       3.513   0.924   2.101  0.00  0.00    +0.000 A 
ATOM      3  C   UNL     1       2.215   0.663   2.534  0.00  0.00    +0.000 A 
ATOM      4  C   UNL     1       1.242   1.657   2.409  0.00  0.00    +0.000 A 
ATOM      5  C   UNL     1       1.580   2.894   1.857  0.00  0.00    +0.000 A 
ATOM      6  C   UNL     1       2.917   3.096   1.539  0.00  0.00    +0.000 A 
ATOM      7  N   UNL     1       3.880   2.147   1.637  0.00  0.00    +0.000 NA
BRANCH   2   8
ATOM      8  C   UNL     1       4.532  -0.195   2.012  0.00  0.00    +0.000 C 
BRANCH   8  14
ATOM      9  C   UNL     1       5.056  -1.263   4.277  0.00  0.00    +0.000 A 
ATOM     10  C   UNL     1       5.910  -1.394   5.380  0.00  0.00    +0.000 A 
ATOM     11  C   UNL     1       7.103  -0.671   5.448  0.00  0.00    +0.000 A 
ATOM     12  C   UNL     1       7.460   0.183   4.412  0.00  0.00    +0.000 A 
ATOM     13  C   UNL     1       6.615   0.327   3.313  0.00  0.00    +0.000 A 
ATOM     14  C   UNL     1       5.407  -0.389   3.231  0.00  0.00    +0.000 A 
BRANCH   9  16
ATOM     15  C   UNL     1       3.366  -2.612   5.272  0.00  0.00    +0.000 C 
ATOM     16  O   UNL     1       3.894  -1.974   4.114  0.00  0.00    +0.000 OA
ENDBRANCH   9  16
ENDBRANCH   8  14
ENDBRANCH   2   8
ENDBRANCH   1   5
BRANCH   1  17
ATOM     17  N   UNL     1       0.348   4.834   2.703  0.00  0.00    +0.000 N 
ATOM     18  C   UNL     1      -0.621   5.807   2.660  0.00  0.00    +0.000 C 
ATOM     19  O   UNL     1      -1.400   5.907   1.714  0.00  0.00    +0.000 OA
ATOM     20  H   UNL     1       1.107   4.916   3.373  0.00  0.00    +0.000 HD
BRANCH  18  21
ATOM     21  C   UNL     1      -0.720   6.690   3.829  0.00  0.00    +0.000 A 
ATOM     22  C   UNL     1      -1.911   7.353   4.095  0.00  0.00    +0.000 A 
ATOM     23  S   UNL     1      -1.870   8.290   5.519  0.00  0.00    +0.000 S 
ATOM     24  C   UNL     1      -0.241   7.892   5.801  0.00  0.00    +0.000 A 
ATOM     25  N   UNL     1       0.428   8.395   6.874  0.00  0.00    +0.000 NA
ATOM     26  C   UNL     1       1.667   8.037   6.945  0.00  0.00    +0.000 A 
ATOM     27  N   UNL     1       2.297   7.219   6.044  0.00  0.00    +0.000 N 
ATOM     28  C   UNL     1       1.653   6.662   4.965  0.00  0.00    +0.000 A 
ATOM     29  O   UNL     1       2.232   5.898   4.201  0.00  0.00    +0.000 OA
ATOM     30  C   UNL     1       0.260   7.041   4.832  0.00  0.00    +0.000 A 
ATOM     31  H   UNL     1       3.269   6.971   6.161  0.00  0.00    +0.000 HD
ENDBRANCH  18  21
ENDBRANCH   1  17
TORSDOF 6
