REMARK  Name = 
REMARK  9 active torsions:
REMARK  status: ('A' for Active; 'I' for Inactive)
REMARK    1  A    between atoms: C_1  and  O_2
REMARK    2  A    between atoms: O_2  and  C_3
REMARK    3  A    between atoms: C_10  and  C_11
REMARK    4  A    between atoms: N_13  and  C_14
REMARK    5  A    between atoms: C_14  and  C_15
REMARK    6  A    between atoms: C_18  and  C_19
REMARK    7  A    between atoms: C_19  and  S_20
REMARK    8  A    between atoms: S_20  and  C_21
REMARK    9  A    between atoms: C_21  and  C_22
REMARK                            x       y       z     vdW  Elec       q    Type
REMARK                         _______ _______ _______ _____ _____    ______ ____
ROOT
ATOM      1  C   UNL     1       2.982   3.129   1.633  0.00  0.00    +0.000 C 
ENDROOT
BRANCH   1   2
ATOM      2  C   UNL     1       1.736   3.444   0.851  0.00  0.00    +0.000 A 
ATOM      3  C   UNL     1       0.784   2.446   0.605  0.00  0.00    +0.000 A 
ATOM      4  C   UNL     1      -0.343   2.712  -0.177  0.00  0.00    +0.000 A 
ATOM      5  C   UNL     1      -0.548   3.985  -0.728  0.00  0.00    +0.000 A 
ATOM      6  C   UNL     1       0.399   4.986  -0.467  0.00  0.00    +0.000 A 
ATOM      7  C   UNL     1       1.529   4.720   0.312  0.00  0.00    +0.000 A 
BRANCH   5   8
ATOM      8  C   UNL     1      -1.715   4.260  -1.645  0.00  0.00    +0.000 C 
BRANCH   8   9
ATOM      9  S   UNL     1      -3.354   3.946  -0.923  0.00  0.00    +0.000 S 
BRANCH   9  10
ATOM     10  C   UNL     1      -3.378   5.199   0.404  0.00  0.00    +0.000 C 
BRANCH  10  11
ATOM     11  C   UNL     1      -3.327   6.629  -0.083  0.00  0.00    +0.000 A 
ATOM     12  N   UNL     1      -4.491   7.238  -0.392  0.00  0.00    +0.000 NA
ATOM     13  C   UNL     1      -4.410   8.511  -0.821  0.00  0.00    +0.000 A 
ATOM     14  C   UNL     1      -3.227   9.194  -0.956  0.00  0.00    +0.000 A 
ATOM     15  C   UNL     1      -2.097   8.492  -0.620  0.00  0.00    +0.000 A 
ATOM     16  N   UNL     1      -2.116   7.217  -0.184  0.00  0.00    +0.000 NA
ENDBRANCH  10  11
ENDBRANCH   9  10
ENDBRANCH   8   9
ENDBRANCH   5   8
ENDBRANCH   1   2
BRANCH   1  19
ATOM     17  C   UNL     1       5.214   2.175   1.296  0.00  0.00    +0.000 C 
ATOM     18  O   UNL     1       5.438   2.262   2.506  0.00  0.00    +0.000 OA
ATOM     19  N   UNL     1       4.015   2.583   0.780  0.00  0.00    +0.000 N 
ATOM     20  H   UNL     1       3.820   2.487  -0.208  0.00  0.00    +0.000 HD
BRANCH  17  28
ATOM     21  C   UNL     1       5.302   1.615  -2.110  0.00  0.00    +0.000 A 
ATOM     22  N   UNL     1       5.605   1.283  -3.383  0.00  0.00    +0.000 NA
ATOM     23  C   UNL     1       6.811   0.762  -3.629  0.00  0.00    +0.000 A 
ATOM     24  N   UNL     1       7.775   0.527  -2.744  0.00  0.00    +0.000 NA
ATOM     25  C   UNL     1       7.428   0.860  -1.489  0.00  0.00    +0.000 A 
ATOM     26  S   UNL     1       8.543   0.627  -0.231  0.00  0.00    +0.000 S 
ATOM     27  C   UNL     1       7.446   1.232   0.915  0.00  0.00    +0.000 A 
ATOM     28  C   UNL     1       6.224   1.626   0.378  0.00  0.00    +0.000 A 
ATOM     29  C   UNL     1       6.218   1.403  -1.065  0.00  0.00    +0.000 A 
BRANCH  21  31
ATOM     30  C   UNL     1       3.479   2.764  -3.007  0.00  0.00    +0.000 C 
ATOM     31  O   UNL     1       4.055   2.148  -1.856  0.00  0.00    +0.000 OA
ENDBRANCH  21  31
ENDBRANCH  17  28
ENDBRANCH   1  19
TORSDOF 8
