REMARK  Name = 
REMARK  10 active torsions:
REMARK  status: ('A' for Active; 'I' for Inactive)
REMARK    1  A    between atoms: N_1  and  C_2
REMARK    2  A    between atoms: C_2  and  C_3
REMARK    3  A    between atoms: C_3  and  N_4
REMARK    4  A    between atoms: N_4  and  C_5
REMARK    5  A    between atoms: N_4  and  C_12
REMARK    6  A    between atoms: C_5  and  C_6
REMARK    7  A    between atoms: C_12  and  C_13
REMARK    8  A    between atoms: C_16  and  C_17
REMARK    9  A    between atoms: C_17  and  N_18
REMARK   10  A    between atoms: C_19  and  C_21
REMARK                            x       y       z     vdW  Elec       q    Type
REMARK                         _______ _______ _______ _____ _____    ______ ____
ROOT
ATOM      1  C   UNL     1       6.500   0.629  -2.796  0.00  0.00    +0.000 C 
ATOM      2  C   UNL     1       6.902  -0.617  -3.594  0.00  0.00    +0.000 C 
ATOM      3  C   UNL     1       8.380  -0.981  -3.442  0.00  0.00    +0.000 C 
ATOM      4  C   UNL     1       8.821  -1.154  -1.979  0.00  0.00    +0.000 C 
ATOM      5  C   UNL     1       8.426   0.084  -1.156  0.00  0.00    +0.000 C 
ATOM      6  C   UNL     1       6.967   0.508  -1.330  0.00  0.00    +0.000 C 
ENDROOT
BRANCH   1   7
ATOM      7  C   UNL     1       6.980   1.959  -3.440  0.00  0.00    +0.000 C 
BRANCH   7   8
ATOM      8  N   UNL     1       6.498   2.270  -4.811  0.00  0.00    +0.000 NA
BRANCH   8   9
ATOM      9  C   UNL     1       5.021   2.308  -4.901  0.00  0.00    +0.000 C 
BRANCH   9  10
ATOM     10  C   UNL     1       4.454   2.486  -6.334  0.00  0.00    +0.000 C 
BRANCH  10  11
ATOM     11  N   UNL     1       2.997   2.650  -6.331  0.00  0.00    +0.000 NA
ATOM     12  H   UNL     1       2.678   2.790  -7.290  0.00  0.00    +0.000 HD
ATOM     13  H   UNL     1       2.752   3.502  -5.826  0.00  0.00    +0.000 HD
ENDBRANCH  10  11
ENDBRANCH   9  10
ENDBRANCH   8   9
BRANCH   8  14
ATOM     14  C   UNL     1       7.142   3.514  -5.321  0.00  0.00    +0.000 C 
BRANCH  14  15
ATOM     15  C   UNL     1       6.787   4.790  -4.574  0.00  0.00    +0.000 A 
ATOM     16  C   UNL     1       7.564   5.204  -3.483  0.00  0.00    +0.000 A 
ATOM     17  C   UNL     1       7.142   6.255  -2.668  0.00  0.00    +0.000 A 
ATOM     18  C   UNL     1       5.947   6.916  -2.944  0.00  0.00    +0.000 A 
ATOM     19  C   UNL     1       5.199   6.560  -4.062  0.00  0.00    +0.000 A 
ATOM     20  C   UNL     1       5.628   5.519  -4.884  0.00  0.00    +0.000 A 
ENDBRANCH  14  15
ENDBRANCH   8  14
ENDBRANCH   7   8
ENDBRANCH   1   7
BRANCH   4  21
ATOM     21  C   UNL     1       8.292  -2.450  -1.335  0.00  0.00    +0.000 C 
BRANCH  21  22
ATOM     22  N   UNL     1       8.723  -3.641  -2.037  0.00  0.00    +0.000 N 
ATOM     23  C   UNL     1       9.901  -4.293  -1.790  0.00  0.00    +0.000 C 
ATOM     24  O   UNL     1      10.746  -3.869  -1.005  0.00  0.00    +0.000 OA
ATOM     25  H   UNL     1       8.045  -4.062  -2.665  0.00  0.00    +0.000 HD
BRANCH  23  26
ATOM     26  C   UNL     1      10.114  -5.543  -2.539  0.00  0.00    +0.000 A 
ATOM     27  C   UNL     1      11.397  -6.013  -2.763  0.00  0.00    +0.000 A 
ATOM     28  S   UNL     1      11.442  -7.494  -3.616  0.00  0.00    +0.000 S 
ATOM     29  C   UNL     1       9.744  -7.577  -3.668  0.00  0.00    +0.000 A 
ATOM     30  N   UNL     1       9.110  -8.649  -4.219  0.00  0.00    +0.000 NA
ATOM     31  C   UNL     1       7.824  -8.607  -4.147  0.00  0.00    +0.000 A 
ATOM     32  N   UNL     1       7.108  -7.579  -3.593  0.00  0.00    +0.000 N 
ATOM     33  C   UNL     1       7.699  -6.437  -3.116  0.00  0.00    +0.000 A 
ATOM     34  O   UNL     1       7.021  -5.467  -2.785  0.00  0.00    +0.000 OA
ATOM     35  C   UNL     1       9.151  -6.467  -3.097  0.00  0.00    +0.000 A 
ATOM     36  H   UNL     1       6.099  -7.583  -3.611  0.00  0.00    +0.000 HD
ENDBRANCH  23  26
ENDBRANCH  21  22
ENDBRANCH   4  21
TORSDOF 10
