REMARK  Name = 
REMARK  8 active torsions:
REMARK  status: ('A' for Active; 'I' for Inactive)
REMARK    1  A    between atoms: C_1  and  C_2
REMARK    2  A    between atoms: C_2  and  N_3
REMARK    3  A    between atoms: C_2  and  C_25
REMARK    4  A    between atoms: N_3  and  C_4
REMARK    5  A    between atoms: C_4  and  C_5
REMARK    6  A    between atoms: C_8  and  C_9
REMARK    7  A    between atoms: C_9  and  N_10
REMARK    8  A    between atoms: C_11  and  C_13
REMARK                            x       y       z     vdW  Elec       q    Type
REMARK                         _______ _______ _______ _____ _____    ______ ____
ROOT
ATOM      1  C   UNL     1      -1.005   0.439   1.439  0.00  0.00    +0.000 A 
ATOM      2  C   UNL     1      -1.727  -0.386   2.296  0.00  0.00    +0.000 A 
ATOM      3  C   UNL     1      -3.120  -0.302   2.300  0.00  0.00    +0.000 A 
ATOM      4  C   UNL     1      -3.764   0.594   1.443  0.00  0.00    +0.000 A 
ATOM      5  C   UNL     1      -2.961   1.379   0.627  0.00  0.00    +0.000 A 
ATOM      6  N   UNL     1      -1.613   1.313   0.596  0.00  0.00    +0.000 NA
ENDROOT
BRANCH   1   7
ATOM      7  C   UNL     1       0.511   0.366   1.389  0.00  0.00    +0.000 C 
BRANCH   7   8
ATOM      8  N   UNL     1       1.142   1.652   1.706  0.00  0.00    +0.000 NA
ATOM      9  H   UNL     1       0.832   1.953   2.630  0.00  0.00    +0.000 HD
BRANCH   8  11
ATOM     10  C   UNL     1       3.183   1.168   0.337  0.00  0.00    +0.000 C 
ATOM     11  C   UNL     1       2.613   1.610   1.692  0.00  0.00    +0.000 C 
BRANCH  11  12
ATOM     12  C   UNL     1       3.198   2.975   2.062  0.00  0.00    +0.000 A 
ATOM     13  C   UNL     1       2.895   4.108   1.304  0.00  0.00    +0.000 A 
ATOM     14  C   UNL     1       3.473   5.328   1.644  0.00  0.00    +0.000 A 
ATOM     15  C   UNL     1       4.329   5.392   2.734  0.00  0.00    +0.000 A 
ATOM     16  C   UNL     1       4.570   4.228   3.445  0.00  0.00    +0.000 A 
ATOM     17  N   UNL     1       4.028   3.027   3.137  0.00  0.00    +0.000 NA
ENDBRANCH  11  12
ENDBRANCH   8  11
ENDBRANCH   7   8
ENDBRANCH   1   7
BRANCH   4  18
ATOM     18  C   UNL     1      -5.253   0.758   1.428  0.00  0.00    +0.000 C 
BRANCH  18  19
ATOM     19  N   UNL     1      -5.672   1.772   2.364  0.00  0.00    +0.000 N 
ATOM     20  C   UNL     1      -7.001   2.048   2.561  0.00  0.00    +0.000 C 
ATOM     21  O   UNL     1      -7.887   1.414   1.994  0.00  0.00    +0.000 OA
ATOM     22  H   UNL     1      -4.978   2.456   2.650  0.00  0.00    +0.000 HD
BRANCH  20  23
ATOM     23  C   UNL     1      -7.313   3.100   3.536  0.00  0.00    +0.000 A 
ATOM     24  C   UNL     1      -8.548   3.105   4.171  0.00  0.00    +0.000 A 
ATOM     25  S   UNL     1      -8.733   4.372   5.297  0.00  0.00    +0.000 S 
ATOM     26  C   UNL     1      -7.188   4.990   4.940  0.00  0.00    +0.000 A 
ATOM     27  N   UNL     1      -6.725   6.115   5.546  0.00  0.00    +0.000 NA
ATOM     28  C   UNL     1      -5.551   6.489   5.158  0.00  0.00    +0.000 A 
ATOM     29  N   UNL     1      -4.793   5.833   4.220  0.00  0.00    +0.000 N 
ATOM     30  C   UNL     1      -5.209   4.674   3.605  0.00  0.00    +0.000 A 
ATOM     31  O   UNL     1      -4.489   4.083   2.807  0.00  0.00    +0.000 OA
ATOM     32  C   UNL     1      -6.532   4.225   3.992  0.00  0.00    +0.000 A 
ATOM     33  H   UNL     1      -3.879   6.168   3.969  0.00  0.00    +0.000 HD
ENDBRANCH  20  23
ENDBRANCH  18  19
ENDBRANCH   4  18
TORSDOF 7
