REMARK  Name = 
REMARK  9 active torsions:
REMARK  status: ('A' for Active; 'I' for Inactive)
REMARK    1  A    between atoms: C_1  and  C_2
REMARK    2  A    between atoms: C_2  and  C_3
REMARK    3  A    between atoms: C_5  and  O_6
REMARK    4  A    between atoms: O_6  and  C_7
REMARK    5  A    between atoms: C_11  and  C_12
REMARK    6  A    between atoms: C_12  and  C_13
REMARK    7  A    between atoms: C_13  and  N_14
REMARK    8  A    between atoms: N_14  and  C_15
REMARK    9  A    between atoms: C_18  and  C_19
REMARK                            x       y       z     vdW  Elec       q    Type
REMARK                         _______ _______ _______ _____ _____    ______ ____
ROOT
ATOM      1  C   UNL     1      -7.649   0.787   1.027  0.00  0.00    +0.000 C 
ENDROOT
BRANCH   1   6
ATOM      2  C   UNL     1      -3.805   0.714   0.924  0.00  0.00    +0.000 A 
ATOM      3  C   UNL     1      -3.494   0.680   2.278  0.00  0.00    +0.000 A 
ATOM      4  C   UNL     1      -4.522   0.636   3.223  0.00  0.00    +0.000 A 
ATOM      5  C   UNL     1      -5.862   0.648   2.816  0.00  0.00    +0.000 A 
ATOM      6  C   UNL     1      -6.192   0.718   1.457  0.00  0.00    +0.000 A 
ATOM      7  C   UNL     1      -5.140   0.746   0.527  0.00  0.00    +0.000 A 
BRANCH   2   8
ATOM      8  O   UNL     1      -2.759   0.734   0.032  0.00  0.00    +0.000 OA
BRANCH   8  13
ATOM      9  C   UNL     1      -3.111  -1.356  -3.945  0.00  0.00    +0.000 C 
ATOM     10  C   UNL     1      -2.345  -1.384  -2.622  0.00  0.00    +0.000 C 
ATOM     11  C   UNL     1      -1.323  -2.514  -2.583  0.00  0.00    +0.000 C 
ATOM     12  C   UNL     1      -3.264  -1.328  -1.376  0.00  0.00    +0.000 C 
ATOM     13  C   UNL     1      -3.009   0.199  -1.291  0.00  0.00    +0.000 C 
ATOM     14  C   UNL     1      -1.763  -0.014  -2.176  0.00  0.00    +0.000 C 
ENDBRANCH   8  13
ENDBRANCH   2   8
ENDBRANCH   1   6
BRANCH   1  15
ATOM     15  C   UNL     1      -7.846   0.865  -0.495  0.00  0.00    +0.000 C 
BRANCH  15  16
ATOM     16  N   UNL     1      -9.232   1.074  -0.891  0.00  0.00    +0.000 N 
ATOM     17  H   UNL     1      -9.931   0.613  -0.318  0.00  0.00    +0.000 HD
BRANCH  16  18
ATOM     18  C   UNL     1      -9.542   1.086  -2.257  0.00  0.00    +0.000 A 
ATOM     19  C   UNL     1      -8.580   1.075  -3.278  0.00  0.00    +0.000 A 
ATOM     20  C   UNL     1      -8.939   1.200  -4.624  0.00  0.00    +0.000 A 
ATOM     21  C   UNL     1     -10.279   1.365  -4.982  0.00  0.00    +0.000 A 
ATOM     22  C   UNL     1     -11.248   1.405  -3.980  0.00  0.00    +0.000 A 
ATOM     23  C   UNL     1     -10.879   1.269  -2.634  0.00  0.00    +0.000 A 
BRANCH  21  24
ATOM     24  C   UNL     1     -10.605   1.545  -6.422  0.00  0.00    +0.000 C 
ATOM     25  N   UNL     1     -11.877   1.248  -6.820  0.00  0.00    +0.000 N 
ATOM     26  O   UNL     1      -9.765   1.917  -7.232  0.00  0.00    +0.000 OA
ATOM     27  H   UNL     1     -12.515   0.716  -6.248  0.00  0.00    +0.000 HD
ATOM     28  H   UNL     1     -12.051   1.280  -7.817  0.00  0.00    +0.000 HD
ENDBRANCH  21  24
ENDBRANCH  16  18
ENDBRANCH  15  16
ENDBRANCH   1  15
TORSDOF 7
