REMARK  Name = 
REMARK  5 active torsions:
REMARK  status: ('A' for Active; 'I' for Inactive)
REMARK    1  A    between atoms: N_1  and  C_2
REMARK    2  A    between atoms: C_2  and  C_3
REMARK    3  A    between atoms: C_3  and  C_4
REMARK    4  A    between atoms: C_7  and  C_8
REMARK    5  A    between atoms: C_8  and  N_9
REMARK                            x       y       z     vdW  Elec       q    Type
REMARK                         _______ _______ _______ _____ _____    ______ ____
ROOT
ATOM      1  C   UNL     1       4.523   1.414  -0.241  0.00  0.00    +0.000 A 
ATOM      2  C   UNL     1       5.203   2.629  -0.379  0.00  0.00    +0.000 A 
ATOM      3  C   UNL     1       6.598   2.657  -0.364  0.00  0.00    +0.000 A 
ATOM      4  C   UNL     1       7.293   1.460  -0.207  0.00  0.00    +0.000 A 
ATOM      5  N   UNL     1       6.658   0.267  -0.113  0.00  0.00    +0.000 NA
ATOM      6  C   UNL     1       5.305   0.269  -0.147  0.00  0.00    +0.000 A 
ENDROOT
BRANCH   1   7
ATOM      7  C   UNL     1       3.013   1.384  -0.257  0.00  0.00    +0.000 C 
BRANCH   7   8
ATOM      8  C   UNL     1       2.373   0.260   0.573  0.00  0.00    +0.000 C 
BRANCH   8   9
ATOM      9  N   UNL     1       0.915   0.360   0.571  0.00  0.00    +0.000 NA
ATOM     10  H   UNL     1       0.524  -0.411   1.114  0.00  0.00    +0.000 HD
ATOM     11  H   UNL     1       0.562   0.241  -0.379  0.00  0.00    +0.000 HD
ENDBRANCH   8   9
ENDBRANCH   7   8
ENDBRANCH   1   7
BRANCH   4  12
ATOM     12  C   UNL     1       8.798   1.437  -0.129  0.00  0.00    +0.000 C 
BRANCH  12  13
ATOM     13  N   UNL     1       9.402   1.384  -1.445  0.00  0.00    +0.000 N 
ATOM     14  C   UNL     1       9.297   0.331  -2.314  0.00  0.00    +0.000 A 
ATOM     15  N   UNL     1       9.943   0.558  -3.435  0.00  0.00    +0.000 NA
ATOM     16  C   UNL     1      10.508   1.798  -3.278  0.00  0.00    +0.000 A 
ATOM     17  C   UNL     1      11.299   2.535  -4.173  0.00  0.00    +0.000 A 
ATOM     18  C   UNL     1      11.780   3.789  -3.777  0.00  0.00    +0.000 A 
ATOM     19  C   UNL     1      11.490   4.293  -2.509  0.00  0.00    +0.000 A 
ATOM     20  C   UNL     1      10.699   3.577  -1.602  0.00  0.00    +0.000 A 
ATOM     21  C   UNL     1      10.210   2.335  -2.025  0.00  0.00    +0.000 A 
ENDBRANCH  12  13
ENDBRANCH   4  12
TORSDOF 5
