REMARK  Name = 
REMARK  5 active torsions:
REMARK  status: ('A' for Active; 'I' for Inactive)
REMARK    1  A    between atoms: C_2  and  C_5
REMARK    2  A    between atoms: N_3  and  O_4
REMARK    3  A    between atoms: C_8  and  N_9
REMARK    4  A    between atoms: N_9  and  C_10
REMARK    5  A    between atoms: C_10  and  C_11
REMARK                            x       y       z     vdW  Elec       q    Type
REMARK                         _______ _______ _______ _____ _____    ______ ____
ROOT
ATOM      1  C   UNL     1       2.554   1.427  -0.765  0.00  0.00    +0.000 A 
ATOM      2  C   UNL     1       3.912   1.171  -0.741  0.00  0.00    +0.000 A 
ATOM      3  N   UNL     1       4.830   2.106  -1.106  0.00  0.00    +0.000 NA
ATOM      4  C   UNL     1       4.365   3.324  -1.451  0.00  0.00    +0.000 A 
ATOM      5  C   UNL     1       2.980   3.547  -1.496  0.00  0.00    +0.000 A 
ATOM      6  N   UNL     1       2.047   2.627  -1.157  0.00  0.00    +0.000 NA
ENDROOT
BRANCH   1   8
ATOM      7  O   UNL     1       1.913  -0.726   0.029  0.00  0.00    +0.000 OA
ATOM      8  C   UNL     1       1.576   0.390  -0.355  0.00  0.00    +0.000 C 
ATOM      9  N   UNL     1       0.268   0.790  -0.447  0.00  0.00    +0.000 N 
ATOM     10  H   UNL     1      -0.002   1.704  -0.805  0.00  0.00    +0.000 HD
BRANCH   9  11
ATOM     11  O   UNL     1      -0.737  -0.140  -0.124  0.00  0.00    +0.000 OA
ATOM     12  H   UNL     1      -0.217  -0.930   0.133  0.00  0.00    +0.000 HD
ENDBRANCH   9  11
ENDBRANCH   1   8
BRANCH   4  13
ATOM     13  N   UNL     1       5.319   4.271  -1.793  0.00  0.00    +0.000 N 
ATOM     14  H   UNL     1       5.725   4.022  -2.692  0.00  0.00    +0.000 HD
BRANCH  13  15
ATOM     15  C   UNL     1       4.966   5.677  -1.695  0.00  0.00    +0.000 C 
BRANCH  15  16
ATOM     16  C   UNL     1       6.199   6.520  -1.551  0.00  0.00    +0.000 A 
ATOM     17  C   UNL     1       7.115   6.302  -0.516  0.00  0.00    +0.000 A 
ATOM     18  C   UNL     1       8.203   7.155  -0.362  0.00  0.00    +0.000 A 
ATOM     19  C   UNL     1       8.340   8.205  -1.253  0.00  0.00    +0.000 A 
ATOM     20  N   UNL     1       7.480   8.448  -2.266  0.00  0.00    +0.000 NA
ATOM     21  C   UNL     1       6.433   7.603  -2.390  0.00  0.00    +0.000 A 
ENDBRANCH  15  16
ENDBRANCH  13  15
ENDBRANCH   4  13
TORSDOF 5
