REMARK  Name = 
REMARK  5 active torsions:
REMARK  status: ('A' for Active; 'I' for Inactive)
REMARK    1  A    between atoms: C_2  and  C_4
REMARK    2  A    between atoms: C_7  and  O_8
REMARK    3  A    between atoms: O_8  and  C_9
REMARK    4  A    between atoms: C_9  and  C_10
REMARK    5  A    between atoms: C_15  and  C_16
REMARK                            x       y       z     vdW  Elec       q    Type
REMARK                         _______ _______ _______ _____ _____    ______ ____
ROOT
ATOM      1  C   UNL     1       4.827   6.028  -0.464  0.00  0.00    +0.000 C 
ENDROOT
BRANCH   1   2
ATOM      2  C   UNL     1       5.639   7.232  -0.876  0.00  0.00    +0.000 A 
ATOM      3  C   UNL     1       5.096   8.522  -0.820  0.00  0.00    +0.000 A 
ATOM      4  C   UNL     1       5.884   9.619  -1.122  0.00  0.00    +0.000 A 
ATOM      5  F   UNL     1       5.359  10.850  -1.063  0.00  0.00    +0.000 F 
ATOM      6  C   UNL     1       7.226   9.470  -1.441  0.00  0.00    +0.000 A 
ATOM      7  C   UNL     1       7.829   8.202  -1.446  0.00  0.00    +0.000 A 
ATOM      8  C   UNL     1       7.003   7.086  -1.202  0.00  0.00    +0.000 A 
BRANCH   7   9
ATOM      9  C   UNL     1       9.288   8.060  -1.613  0.00  0.00    +0.000 A 
ATOM     10  C   UNL     1      10.169   9.028  -1.118  0.00  0.00    +0.000 A 
ATOM     11  C   UNL     1      11.539   8.850  -1.254  0.00  0.00    +0.000 A 
ATOM     12  C   UNL     1      12.010   7.705  -1.881  0.00  0.00    +0.000 A 
ATOM     13  C   UNL     1      11.079   6.785  -2.340  0.00  0.00    +0.000 A 
ATOM     14  N   UNL     1       9.739   6.933  -2.212  0.00  0.00    +0.000 NA
ENDBRANCH   7   9
ENDBRANCH   1   2
BRANCH   1  15
ATOM     15  O   UNL     1       3.432   6.251  -0.686  0.00  0.00    +0.000 OA
BRANCH  15  19
ATOM     16  C   UNL     1       0.644   3.347   0.408  0.00  0.00    +0.000 A 
ATOM     17  C   UNL     1       2.001   3.086   0.622  0.00  0.00    +0.000 A 
ATOM     18  C   UNL     1       2.964   4.035   0.271  0.00  0.00    +0.000 A 
ATOM     19  C   UNL     1       2.582   5.251  -0.298  0.00  0.00    +0.000 A 
ATOM     20  C   UNL     1       1.224   5.507  -0.519  0.00  0.00    +0.000 A 
ATOM     21  C   UNL     1       0.257   4.557  -0.175  0.00  0.00    +0.000 A 
BRANCH  16  23
ATOM     22  N   UNL     1      -0.123   1.504   1.797  0.00  0.00    +0.000 N 
ATOM     23  C   UNL     1      -0.400   2.350   0.760  0.00  0.00    +0.000 C 
ATOM     24  O   UNL     1      -1.472   2.306   0.173  0.00  0.00    +0.000 OA
ATOM     25  H   UNL     1      -0.877   0.897   2.092  0.00  0.00    +0.000 HD
ATOM     26  H   UNL     1       0.619   1.684   2.457  0.00  0.00    +0.000 HD
ENDBRANCH  16  23
ENDBRANCH  15  19
ENDBRANCH   1  15
TORSDOF 5
