REMARK  Name = 
REMARK  8 active torsions:
REMARK  status: ('A' for Active; 'I' for Inactive)
REMARK    1  A    between atoms: C_1  and  O_2
REMARK    2  A    between atoms: O_2  and  C_3
REMARK    3  A    between atoms: C_8  and  C_9
REMARK    4  A    between atoms: N_11  and  C_12
REMARK    5  A    between atoms: C_12  and  C_13
REMARK    6  A    between atoms: C_16  and  C_17
REMARK    7  A    between atoms: C_17  and  N_18
REMARK    8  A    between atoms: C_19  and  C_21
REMARK                            x       y       z     vdW  Elec       q    Type
REMARK                         _______ _______ _______ _____ _____    ______ ____
ROOT
ATOM      1  C   UNL     1       3.103   0.350  -4.456  0.00  0.00    +0.000 A 
ATOM      2  C   UNL     1       3.191  -1.038  -4.535  0.00  0.00    +0.000 A 
ATOM      3  C   UNL     1       2.278  -1.732  -5.328  0.00  0.00    +0.000 A 
ATOM      4  C   UNL     1       1.281  -1.034  -6.009  0.00  0.00    +0.000 A 
ATOM      5  C   UNL     1       1.266   0.350  -5.870  0.00  0.00    +0.000 A 
ATOM      6  N   UNL     1       2.139   1.051  -5.106  0.00  0.00    +0.000 NA
ENDROOT
BRANCH   1   7
ATOM      7  C   UNL     1       4.085   1.121  -3.602  0.00  0.00    +0.000 C 
BRANCH   7  10
ATOM      8  C   UNL     1       4.519   1.354  -1.182  0.00  0.00    +0.000 C 
ATOM      9  O   UNL     1       5.733   1.254  -1.341  0.00  0.00    +0.000 OA
ATOM     10  N   UNL     1       3.639   1.227  -2.229  0.00  0.00    +0.000 N 
ATOM     11  H   UNL     1       2.659   1.440  -2.067  0.00  0.00    +0.000 HD
BRANCH   8  17
ATOM     12  C   UNL     1       2.586   1.762   0.487  0.00  0.00    +0.000 A 
ATOM     13  C   UNL     1       2.204   2.094   1.798  0.00  0.00    +0.000 A 
ATOM     14  C   UNL     1       3.158   2.270   2.803  0.00  0.00    +0.000 A 
ATOM     15  C   UNL     1       4.508   2.115   2.516  0.00  0.00    +0.000 A 
ATOM     16  C   UNL     1       4.904   1.807   1.215  0.00  0.00    +0.000 A 
ATOM     17  C   UNL     1       3.958   1.640   0.183  0.00  0.00    +0.000 A 
BRANCH  12  19
ATOM     18  C   UNL     1       0.300   1.523  -0.187  0.00  0.00    +0.000 C 
ATOM     19  O   UNL     1       1.682   1.557  -0.526  0.00  0.00    +0.000 OA
ENDBRANCH  12  19
ENDBRANCH   8  17
ENDBRANCH   7  10
ENDBRANCH   1   7
BRANCH   4  20
ATOM     20  C   UNL     1       0.295  -1.738  -6.892  0.00  0.00    +0.000 C 
BRANCH  20  21
ATOM     21  N   UNL     1       0.779  -1.846  -8.244  0.00  0.00    +0.000 N 
ATOM     22  C   UNL     1      -0.016  -2.337  -9.249  0.00  0.00    +0.000 C 
ATOM     23  O   UNL     1      -1.187  -2.652  -9.054  0.00  0.00    +0.000 OA
ATOM     24  H   UNL     1       1.785  -1.820  -8.379  0.00  0.00    +0.000 HD
BRANCH  22  25
ATOM     25  C   UNL     1       0.586  -2.414 -10.588  0.00  0.00    +0.000 A 
ATOM     26  C   UNL     1      -0.234  -2.435 -11.709  0.00  0.00    +0.000 A 
ATOM     27  S   UNL     1       0.623  -2.470 -13.183  0.00  0.00    +0.000 S 
ATOM     28  C   UNL     1       2.120  -2.511 -12.375  0.00  0.00    +0.000 A 
ATOM     29  N   UNL     1       3.288  -2.573 -13.070  0.00  0.00    +0.000 NA
ATOM     30  C   UNL     1       4.346  -2.627 -12.331  0.00  0.00    +0.000 A 
ATOM     31  N   UNL     1       4.342  -2.621 -10.961  0.00  0.00    +0.000 N 
ATOM     32  C   UNL     1       3.189  -2.534 -10.218  0.00  0.00    +0.000 A 
ATOM     33  O   UNL     1       3.221  -2.494  -8.992  0.00  0.00    +0.000 OA
ATOM     34  C   UNL     1       1.968  -2.480 -11.000  0.00  0.00    +0.000 A 
ATOM     35  H   UNL     1       5.207  -2.657 -10.442  0.00  0.00    +0.000 HD
ENDBRANCH  22  25
ENDBRANCH  20  21
ENDBRANCH   4  20
TORSDOF 7
