REMARK  Name = 
REMARK  6 active torsions:
REMARK  status: ('A' for Active; 'I' for Inactive)
REMARK    1  A    between atoms: C_2  and  C_25
REMARK    2  A    between atoms: N_3  and  C_4
REMARK    3  A    between atoms: C_4  and  C_5
REMARK    4  A    between atoms: C_8  and  C_9
REMARK    5  A    between atoms: C_9  and  N_10
REMARK    6  A    between atoms: C_11  and  C_13
REMARK                            x       y       z     vdW  Elec       q    Type
REMARK                         _______ _______ _______ _____ _____    ______ ____
ROOT
ATOM      1  C   UNL     1       3.303   2.957  -2.240  0.00  0.00    +0.000 A 
ATOM      2  C   UNL     1       2.986   4.322  -2.248  0.00  0.00    +0.000 A 
ATOM      3  C   UNL     1       3.834   5.249  -2.865  0.00  0.00    +0.000 A 
ATOM      4  C   UNL     1       5.005   4.827  -3.507  0.00  0.00    +0.000 A 
ATOM      5  C   UNL     1       5.331   3.465  -3.485  0.00  0.00    +0.000 A 
ATOM      6  C   UNL     1       4.484   2.538  -2.869  0.00  0.00    +0.000 A 
ENDROOT
BRANCH   1   7
ATOM      7  C   UNL     1       2.387   1.960  -1.587  0.00  0.00    +0.000 C 
BRANCH   7  10
ATOM      8  O   UNL     1       0.324   0.119  -0.939  0.00  0.00    +0.000 OA
ATOM      9  C   UNL     1       0.448   0.543  -2.076  0.00  0.00    +0.000 C 
ATOM     10  N   UNL     1       1.388   1.456  -2.495  0.00  0.00    +0.000 N 
ATOM     11  H   UNL     1       1.406   1.702  -3.480  0.00  0.00    +0.000 HD
BRANCH   9  12
ATOM     12  C   UNL     1      -0.469   0.056  -3.166  0.00  0.00    +0.000 C 
ATOM     13  C   UNL     1      -1.557  -0.900  -2.919  0.00  0.00    +0.000 C 
ATOM     14  C   UNL     1      -2.148  -1.062  -4.211  0.00  0.00    +0.000 C 
ATOM     15  C   UNL     1      -1.442  -0.269  -5.029  0.00  0.00    +0.000 C 
ATOM     16  N   UNL     1      -0.404   0.427  -4.424  0.00  0.00    +0.000 NA
ENDBRANCH   9  12
ENDBRANCH   7  10
ENDBRANCH   1   7
BRANCH   4  17
ATOM     17  C   UNL     1       5.913   5.818  -4.191  0.00  0.00    +0.000 C 
BRANCH  17  18
ATOM     18  N   UNL     1       6.906   6.341  -3.288  0.00  0.00    +0.000 N 
ATOM     19  C   UNL     1       7.787   7.313  -3.691  0.00  0.00    +0.000 C 
ATOM     20  O   UNL     1       7.728   7.820  -4.809  0.00  0.00    +0.000 OA
ATOM     21  H   UNL     1       7.116   5.787  -2.463  0.00  0.00    +0.000 HD
BRANCH  19  22
ATOM     22  C   UNL     1       8.771   7.764  -2.699  0.00  0.00    +0.000 A 
ATOM     23  C   UNL     1       9.352   9.019  -2.828  0.00  0.00    +0.000 A 
ATOM     24  S   UNL     1      10.434   9.405  -1.568  0.00  0.00    +0.000 S 
ATOM     25  C   UNL     1      10.205   7.888  -0.833  0.00  0.00    +0.000 A 
ATOM     26  N   UNL     1      10.877   7.552   0.304  0.00  0.00    +0.000 NA
ATOM     27  C   UNL     1      10.630   6.361   0.735  0.00  0.00    +0.000 A 
ATOM     28  N   UNL     1       9.772   5.477   0.135  0.00  0.00    +0.000 N 
ATOM     29  C   UNL     1       9.053   5.781  -0.995  0.00  0.00    +0.000 A 
ATOM     30  O   UNL     1       8.265   4.977  -1.484  0.00  0.00    +0.000 OA
ATOM     31  C   UNL     1       9.302   7.106  -1.529  0.00  0.00    +0.000 A 
ATOM     32  H   UNL     1       9.618   4.559   0.528  0.00  0.00    +0.000 HD
ENDBRANCH  19  22
ENDBRANCH  17  18
ENDBRANCH   4  17
TORSDOF 6
