REMARK  Name = 
REMARK  6 active torsions:
REMARK  status: ('A' for Active; 'I' for Inactive)
REMARK    1  A    between atoms: C_2  and  C_3
REMARK    2  A    between atoms: C_6  and  C_7
REMARK    3  A    between atoms: C_7  and  C_8
REMARK    4  A    between atoms: C_11  and  C_12
REMARK    5  A    between atoms: C_12  and  N_13
REMARK    6  A    between atoms: C_14  and  C_16
REMARK                            x       y       z     vdW  Elec       q    Type
REMARK                         _______ _______ _______ _____ _____    ______ ____
ROOT
ATOM      1  C   UNL     1      -6.129   5.200  -0.360  0.00  0.00    +0.000 C 
ENDROOT
BRANCH   1   5
ATOM      2  C   UNL     1      -4.430   1.219  -0.148  0.00  0.00    +0.000 A 
ATOM      3  C   UNL     1      -4.154   2.055  -1.238  0.00  0.00    +0.000 A 
ATOM      4  C   UNL     1      -4.720   3.331  -1.320  0.00  0.00    +0.000 A 
ATOM      5  C   UNL     1      -5.563   3.803  -0.307  0.00  0.00    +0.000 A 
ATOM      6  C   UNL     1      -5.891   2.943   0.749  0.00  0.00    +0.000 A 
ATOM      7  C   UNL     1      -5.323   1.668   0.834  0.00  0.00    +0.000 A 
BRANCH   2   8
ATOM      8  C   UNL     1      -3.756  -0.128  -0.021  0.00  0.00    +0.000 C 
BRANCH   8  12
ATOM      9  C   UNL     1      -0.130  -0.107   2.221  0.00  0.00    +0.000 A 
ATOM     10  C   UNL     1      -0.052   0.133   0.854  0.00  0.00    +0.000 A 
ATOM     11  C   UNL     1      -1.234   0.141   0.111  0.00  0.00    +0.000 A 
ATOM     12  C   UNL     1      -2.457  -0.096   0.745  0.00  0.00    +0.000 A 
ATOM     13  C   UNL     1      -2.429  -0.303   2.122  0.00  0.00    +0.000 A 
ATOM     14  N   UNL     1      -1.301  -0.321   2.870  0.00  0.00    +0.000 NA
BRANCH   9  16
ATOM     15  N   UNL     1       2.050  -0.192   3.641  0.00  0.00    +0.000 NA
ATOM     16  C   UNL     1       1.063  -0.154   3.028  0.00  0.00    +0.000 C 
ENDBRANCH   9  16
ENDBRANCH   8  12
ENDBRANCH   2   8
ENDBRANCH   1   5
BRANCH   1  17
ATOM     17  N   UNL     1      -7.376   5.226  -1.074  0.00  0.00    +0.000 N 
ATOM     18  C   UNL     1      -8.057   6.397  -1.296  0.00  0.00    +0.000 C 
ATOM     19  O   UNL     1      -7.611   7.489  -0.960  0.00  0.00    +0.000 OA
ATOM     20  H   UNL     1      -7.877   4.346  -1.135  0.00  0.00    +0.000 HD
BRANCH  18  21
ATOM     21  C   UNL     1      -9.323   6.271  -2.026  0.00  0.00    +0.000 A 
ATOM     22  C   UNL     1      -9.825   7.349  -2.742  0.00  0.00    +0.000 A 
ATOM     23  S   UNL     1     -11.251   6.989  -3.607  0.00  0.00    +0.000 S 
ATOM     24  C   UNL     1     -11.279   5.396  -3.008  0.00  0.00    +0.000 A 
ATOM     25  N   UNL     1     -12.264   4.528  -3.362  0.00  0.00    +0.000 NA
ATOM     26  C   UNL     1     -12.173   3.363  -2.812  0.00  0.00    +0.000 A 
ATOM     27  N   UNL     1     -11.188   2.988  -1.935  0.00  0.00    +0.000 N 
ATOM     28  C   UNL     1     -10.167   3.825  -1.560  0.00  0.00    +0.000 A 
ATOM     29  O   UNL     1      -9.289   3.451  -0.789  0.00  0.00    +0.000 OA
ATOM     30  C   UNL     1     -10.216   5.144  -2.161  0.00  0.00    +0.000 A 
ATOM     31  H   UNL     1     -11.175   2.060  -1.538  0.00  0.00    +0.000 HD
ENDBRANCH  18  21
ENDBRANCH   1  17
TORSDOF 6
