REMARK  Name = 
REMARK  10 active torsions:
REMARK  status: ('A' for Active; 'I' for Inactive)
REMARK    1  A    between atoms: C_1  and  O_2
REMARK    2  A    between atoms: O_2  and  C_3
REMARK    3  A    between atoms: C_10  and  C_11
REMARK    4  A    between atoms: N_13  and  C_14
REMARK    5  A    between atoms: C_14  and  C_15
REMARK    6  A    between atoms: C_18  and  C_19
REMARK    7  A    between atoms: C_19  and  N_20
REMARK    8  A    between atoms: N_20  and  C_21
REMARK    9  A    between atoms: C_21  and  C_22
REMARK   10  A    between atoms: C_21  and  C_23
REMARK                            x       y       z     vdW  Elec       q    Type
REMARK                         _______ _______ _______ _____ _____    ______ ____
ROOT
ATOM      1  C   UNL     1       1.901   0.106   3.500  0.00  0.00    +0.000 A 
ATOM      2  C   UNL     1       0.585  -0.324   3.719  0.00  0.00    +0.000 A 
ATOM      3  C   UNL     1      -0.455   0.603   3.842  0.00  0.00    +0.000 A 
ATOM      4  C   UNL     1      -0.205   1.980   3.742  0.00  0.00    +0.000 A 
ATOM      5  C   UNL     1       1.106   2.406   3.496  0.00  0.00    +0.000 A 
ATOM      6  C   UNL     1       2.147   1.479   3.372  0.00  0.00    +0.000 A 
ENDROOT
BRANCH   1   7
ATOM      7  C   UNL     1       3.023  -0.890   3.351  0.00  0.00    +0.000 C 
BRANCH   7  10
ATOM      8  C   UNL     1       4.130  -2.182   1.574  0.00  0.00    +0.000 C 
ATOM      9  O   UNL     1       4.874  -2.726   2.387  0.00  0.00    +0.000 OA
ATOM     10  N   UNL     1       3.198  -1.264   1.970  0.00  0.00    +0.000 N 
ATOM     11  H   UNL     1       2.629  -0.789   1.283  0.00  0.00    +0.000 HD
BRANCH   8  19
ATOM     12  C   UNL     1       2.324  -1.159  -1.175  0.00  0.00    +0.000 A 
ATOM     13  N   UNL     1       1.797  -0.934  -2.396  0.00  0.00    +0.000 NA
ATOM     14  C   UNL     1       2.334  -1.572  -3.439  0.00  0.00    +0.000 A 
ATOM     15  N   UNL     1       3.352  -2.426  -3.418  0.00  0.00    +0.000 NA
ATOM     16  C   UNL     1       3.850  -2.619  -2.187  0.00  0.00    +0.000 A 
ATOM     17  S   UNL     1       5.159  -3.679  -1.968  0.00  0.00    +0.000 S 
ATOM     18  C   UNL     1       5.179  -3.389  -0.294  0.00  0.00    +0.000 A 
ATOM     19  C   UNL     1       4.210  -2.491   0.135  0.00  0.00    +0.000 A 
ATOM     20  C   UNL     1       3.415  -2.029  -1.003  0.00  0.00    +0.000 A 
BRANCH  12  22
ATOM     21  C   UNL     1       0.451  -0.052  -0.312  0.00  0.00    +0.000 C 
ATOM     22  O   UNL     1       1.798  -0.470  -0.105  0.00  0.00    +0.000 OA
ENDBRANCH  12  22
ENDBRANCH   8  19
ENDBRANCH   7  10
ENDBRANCH   1   7
BRANCH   4  23
ATOM     23  C   UNL     1      -1.337   2.981   3.860  0.00  0.00    +0.000 C 
BRANCH  23  24
ATOM     24  N   UNL     1      -2.025   2.860   5.144  0.00  0.00    +0.000 NA
ATOM     25  H   UNL     1      -1.334   2.956   5.889  0.00  0.00    +0.000 HD
BRANCH  24  26
ATOM     26  C   UNL     1      -3.068   3.876   5.358  0.00  0.00    +0.000 C 
ATOM     27  C   UNL     1      -4.210   3.785   4.337  0.00  0.00    +0.000 C 
BRANCH  26  28
ATOM     28  C   UNL     1      -3.638   3.738   6.766  0.00  0.00    +0.000 A 
ATOM     29  C   UNL     1      -3.618   4.823   7.656  0.00  0.00    +0.000 A 
ATOM     30  C   UNL     1      -4.166   4.703   8.936  0.00  0.00    +0.000 A 
ATOM     31  C   UNL     1      -4.741   3.500   9.343  0.00  0.00    +0.000 A 
ATOM     32  C   UNL     1      -4.764   2.413   8.473  0.00  0.00    +0.000 A 
ATOM     33  C   UNL     1      -4.215   2.531   7.196  0.00  0.00    +0.000 A 
ENDBRANCH  26  28
ENDBRANCH  24  26
ENDBRANCH  23  24
ENDBRANCH   4  23
TORSDOF 8
