REMARK  Name = 
REMARK  8 active torsions:
REMARK  status: ('A' for Active; 'I' for Inactive)
REMARK    1  A    between atoms: C_1  and  C_2
REMARK    2  A    between atoms: C_2  and  N_3
REMARK    3  A    between atoms: C_2  and  C_25
REMARK    4  A    between atoms: N_3  and  C_4
REMARK    5  A    between atoms: C_4  and  C_5
REMARK    6  A    between atoms: C_8  and  C_9
REMARK    7  A    between atoms: C_9  and  N_10
REMARK    8  A    between atoms: C_11  and  C_13
REMARK                            x       y       z     vdW  Elec       q    Type
REMARK                         _______ _______ _______ _____ _____    ______ ____
ROOT
ATOM      1  C   UNL     1      -1.029   1.124   0.739  0.00  0.00    +0.000 A 
ATOM      2  C   UNL     1      -1.709   0.268  -0.125  0.00  0.00    +0.000 A 
ATOM      3  C   UNL     1      -3.080   0.448  -0.319  0.00  0.00    +0.000 A 
ATOM      4  C   UNL     1      -3.745   1.478   0.350  0.00  0.00    +0.000 A 
ATOM      5  C   UNL     1      -2.989   2.275   1.197  0.00  0.00    +0.000 A 
ATOM      6  N   UNL     1      -1.661   2.129   1.398  0.00  0.00    +0.000 NA
ENDROOT
BRANCH   1   7
ATOM      7  C   UNL     1       0.482   1.035   0.879  0.00  0.00    +0.000 C 
BRANCH   7   8
ATOM      8  N   UNL     1       0.942   0.801   2.256  0.00  0.00    +0.000 NA
ATOM      9  H   UNL     1       0.559  -0.087   2.577  0.00  0.00    +0.000 HD
BRANCH   8  11
ATOM     10  C   UNL     1       3.048   2.110   1.985  0.00  0.00    +0.000 C 
ATOM     11  C   UNL     1       2.409   0.774   2.382  0.00  0.00    +0.000 C 
BRANCH  11  12
ATOM     12  C   UNL     1       2.852   0.377   3.789  0.00  0.00    +0.000 A 
ATOM     13  C   UNL     1       4.077  -0.282   3.974  0.00  0.00    +0.000 A 
ATOM     14  C   UNL     1       4.438  -0.700   5.250  0.00  0.00    +0.000 A 
ATOM     15  N   UNL     1       3.675  -0.509   6.345  0.00  0.00    +0.000 NA
ATOM     16  C   UNL     1       2.520   0.166   6.160  0.00  0.00    +0.000 A 
ATOM     17  C   UNL     1       2.084   0.641   4.929  0.00  0.00    +0.000 A 
ENDBRANCH  11  12
ENDBRANCH   8  11
ENDBRANCH   7   8
ENDBRANCH   1   7
BRANCH   4  18
ATOM     18  C   UNL     1      -5.216   1.718   0.193  0.00  0.00    +0.000 C 
BRANCH  18  19
ATOM     19  N   UNL     1      -5.989   0.971   1.154  0.00  0.00    +0.000 N 
ATOM     20  C   UNL     1      -7.360   1.015   1.125  0.00  0.00    +0.000 C 
ATOM     21  O   UNL     1      -7.966   1.680   0.287  0.00  0.00    +0.000 OA
ATOM     22  H   UNL     1      -5.516   0.611   1.980  0.00  0.00    +0.000 HD
BRANCH  20  23
ATOM     23  C   UNL     1      -8.077   0.182   2.096  0.00  0.00    +0.000 A 
ATOM     24  C   UNL     1      -9.372  -0.233   1.816  0.00  0.00    +0.000 A 
ATOM     25  S   UNL     1     -10.061  -1.201   3.042  0.00  0.00    +0.000 S 
ATOM     26  C   UNL     1      -8.665  -1.059   4.003  0.00  0.00    +0.000 A 
ATOM     27  N   UNL     1      -8.591  -1.620   5.239  0.00  0.00    +0.000 NA
ATOM     28  N   UNL     1      -7.550  -1.457   5.922  0.00  0.00    +0.000 NA
ATOM     29  N   UNL     1      -6.507  -0.746   5.397  0.00  0.00    +0.000 N 
ATOM     30  C   UNL     1      -6.468  -0.172   4.147  0.00  0.00    +0.000 A 
ATOM     31  O   UNL     1      -5.473   0.410   3.721  0.00  0.00    +0.000 OA
ATOM     32  C   UNL     1      -7.682  -0.325   3.386  0.00  0.00    +0.000 A 
ATOM     33  H   UNL     1      -5.690  -0.663   5.987  0.00  0.00    +0.000 HD
ENDBRANCH  20  23
ENDBRANCH  18  19
ENDBRANCH   4  18
TORSDOF 7
