REMARK  Name = 
REMARK  12 active torsions:
REMARK  status: ('A' for Active; 'I' for Inactive)
REMARK    1  A    between atoms: C_1  and  C_2
REMARK    2  A    between atoms: C_2  and  C_3
REMARK    3  A    between atoms: C_3  and  N_4
REMARK    4  A    between atoms: C_5  and  C_7
REMARK    5  A    between atoms: C_10  and  N_11
REMARK    6  A    between atoms: N_11  and  C_12
REMARK    7  A    between atoms: C_12  and  C_13
REMARK    8  A    between atoms: C_13  and  C_14
REMARK    9  A    between atoms: C_13  and  C_15
REMARK   10  A    between atoms: C_13  and  C_16
REMARK   11  A    between atoms: C_20  and  O_21
REMARK   12  A    between atoms: O_21  and  C_22
REMARK                            x       y       z     vdW  Elec       q    Type
REMARK                         _______ _______ _______ _____ _____    ______ ____
ROOT
ATOM      1  N   UNL     1      10.862  -2.636  -0.445  0.00  0.00    +0.000 N 
ATOM      2  H   UNL     1      11.392  -3.357  -0.911  0.00  0.00    +0.000 HD
ENDROOT
BRANCH   1   6
ATOM      3  C   UNL     1       7.005  -3.970   0.097  0.00  0.00    +0.000 A 
ATOM      4  C   UNL     1       7.544  -3.009   0.941  0.00  0.00    +0.000 A 
ATOM      5  N   UNL     1       8.830  -2.560   0.826  0.00  0.00    +0.000 NA
ATOM      6  C   UNL     1       9.562  -3.093  -0.173  0.00  0.00    +0.000 A 
ATOM      7  C   UNL     1       8.986  -4.047  -1.026  0.00  0.00    +0.000 A 
ATOM      8  N   UNL     1       7.719  -4.531  -0.914  0.00  0.00    +0.000 NA
BRANCH   3  10
ATOM      9  N   UNL     1       5.178  -5.418  -0.580  0.00  0.00    +0.000 N 
ATOM     10  C   UNL     1       5.588  -4.409   0.269  0.00  0.00    +0.000 C 
ATOM     11  O   UNL     1       4.871  -3.892   1.113  0.00  0.00    +0.000 OA
ATOM     12  H   UNL     1       5.854  -5.755  -1.258  0.00  0.00    +0.000 HD
BRANCH   9  13
ATOM     13  C   UNL     1       3.826  -5.937  -0.575  0.00  0.00    +0.000 C 
BRANCH  13  15
ATOM     14  C   UNL     1       3.212  -5.118  -2.902  0.00  0.00    +0.000 C 
ATOM     15  C   UNL     1       2.862  -5.105  -1.422  0.00  0.00    +0.000 C 
ENDBRANCH  13  15
ENDBRANCH   9  13
ENDBRANCH   3  10
ENDBRANCH   1   6
BRANCH   1  16
ATOM     16  C   UNL     1      11.583  -2.030   0.686  0.00  0.00    +0.000 C 
BRANCH  16  17
ATOM     17  C   UNL     1      13.145  -2.179   0.541  0.00  0.00    +0.000 C 
ATOM     18  C   UNL     1      13.510  -3.688   0.495  0.00  0.00    +0.000 C 
ATOM     19  C   UNL     1      13.634  -1.554  -0.785  0.00  0.00    +0.000 C 
BRANCH  17  20
ATOM     20  C   UNL     1      13.812  -1.457   1.737  0.00  0.00    +0.000 A 
ATOM     21  C   UNL     1      13.640  -0.071   1.909  0.00  0.00    +0.000 A 
ATOM     22  C   UNL     1      14.153   0.593   3.027  0.00  0.00    +0.000 A 
ATOM     23  C   UNL     1      14.843  -0.113   4.008  0.00  0.00    +0.000 A 
ATOM     24  C   UNL     1      15.034  -1.483   3.865  0.00  0.00    +0.000 A 
ATOM     25  C   UNL     1      14.552  -2.138   2.723  0.00  0.00    +0.000 A 
BRANCH  24  26
ATOM     26  O   UNL     1      15.689  -2.277   4.767  0.00  0.00    +0.000 OA
ATOM     27  C   UNL     1      15.553  -1.875   6.127  0.00  0.00    +0.000 C 
ENDBRANCH  24  26
ENDBRANCH  17  20
ENDBRANCH  16  17
ENDBRANCH   1  16
TORSDOF 8
