REMARK  Name = 
REMARK  6 active torsions:
REMARK  status: ('A' for Active; 'I' for Inactive)
REMARK    1  A    between atoms: C_2  and  C_4
REMARK    2  A    between atoms: C_7  and  N_8
REMARK    3  A    between atoms: N_8  and  C_9
REMARK    4  A    between atoms: C_9  and  C_10
REMARK    5  A    between atoms: C_10  and  C_13
REMARK    6  A    between atoms: C_17  and  C_18
REMARK                            x       y       z     vdW  Elec       q    Type
REMARK                         _______ _______ _______ _____ _____    ______ ____
ROOT
ATOM      1  C   UNL     1       6.476  -5.343   4.448  0.00  0.00    +0.000 C 
ATOM      2  F   UNL     1       7.700  -5.276   3.845  0.00  0.00    +0.000 F 
ATOM      3  F   UNL     1       6.586  -4.575   5.575  0.00  0.00    +0.000 F 
ENDROOT
BRANCH   1   4
ATOM      4  C   UNL     1       6.077  -6.771   4.767  0.00  0.00    +0.000 A 
ATOM      5  C   UNL     1       5.292  -7.056   5.888  0.00  0.00    +0.000 A 
ATOM      6  C   UNL     1       4.888  -8.361   6.148  0.00  0.00    +0.000 A 
ATOM      7  C   UNL     1       5.248  -9.391   5.278  0.00  0.00    +0.000 A 
ATOM      8  C   UNL     1       6.016  -9.143   4.126  0.00  0.00    +0.000 A 
ATOM      9  C   UNL     1       6.440  -7.819   3.903  0.00  0.00    +0.000 A 
BRANCH   8  10
ATOM     10  C   UNL     1       6.324 -10.219   3.162  0.00  0.00    +0.000 A 
ATOM     11  C   UNL     1       7.516 -10.247   2.423  0.00  0.00    +0.000 A 
ATOM     12  C   UNL     1       7.743 -11.260   1.493  0.00  0.00    +0.000 A 
ATOM     13  C   UNL     1       6.776 -12.236   1.330  0.00  0.00    +0.000 A 
ATOM     14  F   UNL     1       6.995 -13.208   0.435  0.00  0.00    +0.000 F 
ATOM     15  N   UNL     1       5.618 -12.263   2.015  0.00  0.00    +0.000 NA
ATOM     16  C   UNL     1       5.425 -11.260   2.902  0.00  0.00    +0.000 A 
ENDBRANCH   8  10
ENDBRANCH   1   4
BRANCH   1  17
ATOM     17  C   UNL     1       5.418  -4.689   3.521  0.00  0.00    +0.000 C 
BRANCH  17  18
ATOM     18  N   UNL     1       5.705  -3.276   3.234  0.00  0.00    +0.000 N 
ATOM     19  H   UNL     1       6.127  -2.761   4.006  0.00  0.00    +0.000 HD
BRANCH  18  23
ATOM     20  C   UNL     1       3.412  -0.955   0.568  0.00  0.00    +0.000 A 
ATOM     21  C   UNL     1       2.992  -2.248   0.887  0.00  0.00    +0.000 A 
ATOM     22  C   UNL     1       3.730  -3.020   1.794  0.00  0.00    +0.000 A 
ATOM     23  C   UNL     1       4.874  -2.514   2.421  0.00  0.00    +0.000 A 
ATOM     24  C   UNL     1       5.278  -1.212   2.092  0.00  0.00    +0.000 A 
ATOM     25  C   UNL     1       4.561  -0.439   1.171  0.00  0.00    +0.000 A 
BRANCH  20  27
ATOM     26  N   UNL     1       1.376  -0.370  -0.634  0.00  0.00    +0.000 N 
ATOM     27  C   UNL     1       2.710  -0.140  -0.453  0.00  0.00    +0.000 C 
ATOM     28  O   UNL     1       3.294   0.722  -1.101  0.00  0.00    +0.000 OA
ATOM     29  H   UNL     1       0.898   0.249  -1.277  0.00  0.00    +0.000 HD
ATOM     30  H   UNL     1       0.818  -0.878   0.037  0.00  0.00    +0.000 HD
ENDBRANCH  20  27
ENDBRANCH  18  23
ENDBRANCH  17  18
ENDBRANCH   1  17
TORSDOF 6
