REMARK  Name = 
REMARK  5 active torsions:
REMARK  status: ('A' for Active; 'I' for Inactive)
REMARK    1  A    between atoms: C_2  and  C_3
REMARK    2  A    between atoms: C_7  and  N_8
REMARK    3  A    between atoms: N_8  and  C_9
REMARK    4  A    between atoms: C_9  and  C_10
REMARK    5  A    between atoms: C_14  and  C_15
REMARK                            x       y       z     vdW  Elec       q    Type
REMARK                         _______ _______ _______ _____ _____    ______ ____
ROOT
ATOM      1  C   UNL     1      -2.478   4.945   0.139  0.00  0.00    +0.000 A 
ATOM      2  C   UNL     1      -2.019   6.254   0.099  0.00  0.00    +0.000 A 
ATOM      3  N   UNL     1      -2.823   7.335   0.158  0.00  0.00    +0.000 NA
ATOM      4  C   UNL     1      -4.156   7.100   0.253  0.00  0.00    +0.000 A 
ATOM      5  C   UNL     1      -4.752   5.836   0.273  0.00  0.00    +0.000 A 
ATOM      6  C   UNL     1      -3.865   4.749   0.207  0.00  0.00    +0.000 A 
ENDROOT
BRANCH   5   7
ATOM      7  C   UNL     1      -6.214   5.654   0.362  0.00  0.00    +0.000 A 
ATOM      8  C   UNL     1      -6.794   4.562   1.026  0.00  0.00    +0.000 A 
ATOM      9  C   UNL     1      -8.180   4.412   1.082  0.00  0.00    +0.000 A 
ATOM     10  C   UNL     1      -8.968   5.373   0.478  0.00  0.00    +0.000 A 
ATOM     11  N   UNL     1      -8.469   6.444  -0.168  0.00  0.00    +0.000 NA
ATOM     12  C   UNL     1      -7.117   6.554  -0.213  0.00  0.00    +0.000 A 
ENDBRANCH   5   7
BRANCH   1  13
ATOM     13  C   UNL     1      -1.518   3.791   0.111  0.00  0.00    +0.000 C 
BRANCH  13  14
ATOM     14  N   UNL     1      -1.176   3.442  -1.257  0.00  0.00    +0.000 N 
ATOM     15  H   UNL     1      -1.849   3.717  -1.967  0.00  0.00    +0.000 HD
BRANCH  14  20
ATOM     16  C   UNL     1       1.188   0.575  -0.975  0.00  0.00    +0.000 A 
ATOM     17  C   UNL     1       1.317   0.285  -2.320  0.00  0.00    +0.000 A 
ATOM     18  N   UNL     1       0.658   0.954  -3.290  0.00  0.00    +0.000 NA
ATOM     19  C   UNL     1      -0.159   1.962  -2.885  0.00  0.00    +0.000 A 
ATOM     20  C   UNL     1      -0.388   2.336  -1.556  0.00  0.00    +0.000 A 
ATOM     21  C   UNL     1       0.330   1.616  -0.596  0.00  0.00    +0.000 A 
BRANCH  16  23
ATOM     22  N   UNL     1       2.515  -0.752   0.805  0.00  0.00    +0.000 NA
ATOM     23  C   UNL     1       1.924  -0.160   0.004  0.00  0.00    +0.000 C 
ENDBRANCH  16  23
ENDBRANCH  14  20
ENDBRANCH  13  14
ENDBRANCH   1  13
TORSDOF 5
