REMARK  Name = 
REMARK  8 active torsions:
REMARK  status: ('A' for Active; 'I' for Inactive)
REMARK    1  A    between atoms: N_1  and  C_2
REMARK    2  A    between atoms: C_2  and  C_3
REMARK    3  A    between atoms: C_3  and  O_4
REMARK    4  A    between atoms: O_4  and  C_5
REMARK    5  A    between atoms: C_9  and  C_10
REMARK    6  A    between atoms: C_10  and  N_11
REMARK    7  A    between atoms: CA_16  and  C_17
REMARK    8  A    between atoms: C_17  and  OXT_19
REMARK                            x       y       z     vdW  Elec       q    Type
REMARK                         _______ _______ _______ _____ _____    ______ ____
ROOT
ATOM      1  C   UNL     1       8.266   3.619  -2.436  0.00  0.00    +0.000 C 
ENDROOT
BRANCH   1   2
ATOM      2  N   UNL     1       8.309   3.846  -3.878  0.00  0.00    +0.000 N 
ATOM      3  C   UNL     1       8.443   5.093  -4.443  0.00  0.00    +0.000 A 
ATOM      4  C   UNL     1       8.651   4.935  -5.792  0.00  0.00    +0.000 A 
ATOM      5  C   UNL     1       8.659   3.543  -6.066  0.00  0.00    +0.000 A 
ATOM      6  C   UNL     1       8.853   2.798  -7.236  0.00  0.00    +0.000 A 
ATOM      7  CA  UNL     1       8.813   1.422  -7.092  0.00  0.00    +0.000 A 
ATOM      8  N   UNL     1       8.601   0.753  -5.917  0.00  0.00    +0.000 NA
ATOM      9  C   UNL     1       8.410   1.480  -4.791  0.00  0.00    +0.000 A 
ATOM     10  C   UNL     1       8.440   2.873  -4.856  0.00  0.00    +0.000 A 
BRANCH   7  11
ATOM     11  C   UNL     1       9.025   0.557  -8.290  0.00  0.00    +0.000 C 
ATOM     12  O   UNL     1       9.234   0.957  -9.423  0.00  0.00    +0.000 OA
BRANCH  11  13
ATOM     13  OXT UNL     1       8.958  -0.754  -7.946  0.00  0.00    +0.000 OA
ATOM     14  HXT UNL     1       8.781  -0.809  -6.975  0.00  0.00    +0.000 HD
ENDBRANCH  11  13
ENDBRANCH   7  11
ENDBRANCH   1   2
BRANCH   1  19
ATOM     15  C   UNL     1       4.938   2.593  -0.861  0.00  0.00    +0.000 A 
ATOM     16  C   UNL     1       4.464   3.829  -0.418  0.00  0.00    +0.000 A 
ATOM     17  C   UNL     1       5.166   4.998  -0.712  0.00  0.00    +0.000 A 
ATOM     18  C   UNL     1       6.366   4.938  -1.419  0.00  0.00    +0.000 A 
ATOM     19  C   UNL     1       6.885   3.703  -1.835  0.00  0.00    +0.000 A 
ATOM     20  C   UNL     1       6.139   2.539  -1.580  0.00  0.00    +0.000 A 
BRANCH  15  21
ATOM     21  O   UNL     1       4.333   1.382  -0.635  0.00  0.00    +0.000 OA
BRANCH  21  22
ATOM     22  C   UNL     1       3.183   1.410   0.217  0.00  0.00    +0.000 C 
BRANCH  22  23
ATOM     23  C   UNL     1       2.635  -0.010   0.396  0.00  0.00    +0.000 C 
BRANCH  23  24
ATOM     24  N   UNL     1       1.455  -0.021   1.263  0.00  0.00    +0.000 NA
ATOM     25  H   UNL     1       1.101  -0.974   1.338  0.00  0.00    +0.000 HD
ATOM     26  H   UNL     1       0.708   0.524   0.834  0.00  0.00    +0.000 HD
ENDBRANCH  23  24
ENDBRANCH  22  23
ENDBRANCH  21  22
ENDBRANCH  15  21
ENDBRANCH   1  19
TORSDOF 8
