REMARK  Name = 
REMARK  5 active torsions:
REMARK  status: ('A' for Active; 'I' for Inactive)
REMARK    1  A    between atoms: C_2  and  C_3
REMARK    2  A    between atoms: C_6  and  N_7
REMARK    3  A    between atoms: N_7  and  C_8
REMARK    4  A    between atoms: C_8  and  C_9
REMARK    5  A    between atoms: C_13  and  N_14
REMARK                            x       y       z     vdW  Elec       q    Type
REMARK                         _______ _______ _______ _____ _____    ______ ____
ROOT
ATOM      1  C   UNL     1       8.622  -0.985  -0.761  0.00  0.00    +0.000 C 
ATOM      2  C   UNL     1       8.653  -2.148  -1.723  0.00  0.00    +0.000 C 
ATOM      3  C   UNL     1       8.985  -2.391  -0.290  0.00  0.00    +0.000 C 
ENDROOT
BRANCH   1   4
ATOM      4  C   UNL     1       9.710   0.081  -0.727  0.00  0.00    +0.000 A 
ATOM      5  C   UNL     1       9.740   1.128  -1.653  0.00  0.00    +0.000 A 
ATOM      6  C   UNL     1      10.458   2.292  -1.376  0.00  0.00    +0.000 A 
ATOM      7  C   UNL     1      11.222   2.396  -0.207  0.00  0.00    +0.000 A 
ATOM      8  C   UNL     1      11.337   1.326   0.683  0.00  0.00    +0.000 A 
ATOM      9  C   UNL     1      10.550   0.198   0.400  0.00  0.00    +0.000 A 
BRANCH   8  10
ATOM     10  N   UNL     1      12.099   1.365   1.830  0.00  0.00    +0.000 N 
ATOM     11  C   UNL     1      12.815   0.170   2.311  0.00  0.00    +0.000 C 
ATOM     12  C   UNL     1      12.604   0.050   3.826  0.00  0.00    +0.000 C 
ATOM     13  O   UNL     1      13.065   1.232   4.504  0.00  0.00    +0.000 OA
ATOM     14  C   UNL     1      12.358   2.394   4.030  0.00  0.00    +0.000 C 
ATOM     15  C   UNL     1      12.522   2.597   2.508  0.00  0.00    +0.000 C 
ENDBRANCH   8  10
ENDBRANCH   1   4
BRANCH   1  16
ATOM     16  N   UNL     1       7.375  -0.459  -0.179  0.00  0.00    +0.000 N 
ATOM     17  H   UNL     1       7.506   0.106   0.661  0.00  0.00    +0.000 HD
BRANCH  16  21
ATOM     18  C   UNL     1       4.228   1.347  -2.073  0.00  0.00    +0.000 A 
ATOM     19  C   UNL     1       4.627   1.691  -0.798  0.00  0.00    +0.000 A 
ATOM     20  N   UNL     1       5.701   1.131  -0.194  0.00  0.00    +0.000 NA
ATOM     21  C   UNL     1       6.375   0.193  -0.897  0.00  0.00    +0.000 A 
ATOM     22  C   UNL     1       5.979  -0.124  -2.195  0.00  0.00    +0.000 A 
ATOM     23  N   UNL     1       4.906   0.437  -2.815  0.00  0.00    +0.000 NA
BRANCH  18  25
ATOM     24  N   UNL     1       2.093   2.414  -3.074  0.00  0.00    +0.000 NA
ATOM     25  C   UNL     1       3.050   1.925  -2.652  0.00  0.00    +0.000 C 
ENDBRANCH  18  25
ENDBRANCH  16  21
ENDBRANCH   1  16
TORSDOF 5
