REMARK  Name = 
REMARK  6 active torsions:
REMARK  status: ('A' for Active; 'I' for Inactive)
REMARK    1  A    between atoms: C_2  and  C_25
REMARK    2  A    between atoms: N_3  and  C_4
REMARK    3  A    between atoms: C_4  and  C_5
REMARK    4  A    between atoms: C_8  and  C_9
REMARK    5  A    between atoms: C_9  and  N_10
REMARK    6  A    between atoms: C_11  and  C_13
REMARK                            x       y       z     vdW  Elec       q    Type
REMARK                         _______ _______ _______ _____ _____    ______ ____
ROOT
ATOM      1  C   UNL     1       3.126  -1.911   3.173  0.00  0.00    +0.000 A 
ATOM      2  C   UNL     1       3.929  -1.083   3.969  0.00  0.00    +0.000 A 
ATOM      3  C   UNL     1       4.758  -1.626   4.958  0.00  0.00    +0.000 A 
ATOM      4  C   UNL     1       4.818  -3.012   5.157  0.00  0.00    +0.000 A 
ATOM      5  C   UNL     1       4.013  -3.839   4.363  0.00  0.00    +0.000 A 
ATOM      6  C   UNL     1       3.185  -3.297   3.375  0.00  0.00    +0.000 A 
ENDROOT
BRANCH   1   7
ATOM      7  C   UNL     1       2.186  -1.325   2.154  0.00  0.00    +0.000 C 
BRANCH   7  10
ATOM      8  O   UNL     1       0.851  -0.287  -0.086  0.00  0.00    +0.000 OA
ATOM      9  C   UNL     1       2.029  -0.610  -0.168  0.00  0.00    +0.000 C 
ATOM     10  N   UNL     1       2.784  -1.131   0.858  0.00  0.00    +0.000 N 
ATOM     11  H   UNL     1       3.759  -1.355   0.681  0.00  0.00    +0.000 HD
BRANCH   9  12
ATOM     12  C   UNL     1       2.748  -0.440  -1.478  0.00  0.00    +0.000 C 
ATOM     13  C   UNL     1       2.083   0.100  -2.674  0.00  0.00    +0.000 C 
ATOM     14  C   UNL     1       3.123   0.112  -3.651  0.00  0.00    +0.000 C 
ATOM     15  C   UNL     1       4.206  -0.375  -3.025  0.00  0.00    +0.000 C 
ATOM     16  N   UNL     1       4.012  -0.725  -1.695  0.00  0.00    +0.000 NA
ENDBRANCH   9  12
ENDBRANCH   7  10
ENDBRANCH   1   7
BRANCH   4  17
ATOM     17  C   UNL     1       5.693  -3.605   6.232  0.00  0.00    +0.000 C 
BRANCH  17  18
ATOM     18  N   UNL     1       4.973  -3.742   7.475  0.00  0.00    +0.000 N 
ATOM     19  C   UNL     1       5.594  -4.185   8.615  0.00  0.00    +0.000 C 
ATOM     20  O   UNL     1       6.797  -4.431   8.649  0.00  0.00    +0.000 OA
ATOM     21  H   UNL     1       3.961  -3.764   7.418  0.00  0.00    +0.000 HD
BRANCH  19  22
ATOM     22  C   UNL     1       4.755  -4.298   9.817  0.00  0.00    +0.000 A 
ATOM     23  C   UNL     1       5.346  -4.269  11.074  0.00  0.00    +0.000 A 
ATOM     24  S   UNL     1       4.228  -4.359  12.359  0.00  0.00    +0.000 S 
ATOM     25  C   UNL     1       2.918  -4.494  11.282  0.00  0.00    +0.000 A 
ATOM     26  N   UNL     1       1.646  -4.631  11.743  0.00  0.00    +0.000 NA
ATOM     27  C   UNL     1       0.754  -4.752  10.818  0.00  0.00    +0.000 A 
ATOM     28  N   UNL     1       1.017  -4.746   9.474  0.00  0.00    +0.000 N 
ATOM     29  C   UNL     1       2.283  -4.584   8.961  0.00  0.00    +0.000 A 
ATOM     30  O   UNL     1       2.479  -4.546   7.751  0.00  0.00    +0.000 OA
ATOM     31  C   UNL     1       3.326  -4.452   9.960  0.00  0.00    +0.000 A 
ATOM     32  H   UNL     1       0.272  -4.837   8.799  0.00  0.00    +0.000 HD
ENDBRANCH  19  22
ENDBRANCH  17  18
ENDBRANCH   4  17
TORSDOF 6
