REMARK  Name = 
REMARK  10 active torsions:
REMARK  status: ('A' for Active; 'I' for Inactive)
REMARK    1  A    between atoms: N_1  and  C_2
REMARK    2  A    between atoms: C_2  and  C_3
REMARK    3  A    between atoms: C_3  and  N_4
REMARK    4  A    between atoms: C_3  and  C_20
REMARK    5  A    between atoms: N_4  and  C_5
REMARK    6  A    between atoms: C_5  and  C_6
REMARK    7  A    between atoms: C_9  and  C_10
REMARK    8  A    between atoms: C_10  and  N_11
REMARK    9  A    between atoms: N_11  and  C_12
REMARK   10  A    between atoms: C_12  and  C_13
REMARK                            x       y       z     vdW  Elec       q    Type
REMARK                         _______ _______ _______ _____ _____    ______ ____
ROOT
ATOM      1  N   UNL     1       2.560   0.100   0.107  0.00  0.00    +0.000 NA
ATOM      2  H   UNL     1       2.493  -0.901   0.294  0.00  0.00    +0.000 HD
ENDROOT
BRANCH   1   3
ATOM      3  C   UNL     1       3.053   0.770   1.325  0.00  0.00    +0.000 C 
BRANCH   3   4
ATOM      4  C   UNL     1       2.115   0.374   2.459  0.00  0.00    +0.000 A 
ATOM      5  C   UNL     1       0.744   0.199   2.341  0.00  0.00    +0.000 A 
ATOM      6  S   UNL     1      -0.016  -0.247   3.804  0.00  0.00    +0.000 S 
ATOM      7  C   UNL     1       1.461  -0.211   4.650  0.00  0.00    +0.000 A 
ATOM      8  N   UNL     1       1.523  -0.508   5.976  0.00  0.00    +0.000 NA
ATOM      9  C   UNL     1       2.710  -0.438   6.479  0.00  0.00    +0.000 A 
ATOM     10  N   UNL     1       3.840  -0.096   5.779  0.00  0.00    +0.000 N 
ATOM     11  C   UNL     1       3.830   0.218   4.438  0.00  0.00    +0.000 A 
ATOM     12  O   UNL     1       4.862   0.520   3.843  0.00  0.00    +0.000 OA
ATOM     13  C   UNL     1       2.515   0.140   3.825  0.00  0.00    +0.000 A 
ATOM     14  H   UNL     1       4.738  -0.058   6.238  0.00  0.00    +0.000 HD
ENDBRANCH   3   4
BRANCH   3  15
ATOM     15  C   UNL     1       3.145   2.323   1.167  0.00  0.00    +0.000 C 
BRANCH  15  16
ATOM     16  N   UNL     1       3.651   3.042   2.343  0.00  0.00    +0.000 NA
ATOM     17  H   UNL     1       3.846   4.008   2.084  0.00  0.00    +0.000 HD
ATOM     18  H   UNL     1       4.540   2.629   2.633  0.00  0.00    +0.000 HD
ENDBRANCH  15  16
ENDBRANCH   3  15
ENDBRANCH   1   3
BRANCH   1  19
ATOM     19  C   UNL     1       3.425   0.285  -1.054  0.00  0.00    +0.000 C 
BRANCH  19  20
ATOM     20  C   UNL     1       2.860  -0.415  -2.266  0.00  0.00    +0.000 A 
ATOM     21  C   UNL     1       1.575  -0.096  -2.730  0.00  0.00    +0.000 A 
ATOM     22  C   UNL     1       1.069  -0.694  -3.883  0.00  0.00    +0.000 A 
ATOM     23  C   UNL     1       1.841  -1.614  -4.606  0.00  0.00    +0.000 A 
ATOM     24  C   UNL     1       3.120  -1.941  -4.137  0.00  0.00    +0.000 A 
ATOM     25  C   UNL     1       3.625  -1.348  -2.978  0.00  0.00    +0.000 A 
BRANCH  23  26
ATOM     26  C   UNL     1       1.306  -2.218  -5.883  0.00  0.00    +0.000 C 
BRANCH  26  27
ATOM     27  N   UNL     1       1.063  -1.165  -6.868  0.00  0.00    +0.000 NA
ATOM     28  H   UNL     1       1.950  -0.694  -7.047  0.00  0.00    +0.000 HD
BRANCH  27  29
ATOM     29  C   UNL     1       0.565  -1.713  -8.124  0.00  0.00    +0.000 C 
BRANCH  29  30
ATOM     30  C   UNL     1       0.298  -0.597  -9.062  0.00  0.00    +0.000 A 
ATOM     31  C   UNL     1       0.345  -0.498 -10.436  0.00  0.00    +0.000 A 
ATOM     32  N   UNL     1       0.016   0.769 -10.848  0.00  0.00    +0.000 NA
ATOM     33  C   UNL     1      -0.233   1.439  -9.747  0.00  0.00    +0.000 A 
ATOM     34  N   UNL     1      -0.093   0.653  -8.643  0.00  0.00    +0.000 N 
ATOM     35  H   UNL     1      -0.206   0.927  -7.676  0.00  0.00    +0.000 HD
ENDBRANCH  29  30
ENDBRANCH  27  29
ENDBRANCH  26  27
ENDBRANCH  23  26
ENDBRANCH  19  20
ENDBRANCH   1  19
TORSDOF 10
