REMARK  Name = 
REMARK  10 active torsions:
REMARK  status: ('A' for Active; 'I' for Inactive)
REMARK    1  A    between atoms: N_1  and  C_2
REMARK    2  A    between atoms: C_2  and  C_3
REMARK    3  A    between atoms: C_3  and  N_4
REMARK    4  A    between atoms: N_4  and  C_5
REMARK    5  A    between atoms: N_4  and  C_12
REMARK    6  A    between atoms: C_5  and  C_6
REMARK    7  A    between atoms: C_12  and  C_13
REMARK    8  A    between atoms: C_16  and  C_17
REMARK    9  A    between atoms: C_17  and  N_18
REMARK   10  A    between atoms: C_19  and  C_21
REMARK                            x       y       z     vdW  Elec       q    Type
REMARK                         _______ _______ _______ _____ _____    ______ ____
ROOT
ATOM      1  C   UNL     1       6.361  -0.960   2.783  0.00  0.00    +0.000 A 
ATOM      2  C   UNL     1       7.029   0.201   3.152  0.00  0.00    +0.000 A 
ATOM      3  C   UNL     1       8.417   0.215   3.119  0.00  0.00    +0.000 A 
ATOM      4  C   UNL     1       9.085  -0.940   2.741  0.00  0.00    +0.000 A 
ATOM      5  N   UNL     1       8.410  -2.065   2.409  0.00  0.00    +0.000 NA
ATOM      6  N   UNL     1       7.041  -2.074   2.430  0.00  0.00    +0.000 NA
ENDROOT
BRANCH   1   7
ATOM      7  C   UNL     1       4.848  -0.995   2.681  0.00  0.00    +0.000 C 
BRANCH   7   8
ATOM      8  N   UNL     1       4.284  -0.001   1.720  0.00  0.00    +0.000 NA
BRANCH   8   9
ATOM      9  C   UNL     1       4.772  -0.324   0.349  0.00  0.00    +0.000 C 
BRANCH   9  10
ATOM     10  C   UNL     1       4.356   0.678  -0.753  0.00  0.00    +0.000 C 
BRANCH  10  11
ATOM     11  N   UNL     1       4.933   0.322  -2.054  0.00  0.00    +0.000 NA
ATOM     12  H   UNL     1       4.642   1.009  -2.747  0.00  0.00    +0.000 HD
ATOM     13  H   UNL     1       4.553  -0.573  -2.360  0.00  0.00    +0.000 HD
ENDBRANCH  10  11
ENDBRANCH   9  10
ENDBRANCH   8   9
BRANCH   8  14
ATOM     14  C   UNL     1       2.803  -0.058   1.756  0.00  0.00    +0.000 C 
BRANCH  14  15
ATOM     15  C   UNL     1       2.135   0.307   3.072  0.00  0.00    +0.000 A 
ATOM     16  C   UNL     1       2.330   1.559   3.655  0.00  0.00    +0.000 A 
ATOM     17  C   UNL     1       1.586   1.899   4.783  0.00  0.00    +0.000 A 
ATOM     18  C   UNL     1       0.675   0.986   5.302  0.00  0.00    +0.000 A 
ATOM     19  C   UNL     1       0.560  -0.244   4.680  0.00  0.00    +0.000 A 
ATOM     20  N   UNL     1       1.265  -0.602   3.585  0.00  0.00    +0.000 NA
ENDBRANCH  14  15
ENDBRANCH   8  14
ENDBRANCH   7   8
ENDBRANCH   1   7
BRANCH   4  21
ATOM     21  C   UNL     1      10.585  -0.975   2.640  0.00  0.00    +0.000 C 
BRANCH  21  22
ATOM     22  N   UNL     1      11.058  -0.617   1.320  0.00  0.00    +0.000 N 
ATOM     23  C   UNL     1      11.504   0.639   1.007  0.00  0.00    +0.000 C 
ATOM     24  O   UNL     1      11.537   1.542   1.840  0.00  0.00    +0.000 OA
ATOM     25  H   UNL     1      10.835  -1.273   0.576  0.00  0.00    +0.000 HD
BRANCH  23  26
ATOM     26  C   UNL     1      12.012   0.836  -0.358  0.00  0.00    +0.000 A 
ATOM     27  C   UNL     1      12.891   1.879  -0.619  0.00  0.00    +0.000 A 
ATOM     28  S   UNL     1      13.422   1.942  -2.238  0.00  0.00    +0.000 S 
ATOM     29  C   UNL     1      12.456   0.608  -2.663  0.00  0.00    +0.000 A 
ATOM     30  N   UNL     1      12.424   0.150  -3.943  0.00  0.00    +0.000 NA
ATOM     31  C   UNL     1      11.626  -0.849  -4.131  0.00  0.00    +0.000 A 
ATOM     32  N   UNL     1      10.863  -1.433  -3.154  0.00  0.00    +0.000 N 
ATOM     33  C   UNL     1      10.911  -1.044  -1.837  0.00  0.00    +0.000 A 
ATOM     34  O   UNL     1      10.305  -1.658  -0.967  0.00  0.00    +0.000 OA
ATOM     35  C   UNL     1      11.765   0.102  -1.576  0.00  0.00    +0.000 A 
ATOM     36  H   UNL     1      10.272  -2.225  -3.361  0.00  0.00    +0.000 HD
ENDBRANCH  23  26
ENDBRANCH  21  22
ENDBRANCH   4  21
TORSDOF 10
