REMARK  Name = 
REMARK  8 active torsions:
REMARK  status: ('A' for Active; 'I' for Inactive)
REMARK    1  A    between atoms: N_1  and  C_2
REMARK    2  A    between atoms: C_2  and  C_3
REMARK    3  A    between atoms: C_2  and  C_17
REMARK    4  A    between atoms: C_3  and  N_4
REMARK    5  A    between atoms: C_5  and  C_7
REMARK    6  A    between atoms: C_20  and  C_21
REMARK    7  A    between atoms: C_21  and  N_22
REMARK    8  A    between atoms: C_23  and  C_25
REMARK                            x       y       z     vdW  Elec       q    Type
REMARK                         _______ _______ _______ _____ _____    ______ ____
ROOT
ATOM      1  C   UNL     1       2.509  -0.131  -0.081  0.00  0.00    +0.000 C 
ENDROOT
BRANCH   1   2
ATOM      2  C   UNL     1       2.975   0.945  -1.058  0.00  0.00    +0.000 A 
ATOM      3  C   UNL     1       2.537   2.273  -0.886  0.00  0.00    +0.000 A 
ATOM      4  C   UNL     1       2.884   3.279  -1.781  0.00  0.00    +0.000 A 
ATOM      5  C   UNL     1       3.701   2.998  -2.879  0.00  0.00    +0.000 A 
ATOM      6  C   UNL     1       4.219   1.704  -3.014  0.00  0.00    +0.000 A 
ATOM      7  C   UNL     1       3.859   0.690  -2.117  0.00  0.00    +0.000 A 
BRANCH   5   8
ATOM      8  C   UNL     1       4.004   4.055  -3.902  0.00  0.00    +0.000 C 
BRANCH   8   9
ATOM      9  N   UNL     1       5.189   4.807  -3.578  0.00  0.00    +0.000 N 
ATOM     10  C   UNL     1       5.646   5.788  -4.428  0.00  0.00    +0.000 C 
ATOM     11  O   UNL     1       5.077   6.069  -5.481  0.00  0.00    +0.000 OA
ATOM     12  H   UNL     1       5.609   4.675  -2.668  0.00  0.00    +0.000 HD
BRANCH  10  13
ATOM     13  C   UNL     1       6.890   6.518  -3.928  0.00  0.00    +0.000 C 
ATOM     14  C   UNL     1       7.336   7.601  -4.920  0.00  0.00    +0.000 C 
ATOM     15  C   UNL     1       8.668   8.212  -4.509  0.00  0.00    +0.000 C 
ATOM     16  O   UNL     1       9.661   7.202  -4.339  0.00  0.00    +0.000 OA
ATOM     17  C   UNL     1       9.316   6.276  -3.314  0.00  0.00    +0.000 C 
ATOM     18  C   UNL     1       8.037   5.535  -3.671  0.00  0.00    +0.000 C 
ENDBRANCH  10  13
ENDBRANCH   8   9
ENDBRANCH   5   8
ENDBRANCH   1   2
BRANCH   1  19
ATOM     19  N   UNL     1       1.155   0.186   0.425  0.00  0.00    +0.000 NA
ATOM     20  H   UNL     1       0.828  -0.593   0.994  0.00  0.00    +0.000 HD
ATOM     21  H   UNL     1       0.517   0.183  -0.375  0.00  0.00    +0.000 HD
ENDBRANCH   1  19
BRANCH   1  22
ATOM     22  C   UNL     1       2.549  -1.578  -0.649  0.00  0.00    +0.000 C 
BRANCH  22  23
ATOM     23  N   UNL     1       2.177  -2.579   0.338  0.00  0.00    +0.000 N 
ATOM     24  C   UNL     1       0.890  -3.021   0.490  0.00  0.00    +0.000 C 
ATOM     25  O   UNL     1      -0.027  -2.619  -0.220  0.00  0.00    +0.000 OA
ATOM     26  H   UNL     1       2.859  -2.776   1.065  0.00  0.00    +0.000 HD
BRANCH  24  27
ATOM     27  C   UNL     1       0.662  -4.008   1.543  0.00  0.00    +0.000 A 
ATOM     28  C   UNL     1      -0.396  -4.897   1.429  0.00  0.00    +0.000 A 
ATOM     29  S   UNL     1      -0.538  -5.955   2.757  0.00  0.00    +0.000 S 
ATOM     30  C   UNL     1       0.785  -5.232   3.546  0.00  0.00    +0.000 A 
ATOM     31  N   UNL     1       1.171  -5.640   4.784  0.00  0.00    +0.000 NA
ATOM     32  C   UNL     1       2.164  -4.980   5.278  0.00  0.00    +0.000 A 
ATOM     33  N   UNL     1       2.823  -3.962   4.638  0.00  0.00    +0.000 N 
ATOM     34  C   UNL     1       2.512  -3.562   3.360  0.00  0.00    +0.000 A 
ATOM     35  O   UNL     1       3.194  -2.734   2.763  0.00  0.00    +0.000 OA
ATOM     36  C   UNL     1       1.360  -4.230   2.785  0.00  0.00    +0.000 A 
ATOM     37  H   UNL     1       3.619  -3.514   5.067  0.00  0.00    +0.000 HD
ENDBRANCH  24  27
ENDBRANCH  22  23
ENDBRANCH   1  22
TORSDOF 8
