REMARK  Name = 
REMARK  8 active torsions:
REMARK  status: ('A' for Active; 'I' for Inactive)
REMARK    1  A    between atoms: C_2  and  C_5
REMARK    2  A    between atoms: N_3  and  O_4
REMARK    3  A    between atoms: C_8  and  N_9
REMARK    4  A    between atoms: N_9  and  C_10
REMARK    5  A    between atoms: C_10  and  C_11
REMARK    6  A    between atoms: C_11  and  C_14
REMARK    7  A    between atoms: C_19  and  O_20
REMARK    8  A    between atoms: O_20  and  C_21
REMARK                            x       y       z     vdW  Elec       q    Type
REMARK                         _______ _______ _______ _____ _____    ______ ____
ROOT
ATOM      1  C   UNL     1       5.669   3.545  -4.463  0.00  0.00    +0.000 C 
ENDROOT
BRANCH   1   2
ATOM      2  C   UNL     1       6.165   4.687  -5.388  0.00  0.00    +0.000 C 
ATOM      3  F   UNL     1       5.061   5.233  -5.987  0.00  0.00    +0.000 F 
ATOM      4  F   UNL     1       6.662   5.685  -4.593  0.00  0.00    +0.000 F 
BRANCH   2   5
ATOM      5  C   UNL     1       7.176   4.213  -6.412  0.00  0.00    +0.000 A 
ATOM      6  C   UNL     1       8.548   4.315  -6.152  0.00  0.00    +0.000 A 
ATOM      7  C   UNL     1       9.466   3.844  -7.085  0.00  0.00    +0.000 A 
ATOM      8  F   UNL     1      10.775   3.948  -6.823  0.00  0.00    +0.000 F 
ATOM      9  C   UNL     1       9.049   3.264  -8.276  0.00  0.00    +0.000 A 
ATOM     10  C   UNL     1       7.686   3.152  -8.545  0.00  0.00    +0.000 A 
ATOM     11  C   UNL     1       6.751   3.646  -7.626  0.00  0.00    +0.000 A 
BRANCH  10  12
ATOM     12  O   UNL     1       7.355   2.562  -9.741  0.00  0.00    +0.000 OA
BRANCH  12  13
ATOM     13  C   UNL     1       6.058   1.933  -9.865  0.00  0.00    +0.000 C 
ATOM     14  C   UNL     1       5.803   0.675  -9.000  0.00  0.00    +0.000 C 
ATOM     15  C   UNL     1       5.188  -0.010 -10.228  0.00  0.00    +0.000 C 
ATOM     16  C   UNL     1       5.891   1.031 -11.112  0.00  0.00    +0.000 C 
ENDBRANCH  12  13
ENDBRANCH  10  12
ENDBRANCH   2   5
ENDBRANCH   1   2
BRANCH   1  17
ATOM     17  N   UNL     1       6.732   2.880  -3.676  0.00  0.00    +0.000 N 
ATOM     18  H   UNL     1       7.379   3.538  -3.239  0.00  0.00    +0.000 HD
BRANCH  17  22
ATOM     19  C   UNL     1       5.913  -0.416  -1.143  0.00  0.00    +0.000 A 
ATOM     20  C   UNL     1       7.190   0.147  -1.217  0.00  0.00    +0.000 A 
ATOM     21  C   UNL     1       7.427   1.247  -2.054  0.00  0.00    +0.000 A 
ATOM     22  C   UNL     1       6.396   1.828  -2.812  0.00  0.00    +0.000 A 
ATOM     23  C   UNL     1       5.128   1.225  -2.723  0.00  0.00    +0.000 A 
ATOM     24  F   UNL     1       4.084   1.710  -3.414  0.00  0.00    +0.000 F 
ATOM     25  C   UNL     1       4.877   0.131  -1.896  0.00  0.00    +0.000 A 
BRANCH  19  27
ATOM     26  O   UNL     1       6.335  -1.706   0.796  0.00  0.00    +0.000 OA
ATOM     27  C   UNL     1       5.675  -1.561  -0.230  0.00  0.00    +0.000 C 
ATOM     28  N   UNL     1       4.700  -2.456  -0.612  0.00  0.00    +0.000 N 
ATOM     29  H   UNL     1       4.406  -2.567  -1.577  0.00  0.00    +0.000 HD
BRANCH  28  30
ATOM     30  O   UNL     1       4.574  -3.599   0.212  0.00  0.00    +0.000 OA
ATOM     31  H   UNL     1       5.203  -3.401   0.941  0.00  0.00    +0.000 HD
ENDBRANCH  28  30
ENDBRANCH  19  27
ENDBRANCH  17  22
ENDBRANCH   1  17
TORSDOF 8
