REMARK  Name = 
REMARK  8 active torsions:
REMARK  status: ('A' for Active; 'I' for Inactive)
REMARK    1  A    between atoms: C_1  and  N_2
REMARK    2  A    between atoms: N_5  and  C_6
REMARK    3  A    between atoms: C_10  and  C_11
REMARK    4  A    between atoms: C_11  and  C_12
REMARK    5  A    between atoms: C_11  and  C_13
REMARK    6  A    between atoms: C_11  and  C_14
REMARK    7  A    between atoms: C_14  and  N_15
REMARK    8  A    between atoms: C_19  and  C_20
REMARK                            x       y       z     vdW  Elec       q    Type
REMARK                         _______ _______ _______ _____ _____    ______ ____
ROOT
ATOM      1  C   UNL     1      -6.639   1.096   0.104  0.00  0.00    +0.000 C 
ATOM      2  C   UNL     1      -7.720   0.004  -0.044  0.00  0.00    +0.000 C 
ATOM      3  C   UNL     1      -7.205   2.227   0.999  0.00  0.00    +0.000 C 
ENDROOT
BRANCH   1   8
ATOM      4  C   UNL     1      -4.245  -0.564   2.611  0.00  0.00    +0.000 A 
ATOM      5  C   UNL     1      -3.070  -0.470   1.866  0.00  0.00    +0.000 A 
ATOM      6  C   UNL     1      -3.099   0.132   0.628  0.00  0.00    +0.000 A 
ATOM      7  N   UNL     1      -4.215   0.640   0.081  0.00  0.00    +0.000 NA
ATOM      8  C   UNL     1      -5.376   0.531   0.763  0.00  0.00    +0.000 A 
ATOM      9  C   UNL     1      -5.414  -0.054   2.032  0.00  0.00    +0.000 A 
BRANCH   4  14
ATOM     10  C   UNL     1      -3.236  -2.152   7.867  0.00  0.00    +0.000 C 
ATOM     11  N   UNL     1      -3.921  -2.143   6.577  0.00  0.00    +0.000 NA
ATOM     12  C   UNL     1      -4.499  -0.804   6.307  0.00  0.00    +0.000 C 
ATOM     13  C   UNL     1      -5.179  -0.714   4.919  0.00  0.00    +0.000 C 
ATOM     14  N   UNL     1      -4.199  -1.086   3.891  0.00  0.00    +0.000 N 
ATOM     15  C   UNL     1      -3.625  -2.429   4.089  0.00  0.00    +0.000 C 
ATOM     16  C   UNL     1      -2.978  -2.502   5.490  0.00  0.00    +0.000 C 
ENDBRANCH   4  14
ENDBRANCH   1   8
BRANCH   1  17
ATOM     17  C   UNL     1      -6.354   1.735  -1.291  0.00  0.00    +0.000 C 
BRANCH  17  18
ATOM     18  N   UNL     1      -5.891   0.782  -2.308  0.00  0.00    +0.000 N 
ATOM     19  C   UNL     1      -5.592   1.361  -3.543  0.00  0.00    +0.000 A 
ATOM     20  C   UNL     1      -5.043   0.563  -4.545  0.00  0.00    +0.000 A 
ATOM     21  C   UNL     1      -4.741   1.131  -5.783  0.00  0.00    +0.000 A 
ATOM     22  C   UNL     1      -4.983   2.487  -5.998  0.00  0.00    +0.000 A 
ATOM     23  C   UNL     1      -5.506   3.209  -4.939  0.00  0.00    +0.000 A 
ATOM     24  N   UNL     1      -5.811   2.677  -3.735  0.00  0.00    +0.000 NA
ATOM     25  H   UNL     1      -6.476  -0.034  -2.425  0.00  0.00    +0.000 HD
BRANCH  22  26
ATOM     26  C   UNL     1      -4.688   3.091  -7.319  0.00  0.00    +0.000 C 
ATOM     27  N   UNL     1      -4.932   4.424  -7.508  0.00  0.00    +0.000 N 
ATOM     28  O   UNL     1      -4.241   2.412  -8.235  0.00  0.00    +0.000 OA
ATOM     29  H   UNL     1      -5.291   5.069  -6.826  0.00  0.00    +0.000 HD
ATOM     30  H   UNL     1      -4.723   4.789  -8.431  0.00  0.00    +0.000 HD
ENDBRANCH  22  26
ENDBRANCH  17  18
ENDBRANCH   1  17
TORSDOF 5
