REMARK  Name = 
REMARK  3 active torsions:
REMARK  status: ('A' for Active; 'I' for Inactive)
REMARK    1  A    between atoms: C_2  and  C_4
REMARK    2  A    between atoms: N_8  and  C_9
REMARK    3  A    between atoms: C_9  and  C_10
REMARK                            x       y       z     vdW  Elec       q    Type
REMARK                         _______ _______ _______ _____ _____    ______ ____
ROOT
ATOM      1  C   UNL     1       3.252  -0.730  -1.075  0.00  0.00    +0.000 A 
ATOM      2  C   UNL     1       3.594  -1.884  -0.378  0.00  0.00    +0.000 A 
ATOM      3  C   UNL     1       4.218  -2.925  -1.063  0.00  0.00    +0.000 A 
ATOM      4  C   UNL     1       4.461  -2.810  -2.431  0.00  0.00    +0.000 A 
ATOM      5  N   UNL     1       5.007  -3.911  -3.075  0.00  0.00    +0.000 N 
ATOM      6  N   UNL     1       4.112  -1.709  -3.121  0.00  0.00    +0.000 NA
ATOM      7  C   UNL     1       3.519  -0.696  -2.436  0.00  0.00    +0.000 A 
ATOM      8  H   UNL     1       5.903  -4.183  -2.687  0.00  0.00    +0.000 HD
ENDROOT
BRANCH   1  10
ATOM      9  N   UNL     1       2.797   0.600   0.904  0.00  0.00    +0.000 N 
ATOM     10  C   UNL     1       2.600   0.432  -0.438  0.00  0.00    +0.000 C 
ATOM     11  O   UNL     1       1.940   1.231  -1.088  0.00  0.00    +0.000 OA
ATOM     12  H   UNL     1       2.429   1.455   1.308  0.00  0.00    +0.000 HD
ATOM     13  H   UNL     1       3.516   0.112   1.418  0.00  0.00    +0.000 HD
ENDBRANCH   1  10
BRANCH   5  14
ATOM     14  C   UNL     1       4.935  -3.984  -4.523  0.00  0.00    +0.000 C 
BRANCH  14  15
ATOM     15  C   UNL     1       4.499  -5.384  -4.867  0.00  0.00    +0.000 A 
ATOM     16  C   UNL     1       5.265  -6.220  -5.672  0.00  0.00    +0.000 A 
ATOM     17  N   UNL     1       4.930  -7.498  -5.966  0.00  0.00    +0.000 NA
ATOM     18  C   UNL     1       3.776  -7.966  -5.428  0.00  0.00    +0.000 A 
ATOM     19  C   UNL     1       2.937  -7.210  -4.627  0.00  0.00    +0.000 A 
ATOM     20 BR   UNL     1       1.360  -7.941  -3.900  0.00  0.00    +0.000 Br
ATOM     21  C   UNL     1       3.299  -5.899  -4.352  0.00  0.00    +0.000 A 
ENDBRANCH  14  15
ENDBRANCH   5  14
TORSDOF 3
