REMARK  Name = 
REMARK  6 active torsions:
REMARK  status: ('A' for Active; 'I' for Inactive)
REMARK    1  A    between atoms: C_2  and  C_3
REMARK    2  A    between atoms: C_6  and  N_7
REMARK    3  A    between atoms: N_7  and  C_8
REMARK    4  A    between atoms: C_8  and  C_9
REMARK    5  A    between atoms: C_13  and  N_14
REMARK    6  A    between atoms: C_17  and  O_18
REMARK                            x       y       z     vdW  Elec       q    Type
REMARK                         _______ _______ _______ _____ _____    ______ ____
ROOT
ATOM      1  C   UNL     1       9.691   0.188  -0.625  0.00  0.00    +0.000 A 
ATOM      2  C   UNL     1       9.725   1.228  -1.566  0.00  0.00    +0.000 A 
ATOM      3  C   UNL     1      10.449   2.386  -1.319  0.00  0.00    +0.000 A 
ATOM      4  C   UNL     1      11.187   2.500  -0.141  0.00  0.00    +0.000 A 
ATOM      5  C   UNL     1      11.268   1.450   0.784  0.00  0.00    +0.000 A 
ATOM      6  C   UNL     1      10.525   0.297   0.500  0.00  0.00    +0.000 A 
ENDROOT
BRANCH   5   7
ATOM      7  N   UNL     1      12.048   1.512   1.931  0.00  0.00    +0.000 N 
ATOM      8  C   UNL     1      13.193   2.418   1.990  0.00  0.00    +0.000 C 
ATOM      9  C   UNL     1      12.833   3.669   2.782  0.00  0.00    +0.000 C 
ATOM     10  C   UNL     1      12.284   3.309   4.160  0.00  0.00    +0.000 C 
ATOM     11  C   UNL     1      11.127   2.315   4.071  0.00  0.00    +0.000 C 
ATOM     12  C   UNL     1      11.476   1.094   3.219  0.00  0.00    +0.000 C 
BRANCH  10  13
ATOM     13  O   UNL     1      13.323   2.797   4.996  0.00  0.00    +0.000 OA
ATOM     14  H   UNL     1      13.660   1.971   4.612  0.00  0.00    +0.000 HD
ENDBRANCH  10  13
ENDBRANCH   5   7
BRANCH   1  15
ATOM     15  C   UNL     1       8.663  -0.925  -0.729  0.00  0.00    +0.000 C 
ATOM     16  C   UNL     1       7.800  -1.238   0.480  0.00  0.00    +0.000 C 
ATOM     17  C   UNL     1       7.222  -0.414  -0.621  0.00  0.00    +0.000 C 
BRANCH  15  18
ATOM     18  N   UNL     1       8.899  -1.903  -1.781  0.00  0.00    +0.000 N 
ATOM     19  H   UNL     1       8.765  -1.634  -2.749  0.00  0.00    +0.000 HD
BRANCH  18  23
ATOM     20  C   UNL     1      11.078  -5.379  -1.860  0.00  0.00    +0.000 A 
ATOM     21  C   UNL     1      10.556  -4.790  -2.993  0.00  0.00    +0.000 A 
ATOM     22  N   UNL     1       9.859  -3.626  -2.957  0.00  0.00    +0.000 NA
ATOM     23  C   UNL     1       9.679  -3.050  -1.744  0.00  0.00    +0.000 A 
ATOM     24  C   UNL     1      10.207  -3.656  -0.607  0.00  0.00    +0.000 A 
ATOM     25  N   UNL     1      10.918  -4.826  -0.631  0.00  0.00    +0.000 NA
BRANCH  20  27
ATOM     26  N   UNL     1      12.390  -7.609  -2.087  0.00  0.00    +0.000 NA
ATOM     27  C   UNL     1      11.811  -6.615  -1.952  0.00  0.00    +0.000 C 
ENDBRANCH  20  27
ENDBRANCH  18  23
ENDBRANCH  15  18
ENDBRANCH   1  15
TORSDOF 6
