REMARK  Name = 
REMARK  6 active torsions:
REMARK  status: ('A' for Active; 'I' for Inactive)
REMARK    1  A    between atoms: C_1  and  C_2
REMARK    2  A    between atoms: C_2  and  C_3
REMARK    3  A    between atoms: C_2  and  C_4
REMARK    4  A    between atoms: C_2  and  C_5
REMARK    5  A    between atoms: N_13  and  C_14
REMARK    6  A    between atoms: C_14  and  C_15
REMARK                            x       y       z     vdW  Elec       q    Type
REMARK                         _______ _______ _______ _____ _____    ______ ____
ROOT
ATOM      1  C   UNL     1       3.033   0.416  -1.254  0.00  0.00    +0.000 A 
ATOM      2  N   UNL     1       3.024   1.688  -1.641  0.00  0.00    +0.000 NA
ATOM      3  C   UNL     1       3.406   1.703  -2.946  0.00  0.00    +0.000 A 
ATOM      4  N   UNL     1       3.537   2.798  -3.740  0.00  0.00    +0.000 NA
ATOM      5  C   UNL     1       3.931   2.482  -4.991  0.00  0.00    +0.000 A 
ATOM      6  C   UNL     1       4.171   1.183  -5.432  0.00  0.00    +0.000 A 
ATOM      7  N   UNL     1       4.045   0.075  -4.653  0.00  0.00    +0.000 NA
ATOM      8  C   UNL     1       3.653   0.418  -3.402  0.00  0.00    +0.000 A 
ATOM      9  N   UNL     1       3.457  -0.392  -2.305  0.00  0.00    +0.000 N 
ENDROOT
BRANCH   1  11
ATOM     10  C   UNL     1       1.015  -0.305   0.016  0.00  0.00    +0.000 C 
ATOM     11  C   UNL     1       2.522  -0.007   0.124  0.00  0.00    +0.000 C 
ATOM     12  C   UNL     1       2.723   1.176   1.105  0.00  0.00    +0.000 C 
ATOM     13  C   UNL     1       3.230  -1.206   0.768  0.00  0.00    +0.000 C 
ENDBRANCH   1  11
BRANCH   9  14
ATOM     14  C   UNL     1       3.680  -1.831  -2.336  0.00  0.00    +0.000 C 
BRANCH  14  15
ATOM     15  C   UNL     1       5.064  -2.229  -1.857  0.00  0.00    +0.000 A 
ATOM     16  C   UNL     1       5.243  -3.440  -1.166  0.00  0.00    +0.000 A 
ATOM     17  C   UNL     1       6.498  -3.801  -0.667  0.00  0.00    +0.000 A 
ATOM     18  C   UNL     1       7.598  -2.972  -0.874  0.00  0.00    +0.000 A 
ATOM     19  C   UNL     1       7.452  -1.799  -1.606  0.00  0.00    +0.000 A 
ATOM     20  C   UNL     1       6.199  -1.439  -2.105  0.00  0.00    +0.000 A 
ENDBRANCH  14  15
ENDBRANCH   9  14
TORSDOF 3
