REMARK  Name = 
REMARK  6 active torsions:
REMARK  status: ('A' for Active; 'I' for Inactive)
REMARK    1  A    between atoms: C_1  and  C_2
REMARK    2  A    between atoms: C_5  and  O_6
REMARK    3  A    between atoms: O_6  and  C_7
REMARK    4  A    between atoms: C_10  and  C_11
REMARK    5  A    between atoms: C_11  and  N_12
REMARK    6  A    between atoms: C_13  and  C_15
REMARK                            x       y       z     vdW  Elec       q    Type
REMARK                         _______ _______ _______ _____ _____    ______ ____
ROOT
ATOM      1  C   UNL     1      -6.569  -4.427   0.103  0.00  0.00    +0.000 C 
ENDROOT
BRANCH   1   5
ATOM      2  C   UNL     1      -4.007  -0.956   0.026  0.00  0.00    +0.000 A 
ATOM      3  C   UNL     1      -4.025  -1.789   1.146  0.00  0.00    +0.000 A 
ATOM      4  C   UNL     1      -4.851  -2.916   1.170  0.00  0.00    +0.000 A 
ATOM      5  C   UNL     1      -5.705  -3.195   0.095  0.00  0.00    +0.000 A 
ATOM      6  C   UNL     1      -5.759  -2.295  -0.978  0.00  0.00    +0.000 A 
ATOM      7  C   UNL     1      -4.909  -1.187  -1.015  0.00  0.00    +0.000 A 
BRANCH   2   8
ATOM      8  O   UNL     1      -3.191   0.143  -0.113  0.00  0.00    +0.000 OA
BRANCH   8  13
ATOM      9  C   UNL     1       1.958   0.590   2.101  0.00  0.00    +0.000 C 
ATOM     10  C   UNL     1       0.598   0.402   1.500  0.00  0.00    +0.000 A 
ATOM     11  C   UNL     1       0.156  -0.862   1.118  0.00  0.00    +0.000 A 
ATOM     12  C   UNL     1      -1.109  -0.992   0.544  0.00  0.00    +0.000 A 
ATOM     13  C   UNL     1      -1.923   0.130   0.412  0.00  0.00    +0.000 A 
ATOM     14  C   UNL     1      -1.386   1.354   0.786  0.00  0.00    +0.000 A 
ATOM     15  N   UNL     1      -0.152   1.515   1.326  0.00  0.00    +0.000 NA
ENDBRANCH   8  13
ENDBRANCH   2   8
ENDBRANCH   1   5
BRANCH   1  16
ATOM     16  N   UNL     1      -7.832  -4.188   0.749  0.00  0.00    +0.000 N 
ATOM     17  C   UNL     1      -8.714  -5.219   0.951  0.00  0.00    +0.000 C 
ATOM     18  O   UNL     1      -8.435  -6.376   0.646  0.00  0.00    +0.000 OA
ATOM     19  H   UNL     1      -8.155  -3.226   0.808  0.00  0.00    +0.000 HD
BRANCH  17  20
ATOM     20  C   UNL     1      -9.988  -4.888   1.600  0.00  0.00    +0.000 A 
ATOM     21  C   UNL     1     -10.703  -5.890   2.244  0.00  0.00    +0.000 A 
ATOM     22  S   UNL     1     -12.142  -5.344   2.973  0.00  0.00    +0.000 S 
ATOM     23  C   UNL     1     -11.890  -3.759   2.411  0.00  0.00    +0.000 A 
ATOM     24  N   UNL     1     -12.791  -2.775   2.670  0.00  0.00    +0.000 NA
ATOM     25  C   UNL     1     -12.490  -1.629   2.162  0.00  0.00    +0.000 A 
ATOM     26  N   UNL     1     -11.364  -1.373   1.424  0.00  0.00    +0.000 N 
ATOM     27  C   UNL     1     -10.407  -2.327   1.164  0.00  0.00    +0.000 A 
ATOM     28  O   UNL     1      -9.386  -2.054   0.543  0.00  0.00    +0.000 OA
ATOM     29  C   UNL     1     -10.709  -3.643   1.700  0.00  0.00    +0.000 A 
ATOM     30  H   UNL     1     -11.182  -0.449   1.062  0.00  0.00    +0.000 HD
ENDBRANCH  17  20
ENDBRANCH   1  16
TORSDOF 5
