REMARK  Name = 
REMARK  9 active torsions:
REMARK  status: ('A' for Active; 'I' for Inactive)
REMARK    1  A    between atoms: C_1  and  C_2
REMARK    2  A    between atoms: C_2  and  N_3
REMARK    3  A    between atoms: C_2  and  C_19
REMARK    4  A    between atoms: N_3  and  C_4
REMARK    5  A    between atoms: C_4  and  C_5
REMARK    6  A    between atoms: C_8  and  C_9
REMARK    7  A    between atoms: C_9  and  N_10
REMARK    8  A    between atoms: N_10  and  C_11
REMARK    9  A    between atoms: C_11  and  C_12
REMARK                            x       y       z     vdW  Elec       q    Type
REMARK                         _______ _______ _______ _____ _____    ______ ____
ROOT
ATOM      1  C   UNL     1       2.555   2.231  -0.974  0.00  0.00    +0.000 C 
ENDROOT
BRANCH   1   2
ATOM      2  C   UNL     1       2.989   3.659  -0.753  0.00  0.00    +0.000 A 
ATOM      3  C   UNL     1       2.153   4.736  -1.067  0.00  0.00    +0.000 A 
ATOM      4  C   UNL     1       2.587   6.043  -0.852  0.00  0.00    +0.000 A 
ATOM      5  C   UNL     1       3.857   6.254  -0.324  0.00  0.00    +0.000 A 
ATOM      6  N   UNL     1       4.695   5.231  -0.020  0.00  0.00    +0.000 NA
ATOM      7  C   UNL     1       4.245   3.972  -0.241  0.00  0.00    +0.000 A 
BRANCH   5   8
ATOM      8  C   UNL     1       4.370   7.663  -0.095  0.00  0.00    +0.000 C 
BRANCH   8   9
ATOM      9  N   UNL     1       5.636   7.962  -0.782  0.00  0.00    +0.000 NA
ATOM     10  H   UNL     1       6.289   7.213  -0.531  0.00  0.00    +0.000 HD
BRANCH   9  11
ATOM     11  C   UNL     1       5.479   7.920  -2.242  0.00  0.00    +0.000 C 
BRANCH  11  12
ATOM     12  C   UNL     1       6.793   8.250  -2.887  0.00  0.00    +0.000 A 
ATOM     13  C   UNL     1       7.533   9.454  -2.787  0.00  0.00    +0.000 A 
ATOM     14  C   UNL     1       8.652   9.255  -3.556  0.00  0.00    +0.000 A 
ATOM     15  N   UNL     1       8.533   7.992  -4.059  0.00  0.00    +0.000 N 
ATOM     16  N   UNL     1       7.414   7.361  -3.682  0.00  0.00    +0.000 NA
ATOM     17  H   UNL     1       9.179   7.498  -4.668  0.00  0.00    +0.000 HD
ENDBRANCH  11  12
ENDBRANCH   9  11
ENDBRANCH   8   9
ENDBRANCH   5   8
ENDBRANCH   1   2
BRANCH   1  18
ATOM     18  N   UNL     1       2.443   1.504   0.289  0.00  0.00    +0.000 NA
ATOM     19  H   UNL     1       3.350   1.509   0.754  0.00  0.00    +0.000 HD
BRANCH  18  21
ATOM     20  C   UNL     1       0.618  -0.037  -0.460  0.00  0.00    +0.000 C 
ATOM     21  C   UNL     1       2.016   0.101   0.157  0.00  0.00    +0.000 C 
BRANCH  21  22
ATOM     22  C   UNL     1       2.041  -0.467   1.568  0.00  0.00    +0.000 A 
ATOM     23  C   UNL     1       1.273   0.044   2.604  0.00  0.00    +0.000 A 
ATOM     24  S   UNL     1       1.553  -0.710   4.106  0.00  0.00    +0.000 S 
ATOM     25  C   UNL     1       2.713  -1.752   3.425  0.00  0.00    +0.000 A 
ATOM     26  N   UNL     1       3.388  -2.642   4.201  0.00  0.00    +0.000 NA
ATOM     27  C   UNL     1       4.239  -3.369   3.555  0.00  0.00    +0.000 A 
ATOM     28  N   UNL     1       4.461  -3.301   2.203  0.00  0.00    +0.000 N 
ATOM     29  C   UNL     1       3.772  -2.440   1.369  0.00  0.00    +0.000 A 
ATOM     30  O   UNL     1       3.937  -2.461   0.154  0.00  0.00    +0.000 OA
ATOM     31  C   UNL     1       2.848  -1.558   2.062  0.00  0.00    +0.000 A 
ATOM     32  H   UNL     1       5.115  -3.926   1.758  0.00  0.00    +0.000 HD
ENDBRANCH  21  22
ENDBRANCH  18  21
ENDBRANCH   1  18
TORSDOF 8
