REMARK  Name = 
REMARK  10 active torsions:
REMARK  status: ('A' for Active; 'I' for Inactive)
REMARK    1  A    between atoms: C_1  and  O_2
REMARK    2  A    between atoms: O_2  and  C_3
REMARK    3  A    between atoms: C_10  and  C_11
REMARK    4  A    between atoms: N_13  and  C_14
REMARK    5  A    between atoms: C_14  and  C_15
REMARK    6  A    between atoms: C_18  and  C_19
REMARK    7  A    between atoms: C_19  and  N_20
REMARK    8  A    between atoms: N_20  and  C_21
REMARK    9  A    between atoms: C_21  and  C_22
REMARK   10  A    between atoms: C_21  and  C_23
REMARK                            x       y       z     vdW  Elec       q    Type
REMARK                         _______ _______ _______ _____ _____    ______ ____
ROOT
ATOM      1  C   UNL     1       1.574   1.954  -2.451  0.00  0.00    +0.000 A 
ATOM      2  C   UNL     1       1.605   0.580  -2.725  0.00  0.00    +0.000 A 
ATOM      3  C   UNL     1       0.469  -0.074  -3.214  0.00  0.00    +0.000 A 
ATOM      4  C   UNL     1      -0.723   0.630  -3.447  0.00  0.00    +0.000 A 
ATOM      5  C   UNL     1      -0.737   2.011  -3.214  0.00  0.00    +0.000 A 
ATOM      6  C   UNL     1       0.400   2.666  -2.726  0.00  0.00    +0.000 A 
ENDROOT
BRANCH   1   7
ATOM      7  C   UNL     1       2.792   2.659  -1.906  0.00  0.00    +0.000 C 
BRANCH   7  10
ATOM      8  C   UNL     1       4.807   3.801  -2.740  0.00  0.00    +0.000 C 
ATOM      9  O   UNL     1       5.221   3.979  -1.597  0.00  0.00    +0.000 OA
ATOM     10  N   UNL     1       3.618   3.166  -2.972  0.00  0.00    +0.000 N 
ATOM     11  H   UNL     1       3.271   3.068  -3.915  0.00  0.00    +0.000 HD
BRANCH   8  19
ATOM     12  C   UNL     1       4.327   3.503  -6.137  0.00  0.00    +0.000 A 
ATOM     13  N   UNL     1       4.383   3.535  -7.483  0.00  0.00    +0.000 NA
ATOM     14  C   UNL     1       5.424   4.149  -8.052  0.00  0.00    +0.000 A 
ATOM     15  N   UNL     1       6.437   4.749  -7.434  0.00  0.00    +0.000 NA
ATOM     16  C   UNL     1       6.337   4.702  -6.094  0.00  0.00    +0.000 A 
ATOM     17  S   UNL     1       7.544   5.419  -5.140  0.00  0.00    +0.000 S 
ATOM     18  C   UNL     1       6.753   4.960  -3.708  0.00  0.00    +0.000 A 
ATOM     19  C   UNL     1       5.569   4.262  -3.916  0.00  0.00    +0.000 A 
ATOM     20  C   UNL     1       5.322   4.109  -5.349  0.00  0.00    +0.000 A 
BRANCH  12  22
ATOM     21  C   UNL     1       2.624   1.915  -6.379  0.00  0.00    +0.000 C 
ATOM     22  O   UNL     1       3.238   2.897  -5.548  0.00  0.00    +0.000 OA
ENDBRANCH  12  22
ENDBRANCH   8  19
ENDBRANCH   7  10
ENDBRANCH   1   7
BRANCH   4  23
ATOM     23  C   UNL     1      -1.955  -0.086  -3.964  0.00  0.00    +0.000 C 
BRANCH  23  24
ATOM     24  N   UNL     1      -2.352  -1.173  -3.068  0.00  0.00    +0.000 NA
ATOM     25  H   UNL     1      -2.483  -0.781  -2.134  0.00  0.00    +0.000 HD
BRANCH  24  26
ATOM     26  C   UNL     1      -3.599  -1.846  -3.460  0.00  0.00    +0.000 C 
ATOM     27  C   UNL     1      -3.495  -2.557  -4.816  0.00  0.00    +0.000 C 
BRANCH  26  28
ATOM     28  C   UNL     1      -3.993  -2.852  -2.383  0.00  0.00    +0.000 A 
ATOM     29  C   UNL     1      -3.120  -3.886  -1.997  0.00  0.00    +0.000 A 
ATOM     30  C   UNL     1      -3.478  -4.800  -1.001  0.00  0.00    +0.000 A 
ATOM     31  C   UNL     1      -4.718  -4.694  -0.375  0.00  0.00    +0.000 A 
ATOM     32  C   UNL     1      -5.587  -3.677  -0.755  0.00  0.00    +0.000 A 
ATOM     33  F   UNL     1      -6.779  -3.574  -0.153  0.00  0.00    +0.000 F 
ATOM     34  C   UNL     1      -5.240  -2.762  -1.747  0.00  0.00    +0.000 A 
ENDBRANCH  26  28
ENDBRANCH  24  26
ENDBRANCH  23  24
ENDBRANCH   4  23
TORSDOF 8
