REMARK  Name = 
REMARK  5 active torsions:
REMARK  status: ('A' for Active; 'I' for Inactive)
REMARK    1  A    between atoms: N_1  and  C_2
REMARK    2  A    between atoms: C_2  and  C_3
REMARK    3  A    between atoms: C_6  and  O_7
REMARK    4  A    between atoms: O_7  and  C_8
REMARK    5  A    between atoms: C_8  and  C_9
REMARK                            x       y       z     vdW  Elec       q    Type
REMARK                         _______ _______ _______ _____ _____    ______ ____
ROOT
ATOM      1  C   UNL     1       2.907   1.090   0.751  0.00  0.00    +0.000 A 
ATOM      2  C   UNL     1       2.781   2.401   0.271  0.00  0.00    +0.000 A 
ATOM      3  C   UNL     1       3.056   3.492   1.103  0.00  0.00    +0.000 A 
ATOM      4  C   UNL     1       3.443   3.286   2.428  0.00  0.00    +0.000 A 
ATOM      5  C   UNL     1       3.638   1.982   2.888  0.00  0.00    +0.000 A 
ATOM      6  C   UNL     1       3.358   0.893   2.061  0.00  0.00    +0.000 A 
ENDROOT
BRANCH   1   7
ATOM      7  C   UNL     1       2.535  -0.092  -0.108  0.00  0.00    +0.000 C 
BRANCH   7   8
ATOM      8  N   UNL     1       3.346  -0.161  -1.315  0.00  0.00    +0.000 NA
ATOM      9  H   UNL     1       3.160  -1.044  -1.787  0.00  0.00    +0.000 HD
ATOM     10  H   UNL     1       4.329  -0.179  -1.048  0.00  0.00    +0.000 HD
ENDBRANCH   7   8
ENDBRANCH   1   7
BRANCH   4  11
ATOM     11  O   UNL     1       3.597   4.414   3.189  0.00  0.00    +0.000 OA
BRANCH  11  12
ATOM     12  C   UNL     1       3.474   4.200   4.596  0.00  0.00    +0.000 C 
BRANCH  12  13
ATOM     13  C   UNL     1       3.094   5.486   5.278  0.00  0.00    +0.000 A 
ATOM     14  C   UNL     1       1.944   6.184   4.897  0.00  0.00    +0.000 A 
ATOM     15  C   UNL     1       1.588   7.321   5.605  0.00  0.00    +0.000 A 
ATOM     16  N   UNL     1       2.287   7.803   6.653  0.00  0.00    +0.000 NA
ATOM     17  C   UNL     1       3.394   7.116   7.000  0.00  0.00    +0.000 A 
ATOM     18  F   UNL     1       4.099   7.566   8.047  0.00  0.00    +0.000 F 
ATOM     19  C   UNL     1       3.831   5.969   6.359  0.00  0.00    +0.000 A 
ENDBRANCH  12  13
ENDBRANCH  11  12
ENDBRANCH   4  11
TORSDOF 5
