REMARK  Name = 
REMARK  6 active torsions:
REMARK  status: ('A' for Active; 'I' for Inactive)
REMARK    1  A    between atoms: C_2  and  C_3
REMARK    2  A    between atoms: C_6  and  N_7
REMARK    3  A    between atoms: N_7  and  C_8
REMARK    4  A    between atoms: C_8  and  C_9
REMARK    5  A    between atoms: C_9  and  C_12
REMARK    6  A    between atoms: C_16  and  C_17
REMARK                            x       y       z     vdW  Elec       q    Type
REMARK                         _______ _______ _______ _____ _____    ______ ____
ROOT
ATOM      1  C   UNL     1       4.503  -1.260   0.221  0.00  0.00    +0.000 C 
ENDROOT
BRANCH   1   2
ATOM      2  C   UNL     1       6.033  -1.043   0.352  0.00  0.00    +0.000 C 
ATOM      3  F   UNL     1       6.490  -0.400  -0.762  0.00  0.00    +0.000 F 
ATOM      4  F   UNL     1       6.253  -0.172   1.385  0.00  0.00    +0.000 F 
BRANCH   2   5
ATOM      5  C   UNL     1       6.741  -2.370   0.567  0.00  0.00    +0.000 A 
ATOM      6  C   UNL     1       7.166  -3.133  -0.532  0.00  0.00    +0.000 A 
ATOM      7  C   UNL     1       7.799  -4.364  -0.344  0.00  0.00    +0.000 A 
ATOM      8  C   UNL     1       8.018  -4.847   0.946  0.00  0.00    +0.000 A 
ATOM      9  C   UNL     1       7.605  -4.102   2.054  0.00  0.00    +0.000 A 
ATOM     10  C   UNL     1       6.965  -2.869   1.864  0.00  0.00    +0.000 A 
BRANCH   9  11
ATOM     11  C   UNL     1       7.832  -4.600   3.381  0.00  0.00    +0.000 C 
ATOM     12  N   UNL     1       8.009  -5.005   4.453  0.00  0.00    +0.000 NA
ENDBRANCH   9  11
ENDBRANCH   2   5
ENDBRANCH   1   2
BRANCH   1  13
ATOM     13  N   UNL     1       3.739  -0.021  -0.022  0.00  0.00    +0.000 N 
ATOM     14  H   UNL     1       4.124   0.811   0.425  0.00  0.00    +0.000 HD
BRANCH  13  18
ATOM     15  C   UNL     1      -0.459  -0.008  -0.474  0.00  0.00    +0.000 A 
ATOM     16  C   UNL     1       0.207  -1.212  -0.252  0.00  0.00    +0.000 A 
ATOM     17  C   UNL     1       1.596  -1.227  -0.078  0.00  0.00    +0.000 A 
ATOM     18  C   UNL     1       2.347  -0.045  -0.089  0.00  0.00    +0.000 A 
ATOM     19  C   UNL     1       1.662   1.156  -0.325  0.00  0.00    +0.000 A 
ATOM     20  C   UNL     1       0.272   1.180  -0.513  0.00  0.00    +0.000 A 
BRANCH  15  22
ATOM     21  N   UNL     1      -3.026  -0.004  -0.844  0.00  0.00    +0.000 NA
ATOM     22  C   UNL     1      -1.878   0.001  -0.678  0.00  0.00    +0.000 C 
ENDBRANCH  15  22
ENDBRANCH  13  18
ENDBRANCH   1  13
TORSDOF 6
