REMARK  Name = 
REMARK  6 active torsions:
REMARK  status: ('A' for Active; 'I' for Inactive)
REMARK    1  A    between atoms: C_1  and  O_2
REMARK    2  A    between atoms: O_2  and  C_3
REMARK    3  A    between atoms: N_9  and  C_10
REMARK    4  A    between atoms: C_10  and  C_11
REMARK    5  A    between atoms: C_14  and  C_15
REMARK    6  A    between atoms: C_15  and  N_16
REMARK                            x       y       z     vdW  Elec       q    Type
REMARK                         _______ _______ _______ _____ _____    ______ ____
ROOT
ATOM      1  C   UNL     1       6.201  -0.793   3.045  0.00  0.00    +0.000 A 
ATOM      2  C   UNL     1       5.150  -0.557   3.943  0.00  0.00    +0.000 A 
ATOM      3  C   UNL     1       4.495   0.680   3.964  0.00  0.00    +0.000 A 
ATOM      4  C   UNL     1       4.870   1.695   3.074  0.00  0.00    +0.000 A 
ATOM      5  C   UNL     1       6.000   1.503   2.270  0.00  0.00    +0.000 A 
ATOM      6  C   UNL     1       6.655   0.269   2.252  0.00  0.00    +0.000 A 
ENDROOT
BRANCH   1   7
ATOM      7  C   UNL     1       6.755  -2.186   2.847  0.00  0.00    +0.000 C 
BRANCH   7  14
ATOM      8  C   UNL     1       6.987  -2.466  -1.723  0.00  0.00    +0.000 A 
ATOM      9  C   UNL     1       5.913  -3.157  -2.277  0.00  0.00    +0.000 A 
ATOM     10  C   UNL     1       4.953  -3.756  -1.453  0.00  0.00    +0.000 A 
ATOM     11  C   UNL     1       5.065  -3.646  -0.053  0.00  0.00    +0.000 A 
ATOM     12  C   UNL     1       4.282  -4.130   1.027  0.00  0.00    +0.000 A 
ATOM     13  C   UNL     1       4.864  -3.687   2.193  0.00  0.00    +0.000 A 
ATOM     14  N   UNL     1       5.959  -2.926   1.865  0.00  0.00    +0.000 N 
ATOM     15  C   UNL     1       6.142  -2.937   0.492  0.00  0.00    +0.000 A 
ATOM     16  C   UNL     1       7.134  -2.373  -0.331  0.00  0.00    +0.000 A 
BRANCH   8  18
ATOM     17  C   UNL     1       7.571  -1.358  -3.724  0.00  0.00    +0.000 C 
ATOM     18  O   UNL     1       7.980  -1.864  -2.455  0.00  0.00    +0.000 OA
ENDBRANCH   8  18
ENDBRANCH   7  14
ENDBRANCH   1   7
BRANCH   4  19
ATOM     19  C   UNL     1       3.993   2.906   2.876  0.00  0.00    +0.000 C 
BRANCH  19  20
ATOM     20  N   UNL     1       4.240   3.950   3.843  0.00  0.00    +0.000 N 
ATOM     21  C   UNL     1       3.541   5.109   3.840  0.00  0.00    +0.000 C 
ATOM     22  N   UNL     1       2.515   5.431   3.142  0.00  0.00    +0.000 NA
ATOM     23  N   UNL     1       4.023   5.992   4.734  0.00  0.00    +0.000 N 
ATOM     24  H   UNL     1       5.228   4.091   4.036  0.00  0.00    +0.000 HD
ATOM     25  H   UNL     1       2.259   4.671   2.513  0.00  0.00    +0.000 HD
ATOM     26  H   UNL     1       4.187   5.573   5.641  0.00  0.00    +0.000 HD
ATOM     27  H   UNL     1       3.367   6.764   4.816  0.00  0.00    +0.000 HD
ENDBRANCH  19  20
ENDBRANCH   4  19
TORSDOF 5
