REMARK  Name = 
REMARK  7 active torsions:
REMARK  status: ('A' for Active; 'I' for Inactive)
REMARK    1  A    between atoms: C_1  and  C_2
REMARK    2  A    between atoms: C_2  and  C_3
REMARK    3  A    between atoms: C_2  and  C_4
REMARK    4  A    between atoms: C_2  and  C_18
REMARK    5  A    between atoms: C_4  and  O_5
REMARK    6  A    between atoms: O_5  and  C_6
REMARK    7  A    between atoms: C_10  and  C_11
REMARK                            x       y       z     vdW  Elec       q    Type
REMARK                         _______ _______ _______ _____ _____    ______ ____
ROOT
ATOM      1  O   UNL     1       2.614   1.369  -1.958  0.00  0.00    +0.000 OA
ENDROOT
BRANCH   1   2
ATOM      2  C   UNL     1       3.059   2.491  -2.612  0.00  0.00    +0.000 A 
ATOM      3  C   UNL     1       3.810   3.515  -2.033  0.00  0.00    +0.000 A 
ATOM      4  C   UNL     1       4.204   4.608  -2.795  0.00  0.00    +0.000 A 
ATOM      5  C   UNL     1       3.864   4.681  -4.145  0.00  0.00    +0.000 A 
ATOM      6  C   UNL     1       3.132   3.657  -4.773  0.00  0.00    +0.000 A 
ATOM      7  C   UNL     1       2.722   2.573  -3.971  0.00  0.00    +0.000 A 
BRANCH   6   8
ATOM      8  C   UNL     1       2.851   3.710  -6.226  0.00  0.00    +0.000 A 
ATOM      9  C   UNL     1       1.665   3.218  -6.790  0.00  0.00    +0.000 A 
ATOM     10  C   UNL     1       1.459   3.272  -8.171  0.00  0.00    +0.000 A 
ATOM     11  C   UNL     1       2.446   3.828  -8.965  0.00  0.00    +0.000 A 
ATOM     12  N   UNL     1       3.600   4.321  -8.478  0.00  0.00    +0.000 NA
ATOM     13  C   UNL     1       3.771   4.245  -7.134  0.00  0.00    +0.000 A 
ENDBRANCH   6   8
ENDBRANCH   1   2
BRANCH   1  14
ATOM     14  C   UNL     1       3.052   1.223  -0.601  0.00  0.00    +0.000 C 
BRANCH  14  16
ATOM     15  C   UNL     1       1.002  -0.120   0.065  0.00  0.00    +0.000 C 
ATOM     16  C   UNL     1       2.545  -0.103   0.039  0.00  0.00    +0.000 C 
ATOM     17  C   UNL     1       2.999  -1.277  -0.861  0.00  0.00    +0.000 C 
BRANCH  16  18
ATOM     18  C   UNL     1       3.086  -0.192   1.484  0.00  0.00    +0.000 A 
ATOM     19  C   UNL     1       3.893  -1.254   1.928  0.00  0.00    +0.000 A 
ATOM     20  C   UNL     1       4.403  -1.289   3.232  0.00  0.00    +0.000 A 
ATOM     21  C   UNL     1       4.118  -0.261   4.125  0.00  0.00    +0.000 A 
ATOM     22  C   UNL     1       3.314   0.794   3.714  0.00  0.00    +0.000 A 
ATOM     23 CL   UNL     1       2.962   2.077   4.806  0.00  0.00    +0.000 Cl
ATOM     24  C   UNL     1       2.797   0.829   2.415  0.00  0.00    +0.000 A 
ENDBRANCH  16  18
ENDBRANCH  14  16
ENDBRANCH   1  14
TORSDOF 5
