REMARK  Name = 
REMARK  3 active torsions:
REMARK  status: ('A' for Active; 'I' for Inactive)
REMARK    1  A    between atoms: C_2  and  C_4
REMARK    2  A    between atoms: N_8  and  C_9
REMARK    3  A    between atoms: C_9  and  C_10
REMARK                            x       y       z     vdW  Elec       q    Type
REMARK                         _______ _______ _______ _____ _____    ______ ____
ROOT
ATOM      1  C   UNL     1       3.388   0.783  -0.991  0.00  0.00    +0.000 A 
ATOM      2  C   UNL     1       4.724   0.658  -1.275  0.00  0.00    +0.000 A 
ATOM      3  N   UNL     1       5.507   1.693  -1.641  0.00  0.00    +0.000 NA
ATOM      4  C   UNL     1       4.929   2.900  -1.740  0.00  0.00    +0.000 A 
ATOM      5  N   UNL     1       5.696   4.002  -2.067  0.00  0.00    +0.000 N 
ATOM      6  N   UNL     1       3.630   3.122  -1.503  0.00  0.00    +0.000 NA
ATOM      7  C   UNL     1       2.880   2.054  -1.138  0.00  0.00    +0.000 A 
ATOM      8  H   UNL     1       5.065   4.760  -2.298  0.00  0.00    +0.000 HD
ENDROOT
BRANCH   1  10
ATOM      9  N   UNL     1       3.121  -1.421  -0.007  0.00  0.00    +0.000 N 
ATOM     10  C   UNL     1       2.529  -0.342  -0.605  0.00  0.00    +0.000 C 
ATOM     11  O   UNL     1       1.320  -0.308  -0.795  0.00  0.00    +0.000 OA
ATOM     12  H   UNL     1       2.499  -2.152   0.319  0.00  0.00    +0.000 HD
ATOM     13  H   UNL     1       4.052  -1.404   0.387  0.00  0.00    +0.000 HD
ENDBRANCH   1  10
BRANCH   5  14
ATOM     14  C   UNL     1       6.739   3.756  -3.044  0.00  0.00    +0.000 C 
BRANCH  14  15
ATOM     15  C   UNL     1       7.850   4.760  -2.864  0.00  0.00    +0.000 A 
ATOM     16  C   UNL     1       8.517   4.855  -1.637  0.00  0.00    +0.000 A 
ATOM     17  C   UNL     1       9.573   5.743  -1.517  0.00  0.00    +0.000 A 
ATOM     18  N   UNL     1      10.007   6.529  -2.523  0.00  0.00    +0.000 NA
ATOM     19  C   UNL     1       9.353   6.425  -3.699  0.00  0.00    +0.000 A 
ATOM     20  C   UNL     1       8.285   5.566  -3.919  0.00  0.00    +0.000 A 
ENDBRANCH  14  15
ENDBRANCH   5  14
TORSDOF 3
