REMARK  Name = 
REMARK  5 active torsions:
REMARK  status: ('A' for Active; 'I' for Inactive)
REMARK    1  A    between atoms: C_2  and  C_4
REMARK    2  A    between atoms: C_7  and  N_8
REMARK    3  A    between atoms: N_8  and  C_9
REMARK    4  A    between atoms: C_9  and  C_10
REMARK    5  A    between atoms: C_14  and  N_15
REMARK                            x       y       z     vdW  Elec       q    Type
REMARK                         _______ _______ _______ _____ _____    ______ ____
ROOT
ATOM      1  N   UNL     1       5.150   3.430  -4.320  0.00  0.00    +0.000 N 
ATOM      2  H   UNL     1       6.095   3.233  -4.005  0.00  0.00    +0.000 HD
ENDROOT
BRANCH   1   6
ATOM      3  C   UNL     1       2.523   4.977  -1.418  0.00  0.00    +0.000 A 
ATOM      4  C   UNL     1       2.015   4.210  -2.467  0.00  0.00    +0.000 A 
ATOM      5  C   UNL     1       2.882   3.652  -3.410  0.00  0.00    +0.000 A 
ATOM      6  C   UNL     1       4.267   3.836  -3.332  0.00  0.00    +0.000 A 
ATOM      7  C   UNL     1       4.759   4.620  -2.277  0.00  0.00    +0.000 A 
ATOM      8  C   UNL     1       3.900   5.187  -1.328  0.00  0.00    +0.000 A 
BRANCH   3  10
ATOM      9  N   UNL     1       0.427   4.993  -0.181  0.00  0.00    +0.000 N 
ATOM     10  C   UNL     1       1.625   5.610  -0.420  0.00  0.00    +0.000 C 
ATOM     11  O   UNL     1       1.949   6.624   0.187  0.00  0.00    +0.000 OA
ATOM     12  H   UNL     1      -0.133   5.376   0.568  0.00  0.00    +0.000 HD
ATOM     13  H   UNL     1       0.239   4.046  -0.478  0.00  0.00    +0.000 HD
ENDBRANCH   3  10
ENDBRANCH   1   6
BRANCH   1  14
ATOM     14  C   UNL     1       4.732   2.667  -5.485  0.00  0.00    +0.000 C 
BRANCH  14  15
ATOM     15  C   UNL     1       5.696   2.915  -6.617  0.00  0.00    +0.000 A 
ATOM     16  C   UNL     1       5.885   4.212  -7.108  0.00  0.00    +0.000 A 
ATOM     17  C   UNL     1       6.734   4.431  -8.186  0.00  0.00    +0.000 A 
ATOM     18  C   UNL     1       7.407   3.355  -8.770  0.00  0.00    +0.000 A 
ATOM     19  C   UNL     1       7.262   2.044  -8.292  0.00  0.00    +0.000 A 
ATOM     20  C   UNL     1       6.380   1.850  -7.219  0.00  0.00    +0.000 A 
BRANCH  19  21
ATOM     21  N   UNL     1       8.012   1.013  -8.814  0.00  0.00    +0.000 N 
ATOM     22  C   UNL     1       8.371  -0.171  -8.023  0.00  0.00    +0.000 C 
ATOM     23  C   UNL     1       9.815  -0.569  -8.369  0.00  0.00    +0.000 C 
ATOM     24  O   UNL     1       9.977  -0.802  -9.778  0.00  0.00    +0.000 OA
ATOM     25  C   UNL     1       9.648   0.385 -10.523  0.00  0.00    +0.000 C 
ATOM     26  C   UNL     1       8.203   0.839 -10.262  0.00  0.00    +0.000 C 
ENDBRANCH  19  21
ENDBRANCH  14  15
ENDBRANCH   1  14
TORSDOF 5
