REMARK  Name = 
REMARK  5 active torsions:
REMARK  status: ('A' for Active; 'I' for Inactive)
REMARK    1  A    between atoms: N_1  and  C_2
REMARK    2  A    between atoms: C_2  and  C_3
REMARK    3  A    between atoms: C_6  and  C_7
REMARK    4  A    between atoms: C_7  and  N_8
REMARK    5  A    between atoms: C_13  and  C_14
REMARK                            x       y       z     vdW  Elec       q    Type
REMARK                         _______ _______ _______ _____ _____    ______ ____
ROOT
ATOM      1  N   UNL     1      -0.088   3.864   3.183  0.00  0.00    +0.000 N 
ATOM      2  C   UNL     1       0.110   4.777   4.195  0.00  0.00    +0.000 A 
ATOM      3  C   UNL     1      -0.733   4.451   5.232  0.00  0.00    +0.000 A 
ATOM      4  C   UNL     1      -1.522   3.352   4.811  0.00  0.00    +0.000 A 
ATOM      5  C   UNL     1      -2.558   2.605   5.397  0.00  0.00    +0.000 A 
ATOM      6  C   UNL     1      -3.144   1.590   4.638  0.00  0.00    +0.000 A 
ATOM      7  C   UNL     1      -2.641   1.353   3.357  0.00  0.00    +0.000 A 
ATOM      8  N   UNL     1      -1.622   2.026   2.754  0.00  0.00    +0.000 NA
ATOM      9  C   UNL     1      -1.114   3.012   3.522  0.00  0.00    +0.000 A 
ENDROOT
BRANCH   6  10
ATOM     10  C   UNL     1      -4.281   0.773   5.125  0.00  0.00    +0.000 C 
ATOM     11  N   UNL     1      -4.785   1.022   6.370  0.00  0.00    +0.000 N 
ATOM     12  O   UNL     1      -4.774  -0.108   4.427  0.00  0.00    +0.000 OA
ATOM     13  H   UNL     1      -4.457   1.735   7.001  0.00  0.00    +0.000 HD
ATOM     14  H   UNL     1      -5.575   0.464   6.667  0.00  0.00    +0.000 HD
ENDBRANCH   6  10
BRANCH   1  15
ATOM     15  C   UNL     1       0.708   3.813   1.964  0.00  0.00    +0.000 C 
BRANCH  15  19
ATOM     16  C   UNL     1       3.054   1.101   0.759  0.00  0.00    +0.000 C 
ATOM     17  C   UNL     1       2.235   1.055   2.062  0.00  0.00    +0.000 C 
ATOM     18  C   UNL     1       2.497   2.263   2.958  0.00  0.00    +0.000 C 
ATOM     19  C   UNL     1       2.216   3.590   2.235  0.00  0.00    +0.000 C 
ATOM     20  C   UNL     1       3.046   3.664   0.944  0.00  0.00    +0.000 C 
ATOM     21  C   UNL     1       2.855   2.448   0.038  0.00  0.00    +0.000 C 
BRANCH  16  22
ATOM     22  C   UNL     1       4.550   0.803   0.990  0.00  0.00    +0.000 C 
BRANCH  22  23
ATOM     23  N   UNL     1       4.743  -0.528   1.558  0.00  0.00    +0.000 NA
ATOM     24  H   UNL     1       5.737  -0.739   1.619  0.00  0.00    +0.000 HD
ATOM     25  H   UNL     1       4.333  -1.228   0.940  0.00  0.00    +0.000 HD
ENDBRANCH  22  23
ENDBRANCH  16  22
ENDBRANCH  15  19
ENDBRANCH   1  15
TORSDOF 5
