REMARK  Name = 
REMARK  4 active torsions:
REMARK  status: ('A' for Active; 'I' for Inactive)
REMARK    1  A    between atoms: C_2  and  C_4
REMARK    2  A    between atoms: N_8  and  C_9
REMARK    3  A    between atoms: C_9  and  C_10
REMARK    4  A    between atoms: C_14  and  C_15
REMARK                            x       y       z     vdW  Elec       q    Type
REMARK                         _______ _______ _______ _____ _____    ______ ____
ROOT
ATOM      1  C   UNL     1       4.999  -0.533  -5.990  0.00  0.00    +0.000 C 
ATOM      2  C   UNL     1       5.079   0.904  -6.486  0.00  0.00    +0.000 C 
ATOM      3  C   UNL     1       3.781   0.174  -6.554  0.00  0.00    +0.000 C 
ENDROOT
BRANCH   1   8
ATOM      4  C   UNL     1       3.170  -3.097  -1.852  0.00  0.00    +0.000 A 
ATOM      5  C   UNL     1       2.453  -2.488  -2.877  0.00  0.00    +0.000 A 
ATOM      6  C   UNL     1       3.132  -1.707  -3.813  0.00  0.00    +0.000 A 
ATOM      7  C   UNL     1       4.508  -1.540  -3.706  0.00  0.00    +0.000 A 
ATOM      8  N   UNL     1       5.243  -0.696  -4.545  0.00  0.00    +0.000 N 
ATOM      9  N   UNL     1       5.212  -2.119  -2.709  0.00  0.00    +0.000 NA
ATOM     10  C   UNL     1       4.538  -2.878  -1.807  0.00  0.00    +0.000 A 
ATOM     11  H   UNL     1       6.217  -0.843  -4.282  0.00  0.00    +0.000 HD
BRANCH   4  13
ATOM     12  N   UNL     1       1.347  -4.526  -1.116  0.00  0.00    +0.000 N 
ATOM     13  C   UNL     1       2.534  -3.922  -0.804  0.00  0.00    +0.000 C 
ATOM     14  O   UNL     1       3.050  -4.070   0.293  0.00  0.00    +0.000 OA
ATOM     15  H   UNL     1       0.972  -5.159  -0.422  0.00  0.00    +0.000 HD
ATOM     16  H   UNL     1       1.026  -4.633  -2.068  0.00  0.00    +0.000 HD
ENDBRANCH   4  13
ENDBRANCH   1   8
BRANCH   1  17
ATOM     17  C   UNL     1       5.623  -1.642  -6.833  0.00  0.00    +0.000 A 
ATOM     18  C   UNL     1       6.905  -1.532  -7.387  0.00  0.00    +0.000 A 
ATOM     19  C   UNL     1       7.481  -2.591  -8.090  0.00  0.00    +0.000 A 
ATOM     20  C   UNL     1       6.792  -3.798  -8.225  0.00  0.00    +0.000 A 
ATOM     21  C   UNL     1       5.518  -3.973  -7.662  0.00  0.00    +0.000 A 
ATOM     22  C   UNL     1       4.947  -2.866  -7.006  0.00  0.00    +0.000 A 
BRANCH  21  23
ATOM     23  C   UNL     1       4.840  -5.290  -7.643  0.00  0.00    +0.000 A 
ATOM     24  C   UNL     1       5.577  -6.474  -7.458  0.00  0.00    +0.000 A 
ATOM     25  C   UNL     1       4.948  -7.714  -7.318  0.00  0.00    +0.000 A 
ATOM     26  C   UNL     1       3.561  -7.798  -7.357  0.00  0.00    +0.000 A 
ATOM     27  C   UNL     1       2.806  -6.647  -7.560  0.00  0.00    +0.000 A 
ATOM     28  C   UNL     1       3.440  -5.409  -7.713  0.00  0.00    +0.000 A 
ENDBRANCH  21  23
ENDBRANCH   1  17
TORSDOF 4
