REMARK  Name = 
REMARK  4 active torsions:
REMARK  status: ('A' for Active; 'I' for Inactive)
REMARK    1  A    between atoms: C_2  and  C_4
REMARK    2  A    between atoms: C_7  and  N_8
REMARK    3  A    between atoms: N_8  and  C_9
REMARK    4  A    between atoms: C_9  and  C_10
REMARK                            x       y       z     vdW  Elec       q    Type
REMARK                         _______ _______ _______ _____ _____    ______ ____
ROOT
ATOM      1  C   UNL     1       2.982   0.658   0.956  0.00  0.00    +0.000 A 
ATOM      2  C   UNL     1       2.476   1.617   1.838  0.00  0.00    +0.000 A 
ATOM      3  C   UNL     1       3.285   2.122   2.864  0.00  0.00    +0.000 A 
ATOM      4  C   UNL     1       4.604   1.686   3.014  0.00  0.00    +0.000 A 
ATOM      5  C   UNL     1       5.107   0.743   2.107  0.00  0.00    +0.000 A 
ATOM      6  C   UNL     1       4.302   0.217   1.098  0.00  0.00    +0.000 A 
ENDROOT
BRANCH   1   8
ATOM      7  N   UNL     1       1.120   0.803  -0.614  0.00  0.00    +0.000 N 
ATOM      8  C   UNL     1       2.157   0.058  -0.126  0.00  0.00    +0.000 C 
ATOM      9  O   UNL     1       2.413  -1.045  -0.594  0.00  0.00    +0.000 OA
ATOM     10  H   UNL     1       0.636   0.417  -1.415  0.00  0.00    +0.000 HD
ATOM     11  H   UNL     1       1.033   1.793  -0.441  0.00  0.00    +0.000 HD
ENDBRANCH   1   8
BRANCH   4  12
ATOM     12  N   UNL     1       5.493   2.186   3.990  0.00  0.00    +0.000 N 
ATOM     13  H   UNL     1       6.208   2.743   3.526  0.00  0.00    +0.000 HD
BRANCH  12  14
ATOM     14  C   UNL     1       5.023   2.758   5.280  0.00  0.00    +0.000 C 
ATOM     15  C   UNL     1       5.753   2.227   6.508  0.00  0.00    +0.000 C 
ATOM     16  C   UNL     1       4.315   1.875   6.292  0.00  0.00    +0.000 C 
BRANCH  14  17
ATOM     17  C   UNL     1       4.654   4.250   5.244  0.00  0.00    +0.000 A 
ATOM     18  C   UNL     1       5.623   5.214   4.950  0.00  0.00    +0.000 A 
ATOM     19  C   UNL     1       5.256   6.552   4.820  0.00  0.00    +0.000 A 
ATOM     20  C   UNL     1       3.930   6.913   5.005  0.00  0.00    +0.000 A 
ATOM     21  C   UNL     1       3.027   5.918   5.324  0.00  0.00    +0.000 A 
ATOM     22  N   UNL     1       3.356   4.613   5.442  0.00  0.00    +0.000 NA
ENDBRANCH  14  17
ENDBRANCH  12  14
ENDBRANCH   4  12
TORSDOF 4
