REMARK  Name = 
REMARK  9 active torsions:
REMARK  status: ('A' for Active; 'I' for Inactive)
REMARK    1  A    between atoms: N_1  and  C_2
REMARK    2  A    between atoms: C_2  and  C_3
REMARK    3  A    between atoms: C_2  and  C_24
REMARK    4  A    between atoms: C_3  and  C_4
REMARK    5  A    between atoms: C_7  and  C_8
REMARK    6  A    between atoms: C_8  and  N_9
REMARK    7  A    between atoms: C_10  and  C_12
REMARK    8  A    between atoms: N_26  and  C_27
REMARK    9  A    between atoms: C_27  and  C_28
REMARK                            x       y       z     vdW  Elec       q    Type
REMARK                         _______ _______ _______ _____ _____    ______ ____
ROOT
ATOM      1  C   UNL     1       2.526   0.516   2.450  0.00  0.00    +0.000 A 
ATOM      2  C   UNL     1       2.146   0.012   3.701  0.00  0.00    +0.000 A 
ATOM      3  C   UNL     1       1.836   0.877   4.756  0.00  0.00    +0.000 A 
ATOM      4  C   UNL     1       1.901   2.265   4.581  0.00  0.00    +0.000 A 
ATOM      5  C   UNL     1       2.297   2.769   3.335  0.00  0.00    +0.000 A 
ATOM      6  C   UNL     1       2.596   1.904   2.277  0.00  0.00    +0.000 A 
ENDROOT
BRANCH   1   7
ATOM      7  C   UNL     1       2.899  -0.420   1.322  0.00  0.00    +0.000 C 
BRANCH   7   8
ATOM      8  C   UNL     1       1.738  -0.858   0.401  0.00  0.00    +0.000 C 
BRANCH   8   9
ATOM      9  C   UNL     1       2.316  -1.744  -0.733  0.00  0.00    +0.000 C 
ATOM     10  O   UNL     1       3.447  -1.590  -1.187  0.00  0.00    +0.000 OA
ATOM     11  N   UNL     1       1.451  -2.701  -1.214  0.00  0.00    +0.000 N 
ATOM     12  H   UNL     1       0.485  -2.654  -0.898  0.00  0.00    +0.000 HD
BRANCH  11  13
ATOM     13  C   UNL     1       1.806  -3.542  -2.329  0.00  0.00    +0.000 C 
BRANCH  13  14
ATOM     14  C   UNL     1       1.042  -4.811  -2.276  0.00  0.00    +0.000 A 
ATOM     15  C   UNL     1       1.418  -6.128  -2.101  0.00  0.00    +0.000 A 
ATOM     16  C   UNL     1       0.238  -6.901  -2.213  0.00  0.00    +0.000 A 
ATOM     17  C   UNL     1      -0.784  -6.008  -2.437  0.00  0.00    +0.000 A 
ATOM     18  O   UNL     1      -0.307  -4.736  -2.474  0.00  0.00    +0.000 OA
ENDBRANCH  13  14
ENDBRANCH  11  13
ENDBRANCH   8   9
BRANCH   8  19
ATOM     19  N   UNL     1       0.654  -1.591   1.104  0.00  0.00    +0.000 NA
ATOM     20  H   UNL     1       0.343  -1.017   1.890  0.00  0.00    +0.000 HD
ATOM     21  H   UNL     1       1.053  -2.434   1.520  0.00  0.00    +0.000 HD
ENDBRANCH   8  19
ENDBRANCH   7   8
ENDBRANCH   1   7
BRANCH   4  22
ATOM     22  C   UNL     1       1.605   3.204   5.722  0.00  0.00    +0.000 C 
BRANCH  22  23
ATOM     23  N   UNL     1       2.797   3.506   6.475  0.00  0.00    +0.000 N 
ATOM     24  C   UNL     1       2.741   4.275   7.609  0.00  0.00    +0.000 C 
ATOM     25  O   UNL     1       1.674   4.684   8.061  0.00  0.00    +0.000 OA
ATOM     26  H   UNL     1       3.688   3.370   6.005  0.00  0.00    +0.000 HD
BRANCH  24  27
ATOM     27  C   UNL     1       4.012   4.543   8.293  0.00  0.00    +0.000 A 
ATOM     28  C   UNL     1       4.008   4.874   9.642  0.00  0.00    +0.000 A 
ATOM     29  S   UNL     1       5.564   5.119  10.294  0.00  0.00    +0.000 S 
ATOM     30  C   UNL     1       6.298   4.838   8.786  0.00  0.00    +0.000 A 
ATOM     31  N   UNL     1       7.648   4.923   8.639  0.00  0.00    +0.000 NA
ATOM     32  C   UNL     1       8.069   4.716   7.436  0.00  0.00    +0.000 A 
ATOM     33  N   UNL     1       7.263   4.423   6.369  0.00  0.00    +0.000 N 
ATOM     34  C   UNL     1       5.901   4.300   6.474  0.00  0.00    +0.000 A 
ATOM     35  O   UNL     1       5.211   3.996   5.506  0.00  0.00    +0.000 OA
ATOM     36  C   UNL     1       5.371   4.540   7.804  0.00  0.00    +0.000 A 
ATOM     37  H   UNL     1       7.655   4.261   5.451  0.00  0.00    +0.000 HD
ENDBRANCH  24  27
ENDBRANCH  22  23
ENDBRANCH   4  22
TORSDOF 9
