REMARK  Name = 
REMARK  9 active torsions:
REMARK  status: ('A' for Active; 'I' for Inactive)
REMARK    1  A    between atoms: C_1  and  C_2
REMARK    2  A    between atoms: C_2  and  N_3
REMARK    3  A    between atoms: N_3  and  C_4
REMARK    4  A    between atoms: C_4  and  C_5
REMARK    5  A    between atoms: C_8  and  C_9
REMARK    6  A    between atoms: C_9  and  C_10
REMARK    7  A    between atoms: C_10  and  O_11
REMARK    8  A    between atoms: C_10  and  C_12
REMARK    9  A    between atoms: C_20  and  C_22
REMARK                            x       y       z     vdW  Elec       q    Type
REMARK                         _______ _______ _______ _____ _____    ______ ____
ROOT
ATOM      1  C   UNL     1      -9.143  -1.854   4.705  0.00  0.00    +0.000 C 
ENDROOT
BRANCH   1   2
ATOM      2  C   UNL     1      -7.800  -1.712   4.050  0.00  0.00    +0.000 A 
ATOM      3  C   UNL     1      -7.656  -0.901   2.916  0.00  0.00    +0.000 A 
ATOM      4  C   UNL     1      -6.471  -0.912   2.185  0.00  0.00    +0.000 A 
ATOM      5  C   UNL     1      -5.408  -1.729   2.576  0.00  0.00    +0.000 A 
ATOM      6  C   UNL     1      -5.504  -2.417   3.798  0.00  0.00    +0.000 A 
ATOM      7  C   UNL     1      -6.689  -2.406   4.532  0.00  0.00    +0.000 A 
BRANCH   5   8
ATOM      8  C   UNL     1      -4.273  -2.097   1.644  0.00  0.00    +0.000 C 
BRANCH   8   9
ATOM      9  C   UNL     1      -3.886  -1.153   0.488  0.00  0.00    +0.000 C 
BRANCH   9  10
ATOM     10  C   UNL     1      -2.777  -1.838  -0.295  0.00  0.00    +0.000 A 
ATOM     11  C   UNL     1      -1.439  -1.604  -0.003  0.00  0.00    +0.000 A 
ATOM     12  C   UNL     1      -0.476  -2.371  -0.653  0.00  0.00    +0.000 A 
ATOM     13  C   UNL     1      -0.871  -3.336  -1.573  0.00  0.00    +0.000 A 
ATOM     14  C   UNL     1      -2.223  -3.484  -1.829  0.00  0.00    +0.000 A 
ATOM     15  N   UNL     1      -3.182  -2.761  -1.214  0.00  0.00    +0.000 NA
ENDBRANCH   9  10
BRANCH   9  16
ATOM     16  O   UNL     1      -4.985  -0.956  -0.413  0.00  0.00    +0.000 OA
ATOM     17  H   UNL     1      -4.911  -1.685  -1.064  0.00  0.00    +0.000 HD
ENDBRANCH   9  16
ENDBRANCH   8   9
ENDBRANCH   5   8
ENDBRANCH   1   2
BRANCH   1  18
ATOM     18  N   UNL     1      -9.942  -3.067   4.435  0.00  0.00    +0.000 N 
ATOM     19  C   UNL     1     -10.956  -3.491   5.331  0.00  0.00    +0.000 C 
ATOM     20  O   UNL     1     -11.514  -4.581   5.211  0.00  0.00    +0.000 OA
BRANCH  19  21
ATOM     21  C   UNL     1     -11.384  -2.597   6.415  0.00  0.00    +0.000 A 
ATOM     22  C   UNL     1     -11.693  -1.256   6.250  0.00  0.00    +0.000 A 
ATOM     23  S   UNL     1     -12.215  -0.498   7.688  0.00  0.00    +0.000 S 
ATOM     24  C   UNL     1     -12.177  -1.970   8.540  0.00  0.00    +0.000 A 
ATOM     25  N   UNL     1     -12.602  -2.042   9.829  0.00  0.00    +0.000 NA
ATOM     26  C   UNL     1     -12.590  -3.235  10.322  0.00  0.00    +0.000 A 
ATOM     27  N   UNL     1     -12.157  -4.353   9.658  0.00  0.00    +0.000 N 
ATOM     28  C   UNL     1     -11.590  -4.307   8.401  0.00  0.00    +0.000 A 
ATOM     29  O   UNL     1     -11.005  -5.279   7.938  0.00  0.00    +0.000 OA
ATOM     30  C   UNL     1     -11.692  -3.005   7.763  0.00  0.00    +0.000 A 
ATOM     31  H   UNL     1     -12.117  -5.247  10.123  0.00  0.00    +0.000 HD
ENDBRANCH  19  21
BRANCH  18  33
ATOM     32  C   UNL     1      -9.291  -3.546   1.990  0.00  0.00    +0.000 C 
ATOM     33  C   UNL     1      -9.560  -4.051   3.401  0.00  0.00    +0.000 C 
ENDBRANCH  18  33
ENDBRANCH   1  18
TORSDOF 8
