REMARK  Name = 
REMARK  9 active torsions:
REMARK  status: ('A' for Active; 'I' for Inactive)
REMARK    1  A    between atoms: C_1  and  O_2
REMARK    2  A    between atoms: O_2  and  C_3
REMARK    3  A    between atoms: C_10  and  C_11
REMARK    4  A    between atoms: N_13  and  C_14
REMARK    5  A    between atoms: C_14  and  C_15
REMARK    6  A    between atoms: C_18  and  C_19
REMARK    7  A    between atoms: C_19  and  N_20
REMARK    8  A    between atoms: N_20  and  C_21
REMARK    9  A    between atoms: C_21  and  C_22
REMARK                            x       y       z     vdW  Elec       q    Type
REMARK                         _______ _______ _______ _____ _____    ______ ____
ROOT
ATOM      1  C   UNL     1       2.168  -3.370   0.419  0.00  0.00    +0.000 A 
ATOM      2  C   UNL     1       1.527  -4.590   0.675  0.00  0.00    +0.000 A 
ATOM      3  C   UNL     1       0.502  -4.674   1.626  0.00  0.00    +0.000 A 
ATOM      4  C   UNL     1       0.084  -3.536   2.335  0.00  0.00    +0.000 A 
ATOM      5  C   UNL     1       0.741  -2.323   2.093  0.00  0.00    +0.000 A 
ATOM      6  C   UNL     1       1.771  -2.241   1.147  0.00  0.00    +0.000 A 
ENDROOT
BRANCH   1   7
ATOM      7  C   UNL     1       3.211  -3.261  -0.668  0.00  0.00    +0.000 C 
BRANCH   7  10
ATOM      8  C   UNL     1       3.320  -2.726  -3.079  0.00  0.00    +0.000 C 
ATOM      9  O   UNL     1       4.545  -2.849  -3.090  0.00  0.00    +0.000 OA
ATOM     10  N   UNL     1       2.599  -2.919  -1.933  0.00  0.00    +0.000 N 
ATOM     11  H   UNL     1       1.589  -2.889  -1.963  0.00  0.00    +0.000 HD
BRANCH   8  19
ATOM     12  C   UNL     1      -0.022  -2.232  -3.767  0.00  0.00    +0.000 A 
ATOM     13  N   UNL     1      -1.222  -1.872  -4.266  0.00  0.00    +0.000 NA
ATOM     14  C   UNL     1      -1.270  -1.413  -5.519  0.00  0.00    +0.000 A 
ATOM     15  N   UNL     1      -0.251  -1.285  -6.364  0.00  0.00    +0.000 NA
ATOM     16  C   UNL     1       0.926  -1.647  -5.826  0.00  0.00    +0.000 A 
ATOM     17  S   UNL     1       2.337  -1.568  -6.766  0.00  0.00    +0.000 S 
ATOM     18  C   UNL     1       3.293  -2.102  -5.466  0.00  0.00    +0.000 A 
ATOM     19  C   UNL     1       2.578  -2.335  -4.296  0.00  0.00    +0.000 A 
ATOM     20  C   UNL     1       1.151  -2.108  -4.532  0.00  0.00    +0.000 A 
BRANCH  12  22
ATOM     21  C   UNL     1      -1.230  -2.820  -1.838  0.00  0.00    +0.000 C 
ATOM     22  O   UNL     1       0.034  -2.749  -2.490  0.00  0.00    +0.000 OA
ENDBRANCH  12  22
ENDBRANCH   8  19
ENDBRANCH   7  10
ENDBRANCH   1   7
BRANCH   4  23
ATOM     23  C   UNL     1      -1.058  -3.612   3.327  0.00  0.00    +0.000 C 
BRANCH  23  24
ATOM     24  N   UNL     1      -0.739  -4.524   4.418  0.00  0.00    +0.000 NA
ATOM     25  H   UNL     1       0.119  -4.207   4.869  0.00  0.00    +0.000 HD
BRANCH  24  26
ATOM     26  C   UNL     1      -1.801  -4.578   5.426  0.00  0.00    +0.000 C 
BRANCH  26  27
ATOM     27  C   UNL     1      -1.402  -5.524   6.529  0.00  0.00    +0.000 A 
ATOM     28  C   UNL     1      -1.114  -6.869   6.242  0.00  0.00    +0.000 A 
ATOM     29  C   UNL     1      -0.649  -7.726   7.240  0.00  0.00    +0.000 A 
ATOM     30  C   UNL     1      -0.479  -7.255   8.542  0.00  0.00    +0.000 A 
ATOM     31  C   UNL     1      -0.796  -5.932   8.848  0.00  0.00    +0.000 A 
ATOM     32  C   UNL     1      -1.256  -5.081   7.846  0.00  0.00    +0.000 A 
ATOM     33  F   UNL     1      -1.539  -3.809   8.162  0.00  0.00    +0.000 F 
ENDBRANCH  26  27
ENDBRANCH  24  26
ENDBRANCH  23  24
ENDBRANCH   4  23
TORSDOF 8
