REMARK  Name = 
REMARK  8 active torsions:
REMARK  status: ('A' for Active; 'I' for Inactive)
REMARK    1  A    between atoms: C_2  and  C_3
REMARK    2  A    between atoms: C_7  and  C_8
REMARK    3  A    between atoms: C_8  and  O_9
REMARK    4  A    between atoms: O_9  and  C_10
REMARK    5  A    between atoms: C_10  and  C_11
REMARK    6  A    between atoms: C_14  and  C_15
REMARK    7  A    between atoms: C_15  and  N_16
REMARK    8  A    between atoms: C_17  and  C_19
REMARK                            x       y       z     vdW  Elec       q    Type
REMARK                         _______ _______ _______ _____ _____    ______ ____
ROOT
ATOM      1  C   UNL     1       5.979   3.264   0.225  0.00  0.00    +0.000 A 
ATOM      2  C   UNL     1       6.840   4.358   0.253  0.00  0.00    +0.000 A 
ATOM      3  C   UNL     1       8.212   4.130   0.284  0.00  0.00    +0.000 A 
ATOM      4  C   UNL     1       8.698   2.821   0.307  0.00  0.00    +0.000 A 
ATOM      5  C   UNL     1       7.763   1.793   0.260  0.00  0.00    +0.000 A 
ATOM      6  N   UNL     1       6.424   1.983   0.216  0.00  0.00    +0.000 NA
ENDROOT
BRANCH   1   7
ATOM      7  C   UNL     1       4.487   3.482   0.091  0.00  0.00    +0.000 C 
BRANCH   7   8
ATOM      8  O   UNL     1       4.161   4.232  -1.085  0.00  0.00    +0.000 OA
BRANCH   8   9
ATOM      9  C   UNL     1       4.458   3.510  -2.281  0.00  0.00    +0.000 C 
BRANCH   9  14
ATOM     10  C   UNL     1       4.347   6.447  -4.711  0.00  0.00    +0.000 A 
ATOM     11  C   UNL     1       3.475   5.962  -5.689  0.00  0.00    +0.000 A 
ATOM     12  C   UNL     1       2.913   4.692  -5.558  0.00  0.00    +0.000 A 
ATOM     13  C   UNL     1       3.222   3.900  -4.450  0.00  0.00    +0.000 A 
ATOM     14  C   UNL     1       4.094   4.372  -3.461  0.00  0.00    +0.000 A 
ATOM     15  C   UNL     1       4.657   5.651  -3.602  0.00  0.00    +0.000 A 
BRANCH  10  17
ATOM     16  N   UNL     1       5.417   8.799  -4.963  0.00  0.00    +0.000 NA
ATOM     17  C   UNL     1       4.930   7.749  -4.844  0.00  0.00    +0.000 C 
ENDBRANCH  10  17
ENDBRANCH   9  14
ENDBRANCH   8   9
ENDBRANCH   7   8
ENDBRANCH   1   7
BRANCH   4  18
ATOM     18  C   UNL     1      10.168   2.533   0.335  0.00  0.00    +0.000 C 
BRANCH  18  19
ATOM     19  N   UNL     1      10.706   2.417  -0.995  0.00  0.00    +0.000 N 
ATOM     20  C   UNL     1      12.019   2.067  -1.197  0.00  0.00    +0.000 C 
ATOM     21  O   UNL     1      12.760   1.771  -0.265  0.00  0.00    +0.000 OA
ATOM     22  H   UNL     1      10.196   2.871  -1.747  0.00  0.00    +0.000 HD
BRANCH  20  23
ATOM     23  C   UNL     1      12.475   2.002  -2.591  0.00  0.00    +0.000 A 
ATOM     24  C   UNL     1      13.565   1.207  -2.921  0.00  0.00    +0.000 A 
ATOM     25  S   UNL     1      13.939   1.218  -4.585  0.00  0.00    +0.000 S 
ATOM     26  C   UNL     1      12.686   2.319  -4.917  0.00  0.00    +0.000 A 
ATOM     27  N   UNL     1      12.467   2.771  -6.182  0.00  0.00    +0.000 NA
ATOM     28  C   UNL     1      11.503   3.625  -6.285  0.00  0.00    +0.000 A 
ATOM     29  N   UNL     1      10.734   4.060  -5.239  0.00  0.00    +0.000 N 
ATOM     30  C   UNL     1      10.891   3.604  -3.953  0.00  0.00    +0.000 A 
ATOM     31  O   UNL     1      10.145   3.970  -3.049  0.00  0.00    +0.000 OA
ATOM     32  C   UNL     1      11.978   2.657  -3.778  0.00  0.00    +0.000 A 
ATOM     33  H   UNL     1       9.985   4.721  -5.389  0.00  0.00    +0.000 HD
ENDBRANCH  20  23
ENDBRANCH  18  19
ENDBRANCH   4  18
TORSDOF 8
