REMARK  Name = 
REMARK  6 active torsions:
REMARK  status: ('A' for Active; 'I' for Inactive)
REMARK    1  A    between atoms: C_1  and  C_2
REMARK    2  A    between atoms: C_2  and  C_3
REMARK    3  A    between atoms: C_2  and  C_14
REMARK    4  A    between atoms: C_3  and  N_4
REMARK    5  A    between atoms: C_8  and  C_9
REMARK    6  A    between atoms: C_18  and  C_19
REMARK                            x       y       z     vdW  Elec       q    Type
REMARK                         _______ _______ _______ _____ _____    ______ ____
ROOT
ATOM      1  C   UNL     1       3.102  -1.470   0.163  0.00  0.00    +0.000 C 
ENDROOT
BRANCH   1   2
ATOM      2  N   UNL     1       2.558  -2.622  -0.551  0.00  0.00    +0.000 N 
ATOM      3  C   UNL     1       3.167  -3.834  -0.187  0.00  0.00    +0.000 A 
ATOM      4  C   UNL     1       2.764  -5.038  -0.783  0.00  0.00    +0.000 A 
ATOM      5  N   UNL     1       3.290  -6.258  -0.486  0.00  0.00    +0.000 NA
ATOM      6  C   UNL     1       4.258  -6.228   0.471  0.00  0.00    +0.000 A 
ATOM      7  C   UNL     1       4.662  -5.055   1.081  0.00  0.00    +0.000 A 
ATOM      8  N   UNL     1       4.122  -3.849   0.770  0.00  0.00    +0.000 NA
ATOM      9  H   UNL     1       2.628  -2.498  -1.557  0.00  0.00    +0.000 HD
BRANCH   6  10
ATOM     10  C   UNL     1       4.899  -7.510   0.869  0.00  0.00    +0.000 C 
ATOM     11  N   UNL     1       4.436  -8.634   0.244  0.00  0.00    +0.000 N 
ATOM     12  O   UNL     1       5.787  -7.562   1.711  0.00  0.00    +0.000 OA
ATOM     13  H   UNL     1       3.692  -8.569  -0.441  0.00  0.00    +0.000 HD
ATOM     14  H   UNL     1       4.832  -9.531   0.486  0.00  0.00    +0.000 HD
ENDBRANCH   6  10
ENDBRANCH   1   2
BRANCH   1  16
ATOM     15  C   UNL     1       0.960  -0.048   0.046  0.00  0.00    +0.000 C 
ATOM     16  C   UNL     1       2.391  -0.252  -0.344  0.00  0.00    +0.000 C 
BRANCH  16  17
ATOM     17  C   UNL     1       2.998   0.591  -1.382  0.00  0.00    +0.000 A 
ATOM     18  C   UNL     1       4.332   1.009  -1.308  0.00  0.00    +0.000 A 
ATOM     19  C   UNL     1       4.884   1.809  -2.313  0.00  0.00    +0.000 A 
ATOM     20  C   UNL     1       4.113   2.187  -3.412  0.00  0.00    +0.000 A 
ATOM     21  C   UNL     1       2.780   1.772  -3.512  0.00  0.00    +0.000 A 
ATOM     22  C   UNL     1       2.233   0.987  -2.485  0.00  0.00    +0.000 A 
BRANCH  21  23
ATOM     23  C   UNL     1       1.921   2.123  -4.699  0.00  0.00    +0.000 C 
ATOM     24  F   UNL     1       2.556   2.886  -5.631  0.00  0.00    +0.000 F 
ATOM     25  F   UNL     1       1.483   1.015  -5.360  0.00  0.00    +0.000 F 
ATOM     26  F   UNL     1       0.801   2.812  -4.347  0.00  0.00    +0.000 F 
ENDBRANCH  21  23
ENDBRANCH  16  17
ENDBRANCH   1  16
TORSDOF 5
