REMARK  Name = 
REMARK  6 active torsions:
REMARK  status: ('A' for Active; 'I' for Inactive)
REMARK    1  A    between atoms: C_2  and  C_4
REMARK    2  A    between atoms: N_8  and  C_9
REMARK    3  A    between atoms: C_9  and  C_10
REMARK    4  A    between atoms: C_10  and  C_13
REMARK    5  A    between atoms: C_18  and  O_19
REMARK    6  A    between atoms: O_19  and  C_20
REMARK                            x       y       z     vdW  Elec       q    Type
REMARK                         _______ _______ _______ _____ _____    ______ ____
ROOT
ATOM      1  C   UNL     1       6.111  -6.208  -3.696  0.00  0.00    +0.000 C 
ATOM      2  F   UNL     1       7.387  -5.732  -3.569  0.00  0.00    +0.000 F 
ATOM      3  F   UNL     1       5.978  -7.148  -2.713  0.00  0.00    +0.000 F 
ENDROOT
BRANCH   1   4
ATOM      4  C   UNL     1       5.865  -6.811  -5.068  0.00  0.00    +0.000 A 
ATOM      5  C   UNL     1       6.526  -6.302  -6.195  0.00  0.00    +0.000 A 
ATOM      6  C   UNL     1       6.283  -6.853  -7.448  0.00  0.00    +0.000 A 
ATOM      7  F   UNL     1       6.914  -6.354  -8.518  0.00  0.00    +0.000 F 
ATOM      8  C   UNL     1       5.396  -7.909  -7.607  0.00  0.00    +0.000 A 
ATOM      9  C   UNL     1       4.744  -8.439  -6.494  0.00  0.00    +0.000 A 
ATOM     10  C   UNL     1       4.966  -7.886  -5.231  0.00  0.00    +0.000 A 
BRANCH   9  11
ATOM     11  O   UNL     1       3.886  -9.475  -6.761  0.00  0.00    +0.000 OA
BRANCH  11  12
ATOM     12  C   UNL     1       3.555 -10.403  -5.703  0.00  0.00    +0.000 C 
ATOM     13  C   UNL     1       4.656 -11.338  -5.184  0.00  0.00    +0.000 C 
ATOM     14  O   UNL     1       3.844 -12.511  -5.432  0.00  0.00    +0.000 OA
ATOM     15  C   UNL     1       2.886 -11.709  -6.161  0.00  0.00    +0.000 C 
ENDBRANCH  11  12
ENDBRANCH   9  11
ENDBRANCH   1   4
BRANCH   1  16
ATOM     16  C   UNL     1       5.129  -5.038  -3.414  0.00  0.00    +0.000 C 
BRANCH  16  21
ATOM     17  C   UNL     1       2.963  -1.409  -0.523  0.00  0.00    +0.000 A 
ATOM     18  C   UNL     1       2.402  -2.206  -1.512  0.00  0.00    +0.000 A 
ATOM     19  C   UNL     1       3.160  -3.239  -2.066  0.00  0.00    +0.000 A 
ATOM     20  C   UNL     1       4.467  -3.448  -1.633  0.00  0.00    +0.000 A 
ATOM     21  N   UNL     1       5.239  -4.514  -2.048  0.00  0.00    +0.000 N 
ATOM     22  N   UNL     1       5.034  -2.651  -0.707  0.00  0.00    +0.000 NA
ATOM     23  C   UNL     1       4.284  -1.649  -0.175  0.00  0.00    +0.000 A 
ATOM     24  H   UNL     1       6.187  -4.385  -1.695  0.00  0.00    +0.000 HD
BRANCH  17  26
ATOM     25  N   UNL     1       0.857  -0.502   0.268  0.00  0.00    +0.000 N 
ATOM     26  C   UNL     1       2.212  -0.341   0.168  0.00  0.00    +0.000 C 
ATOM     27  O   UNL     1       2.777   0.622   0.667  0.00  0.00    +0.000 OA
ATOM     28  H   UNL     1       0.369   0.167   0.851  0.00  0.00    +0.000 HD
ATOM     29  H   UNL     1       0.405  -1.392   0.111  0.00  0.00    +0.000 HD
ENDBRANCH  17  26
ENDBRANCH  16  21
ENDBRANCH   1  16
TORSDOF 6
