REMARK  Name = 
REMARK  4 active torsions:
REMARK  status: ('A' for Active; 'I' for Inactive)
REMARK    1  A    between atoms: C_2  and  C_4
REMARK    2  A    between atoms: C_7  and  N_8
REMARK    3  A    between atoms: N_8  and  C_9
REMARK    4  A    between atoms: C_9  and  C_10
REMARK                            x       y       z     vdW  Elec       q    Type
REMARK                         _______ _______ _______ _____ _____    ______ ____
ROOT
ATOM      1  C   UNL     1       3.227   1.229  -0.380  0.00  0.00    +0.000 A 
ATOM      2  C   UNL     1       2.796   2.464   0.112  0.00  0.00    +0.000 A 
ATOM      3  C   UNL     1       3.523   3.625  -0.172  0.00  0.00    +0.000 A 
ATOM      4  C   UNL     1       4.698   3.574  -0.930  0.00  0.00    +0.000 A 
ATOM      5  C   UNL     1       5.081   2.340  -1.469  0.00  0.00    +0.000 A 
ATOM      6  C   UNL     1       4.372   1.170  -1.178  0.00  0.00    +0.000 A 
ENDROOT
BRANCH   1   8
ATOM      7  N   UNL     1       1.187   0.047   0.230  0.00  0.00    +0.000 N 
ATOM      8  C   UNL     1       2.524  -0.036  -0.046  0.00  0.00    +0.000 C 
ATOM      9  O   UNL     1       3.102  -1.114  -0.043  0.00  0.00    +0.000 OA
ATOM     10  H   UNL     1       0.703  -0.832   0.363  0.00  0.00    +0.000 HD
ATOM     11  H   UNL     1       0.634   0.858  -0.007  0.00  0.00    +0.000 HD
ENDBRANCH   1   8
BRANCH   4  12
ATOM     12  N   UNL     1       5.483   4.688  -1.228  0.00  0.00    +0.000 N 
ATOM     13  H   UNL     1       5.336   5.028  -2.180  0.00  0.00    +0.000 HD
BRANCH  12  14
ATOM     14  C   UNL     1       5.502   5.810  -0.278  0.00  0.00    +0.000 C 
BRANCH  14  15
ATOM     15  C   UNL     1       6.414   6.938  -0.736  0.00  0.00    +0.000 A 
ATOM     16  N   UNL     1       6.438   7.241  -2.055  0.00  0.00    +0.000 NA
ATOM     17  C   UNL     1       7.224   8.273  -2.416  0.00  0.00    +0.000 A 
ATOM     18  C   UNL     1       7.955   9.022  -1.523  0.00  0.00    +0.000 A 
ATOM     19  C   UNL     1       7.842   8.653  -0.205  0.00  0.00    +0.000 A 
ATOM     20  N   UNL     1       7.079   7.628   0.216  0.00  0.00    +0.000 NA
ENDBRANCH  14  15
ENDBRANCH  12  14
ENDBRANCH   4  12
TORSDOF 4
