REMARK  Name = 
REMARK  4 active torsions:
REMARK  status: ('A' for Active; 'I' for Inactive)
REMARK    1  A    between atoms: C_2  and  C_5
REMARK    2  A    between atoms: N_8  and  C_9
REMARK    3  A    between atoms: C_13  and  C_14
REMARK    4  A    between atoms: C_14  and  N_15
REMARK                            x       y       z     vdW  Elec       q    Type
REMARK                         _______ _______ _______ _____ _____    ______ ____
ROOT
ATOM      1  C   UNL     1       5.191  -4.092  -0.612  0.00  0.00    +0.000 A 
ATOM      2  C   UNL     1       4.980  -4.955  -1.695  0.00  0.00    +0.000 A 
ATOM      3  C   UNL     1       5.815  -6.054  -1.931  0.00  0.00    +0.000 A 
ATOM      4  C   UNL     1       6.902  -6.303  -1.097  0.00  0.00    +0.000 A 
ATOM      5  C   UNL     1       7.162  -5.449  -0.024  0.00  0.00    +0.000 A 
ATOM      6  C   UNL     1       6.289  -4.373   0.217  0.00  0.00    +0.000 A 
ENDROOT
BRANCH   1  10
ATOM      7  C   UNL     1       3.332  -0.368   0.164  0.00  0.00    +0.000 C 
ATOM      8  C   UNL     1       3.827  -0.787  -1.231  0.00  0.00    +0.000 C 
ATOM      9  C   UNL     1       3.709  -2.294  -1.465  0.00  0.00    +0.000 C 
ATOM     10  N   UNL     1       4.420  -2.963  -0.381  0.00  0.00    +0.000 N 
ATOM     11  C   UNL     1       3.902  -2.720   0.967  0.00  0.00    +0.000 C 
ATOM     12  C   UNL     1       4.006  -1.220   1.257  0.00  0.00    +0.000 C 
BRANCH   7  14
ATOM     13  F   UNL     1       1.212  -0.685  -0.907  0.00  0.00    +0.000 F 
ATOM     14  C   UNL     1       1.807  -0.392   0.270  0.00  0.00    +0.000 C 
ATOM     15  F   UNL     1       1.353   0.828   0.647  0.00  0.00    +0.000 F 
ATOM     16  F   UNL     1       1.357  -1.278   1.183  0.00  0.00    +0.000 F 
ENDBRANCH   7  14
ENDBRANCH   1  10
BRANCH   5  17
ATOM     17  C   UNL     1       8.378  -5.631   0.849  0.00  0.00    +0.000 C 
BRANCH  17  18
ATOM     18  N   UNL     1       8.049  -6.430   2.010  0.00  0.00    +0.000 N 
ATOM     19  C   UNL     1       9.132  -6.604   2.863  0.00  0.00    +0.000 A 
ATOM     20  N   UNL     1      10.038  -5.622   3.000  0.00  0.00    +0.000 NA
ATOM     21  C   UNL     1      11.069  -5.845   3.834  0.00  0.00    +0.000 A 
ATOM     22  C   UNL     1      11.233  -7.012   4.533  0.00  0.00    +0.000 A 
ATOM     23  C   UNL     1      10.259  -7.957   4.325  0.00  0.00    +0.000 A 
ATOM     24  N   UNL     1       9.210  -7.781   3.497  0.00  0.00    +0.000 NA
ATOM     25  H   UNL     1       7.678  -7.351   1.812  0.00  0.00    +0.000 HD
ENDBRANCH  17  18
ENDBRANCH   5  17
TORSDOF 4
