REMARK  Name = 
REMARK  5 active torsions:
REMARK  status: ('A' for Active; 'I' for Inactive)
REMARK    1  A    between atoms: C_2  and  C_3
REMARK    2  A    between atoms: C_6  and  N_7
REMARK    3  A    between atoms: N_7  and  C_8
REMARK    4  A    between atoms: C_8  and  C_9
REMARK    5  A    between atoms: C_13  and  C_14
REMARK                            x       y       z     vdW  Elec       q    Type
REMARK                         _______ _______ _______ _____ _____    ______ ____
ROOT
ATOM      1  C   UNL     1      -5.996   0.610  -0.170  0.00  0.00    +0.000 A 
ATOM      2  C   UNL     1      -6.399  -0.727  -0.260  0.00  0.00    +0.000 A 
ATOM      3  C   UNL     1      -7.751  -1.057  -0.188  0.00  0.00    +0.000 A 
ATOM      4  C   UNL     1      -8.709  -0.059  -0.006  0.00  0.00    +0.000 A 
ATOM      5  C   UNL     1      -8.347   1.294   0.122  0.00  0.00    +0.000 A 
ATOM      6  C   UNL     1      -6.978   1.604   0.001  0.00  0.00    +0.000 A 
ENDROOT
BRANCH   5   7
ATOM      7  C   UNL     1      -9.341   2.336   0.470  0.00  0.00    +0.000 A 
ATOM      8  C   UNL     1     -10.412   2.045   1.338  0.00  0.00    +0.000 A 
ATOM      9  C   UNL     1     -11.308   3.032   1.756  0.00  0.00    +0.000 A 
ATOM     10  C   UNL     1     -11.149   4.342   1.320  0.00  0.00    +0.000 A 
ATOM     11  C   UNL     1     -10.110   4.658   0.450  0.00  0.00    +0.000 A 
ATOM     12  C   UNL     1      -9.223   3.664   0.023  0.00  0.00    +0.000 A 
ENDBRANCH   5   7
BRANCH   1  13
ATOM     13  C   UNL     1      -4.532   0.993  -0.173  0.00  0.00    +0.000 C 
BRANCH  13  14
ATOM     14  N   UNL     1      -4.245   1.839  -1.326  0.00  0.00    +0.000 N 
ATOM     15  H   UNL     1      -4.661   1.468  -2.176  0.00  0.00    +0.000 HD
BRANCH  14  19
ATOM     16  C   UNL     1      -0.532   3.593  -2.061  0.00  0.00    +0.000 A 
ATOM     17  C   UNL     1      -0.837   3.251  -0.751  0.00  0.00    +0.000 A 
ATOM     18  C   UNL     1      -2.065   2.633  -0.486  0.00  0.00    +0.000 A 
ATOM     19  C   UNL     1      -2.960   2.352  -1.521  0.00  0.00    +0.000 A 
ATOM     20  C   UNL     1      -2.555   2.770  -2.794  0.00  0.00    +0.000 A 
ATOM     21  N   UNL     1      -1.370   3.362  -3.096  0.00  0.00    +0.000 NA
BRANCH  16  23
ATOM     22  N   UNL     1       1.725   4.767  -2.597  0.00  0.00    +0.000 NA
ATOM     23  C   UNL     1       0.712   4.242  -2.382  0.00  0.00    +0.000 C 
ENDBRANCH  16  23
ENDBRANCH  14  19
ENDBRANCH  13  14
ENDBRANCH   1  13
TORSDOF 5
