REMARK  Name = 
REMARK  3 active torsions:
REMARK  status: ('A' for Active; 'I' for Inactive)
REMARK    1  A    between atoms: C_2  and  C_4
REMARK    2  A    between atoms: N_8  and  C_9
REMARK    3  A    between atoms: C_9  and  C_10
REMARK                            x       y       z     vdW  Elec       q    Type
REMARK                         _______ _______ _______ _____ _____    ______ ____
ROOT
ATOM      1  C   UNL     1       3.222   2.980   2.558  0.00  0.00    +0.000 A 
ATOM      2  C   UNL     1       3.870   1.981   1.845  0.00  0.00    +0.000 A 
ATOM      3  C   UNL     1       4.612   1.028   2.544  0.00  0.00    +0.000 A 
ATOM      4  C   UNL     1       4.653   1.056   3.940  0.00  0.00    +0.000 A 
ATOM      5  N   UNL     1       5.345  -0.007   4.563  0.00  0.00    +0.000 N 
ATOM      6  N   UNL     1       4.027   2.023   4.640  0.00  0.00    +0.000 NA
ATOM      7  C   UNL     1       3.362   2.985   3.941  0.00  0.00    +0.000 A 
ATOM      8  H   UNL     1       6.305  -0.023   4.231  0.00  0.00    +0.000 HD
ENDROOT
BRANCH   1  10
ATOM      9  N   UNL     1       1.818   3.686   0.712  0.00  0.00    +0.000 N 
ATOM     10  C   UNL     1       2.421   4.026   1.894  0.00  0.00    +0.000 C 
ATOM     11  O   UNL     1       2.276   5.139   2.393  0.00  0.00    +0.000 OA
ATOM     12  H   UNL     1       1.199   4.379   0.305  0.00  0.00    +0.000 HD
ATOM     13  H   UNL     1       1.702   2.727   0.411  0.00  0.00    +0.000 HD
ENDBRANCH   1  10
BRANCH   5  14
ATOM     14  C   UNL     1       5.196  -0.352   5.991  0.00  0.00    +0.000 C 
ATOM     15  C   UNL     1       5.138  -1.857   6.235  0.00  0.00    +0.000 C 
ATOM     16  C   UNL     1       3.938  -1.022   6.520  0.00  0.00    +0.000 C 
BRANCH  14  17
ATOM     17  C   UNL     1       5.978   0.549   6.946  0.00  0.00    +0.000 A 
ATOM     18  C   UNL     1       5.328   1.641   7.561  0.00  0.00    +0.000 A 
ATOM     19  C   UNL     1       6.019   2.583   8.328  0.00  0.00    +0.000 A 
ATOM     20  C   UNL     1       7.388   2.447   8.519  0.00  0.00    +0.000 A 
ATOM     21  C   UNL     1       8.054   1.356   7.968  0.00  0.00    +0.000 A 
ATOM     22  C   UNL     1       7.358   0.419   7.193  0.00  0.00    +0.000 A 
ATOM     23 CL   UNL     1       8.281  -0.876   6.509  0.00  0.00    +0.000 Cl
ENDBRANCH  14  17
ENDBRANCH   5  14
TORSDOF 3
