REMARK  Name = 
REMARK  6 active torsions:
REMARK  status: ('A' for Active; 'I' for Inactive)
REMARK    1  A    between atoms: C_2  and  C_25
REMARK    2  A    between atoms: N_3  and  C_4
REMARK    3  A    between atoms: C_4  and  C_5
REMARK    4  A    between atoms: C_8  and  C_9
REMARK    5  A    between atoms: C_9  and  N_10
REMARK    6  A    between atoms: C_11  and  C_13
REMARK                            x       y       z     vdW  Elec       q    Type
REMARK                         _______ _______ _______ _____ _____    ______ ____
ROOT
ATOM      1  C   UNL     1       3.193   3.194  -1.901  0.00  0.00    +0.000 A 
ATOM      2  C   UNL     1       2.809   4.541  -1.884  0.00  0.00    +0.000 A 
ATOM      3  C   UNL     1       3.650   5.529  -2.406  0.00  0.00    +0.000 A 
ATOM      4  C   UNL     1       4.885   5.187  -2.973  0.00  0.00    +0.000 A 
ATOM      5  C   UNL     1       5.273   3.840  -2.981  0.00  0.00    +0.000 A 
ATOM      6  C   UNL     1       4.431   2.853  -2.460  0.00  0.00    +0.000 A 
ENDROOT
BRANCH   1   7
ATOM      7  C   UNL     1       2.290   2.130  -1.337  0.00  0.00    +0.000 C 
BRANCH   7  10
ATOM      8  O   UNL     1       0.315   0.196  -0.859  0.00  0.00    +0.000 OA
ATOM      9  C   UNL     1       0.444   0.652  -1.991  0.00  0.00    +0.000 C 
ATOM     10  N   UNL     1       1.392   1.593  -2.326  0.00  0.00    +0.000 N 
ATOM     11  H   UNL     1       1.430   1.902  -3.294  0.00  0.00    +0.000 HD
BRANCH   9  12
ATOM     12  C   UNL     1      -0.448   0.215  -3.114  0.00  0.00    +0.000 A 
ATOM     13  C   UNL     1      -1.447  -0.720  -2.869  0.00  0.00    +0.000 A 
ATOM     14  C   UNL     1      -2.276  -1.090  -3.923  0.00  0.00    +0.000 A 
ATOM     15  C   UNL     1      -2.079  -0.519  -5.177  0.00  0.00    +0.000 A 
ATOM     16  C   UNL     1      -1.053   0.404  -5.328  0.00  0.00    +0.000 A 
ATOM     17  N   UNL     1      -0.225   0.790  -4.330  0.00  0.00    +0.000 NA
ENDBRANCH   9  12
ENDBRANCH   7  10
ENDBRANCH   1   7
BRANCH   4  18
ATOM     18  C   UNL     1       5.798   6.244  -3.537  0.00  0.00    +0.000 C 
BRANCH  18  19
ATOM     19  N   UNL     1       6.704   6.746  -2.534  0.00  0.00    +0.000 N 
ATOM     20  C   UNL     1       7.563   7.780  -2.809  0.00  0.00    +0.000 C 
ATOM     21  O   UNL     1       7.563   8.346  -3.899  0.00  0.00    +0.000 OA
ATOM     22  H   UNL     1       6.880   6.148  -1.733  0.00  0.00    +0.000 HD
BRANCH  20  23
ATOM     23  C   UNL     1       8.443   8.217  -1.720  0.00  0.00    +0.000 A 
ATOM     24  C   UNL     1       8.974   9.500  -1.742  0.00  0.00    +0.000 A 
ATOM     25  S   UNL     1       9.921   9.873  -0.374  0.00  0.00    +0.000 S 
ATOM     26  C   UNL     1       9.700   8.315   0.271  0.00  0.00    +0.000 A 
ATOM     27  N   UNL     1      10.277   7.958   1.450  0.00  0.00    +0.000 NA
ATOM     28  C   UNL     1      10.056   6.737   1.804  0.00  0.00    +0.000 A 
ATOM     29  N   UNL     1       9.306   5.840   1.088  0.00  0.00    +0.000 N 
ATOM     30  C   UNL     1       8.681   6.163  -0.093  0.00  0.00    +0.000 A 
ATOM     31  O   UNL     1       7.989   5.347  -0.692  0.00  0.00    +0.000 OA
ATOM     32  C   UNL     1       8.904   7.525  -0.540  0.00  0.00    +0.000 A 
ATOM     33  H   UNL     1       9.167   4.898   1.423  0.00  0.00    +0.000 HD
ENDBRANCH  20  23
ENDBRANCH  18  19
ENDBRANCH   4  18
TORSDOF 6
