REMARK  Name = 
REMARK  9 active torsions:
REMARK  status: ('A' for Active; 'I' for Inactive)
REMARK    1  A    between atoms: C_1  and  O_2
REMARK    2  A    between atoms: O_2  and  C_3
REMARK    3  A    between atoms: C_10  and  C_11
REMARK    4  A    between atoms: N_13  and  C_14
REMARK    5  A    between atoms: C_14  and  C_15
REMARK    6  A    between atoms: C_18  and  C_19
REMARK    7  A    between atoms: C_19  and  O_20
REMARK    8  A    between atoms: O_20  and  C_21
REMARK    9  A    between atoms: C_21  and  C_22
REMARK                            x       y       z     vdW  Elec       q    Type
REMARK                         _______ _______ _______ _____ _____    ______ ____
ROOT
ATOM      1  C   UNL     1       2.825  -2.811  -2.029  0.00  0.00    +0.000 C 
ENDROOT
BRANCH   1   2
ATOM      2  C   UNL     1       1.694  -3.228  -1.126  0.00  0.00    +0.000 A 
ATOM      3  C   UNL     1       1.582  -4.551  -0.680  0.00  0.00    +0.000 A 
ATOM      4  C   UNL     1       0.577  -4.912   0.224  0.00  0.00    +0.000 A 
ATOM      5  C   UNL     1      -0.340  -3.961   0.693  0.00  0.00    +0.000 A 
ATOM      6  C   UNL     1      -0.259  -2.651   0.203  0.00  0.00    +0.000 A 
ATOM      7  C   UNL     1       0.744  -2.290  -0.702  0.00  0.00    +0.000 A 
BRANCH   5   8
ATOM      8  C   UNL     1      -1.375  -4.337   1.725  0.00  0.00    +0.000 C 
BRANCH   8   9
ATOM      9  O   UNL     1      -0.695  -4.806   2.885  0.00  0.00    +0.000 OA
BRANCH   9  10
ATOM     10  C   UNL     1      -1.592  -5.100   3.958  0.00  0.00    +0.000 C 
BRANCH  10  11
ATOM     11  C   UNL     1      -0.831  -5.597   5.169  0.00  0.00    +0.000 A 
ATOM     12  C   UNL     1       0.452  -5.125   5.446  0.00  0.00    +0.000 A 
ATOM     13  C   UNL     1       1.123  -5.600   6.569  0.00  0.00    +0.000 A 
ATOM     14  C   UNL     1       0.494  -6.519   7.397  0.00  0.00    +0.000 A 
ATOM     15  C   UNL     1      -0.790  -6.921   7.068  0.00  0.00    +0.000 A 
ATOM     16  N   UNL     1      -1.467  -6.479   5.983  0.00  0.00    +0.000 NA
ENDBRANCH  10  11
ENDBRANCH   9  10
ENDBRANCH   8   9
ENDBRANCH   5   8
ENDBRANCH   1   2
BRANCH   1  19
ATOM     17  C   UNL     1       3.381  -2.573  -4.397  0.00  0.00    +0.000 C 
ATOM     18  O   UNL     1       4.486  -2.119  -4.102  0.00  0.00    +0.000 OA
ATOM     19  N   UNL     1       2.487  -2.933  -3.424  0.00  0.00    +0.000 N 
ATOM     20  H   UNL     1       1.588  -3.328  -3.667  0.00  0.00    +0.000 HD
BRANCH  17  28
ATOM     21  C   UNL     1       0.531  -3.751  -5.939  0.00  0.00    +0.000 A 
ATOM     22  N   UNL     1      -0.419  -4.193  -6.789  0.00  0.00    +0.000 NA
ATOM     23  C   UNL     1      -0.170  -4.129  -8.099  0.00  0.00    +0.000 A 
ATOM     24  N   UNL     1       0.931  -3.665  -8.682  0.00  0.00    +0.000 NA
ATOM     25  C   UNL     1       1.857  -3.250  -7.801  0.00  0.00    +0.000 A 
ATOM     26  S   UNL     1       3.326  -2.621  -8.372  0.00  0.00    +0.000 S 
ATOM     27  C   UNL     1       3.886  -2.366  -6.790  0.00  0.00    +0.000 A 
ATOM     28  C   UNL     1       2.983  -2.746  -5.803  0.00  0.00    +0.000 A 
ATOM     29  C   UNL     1       1.761  -3.264  -6.412  0.00  0.00    +0.000 A 
BRANCH  21  31
ATOM     30  C   UNL     1      -1.129  -3.814  -4.297  0.00  0.00    +0.000 C 
ATOM     31  O   UNL     1       0.268  -3.811  -4.585  0.00  0.00    +0.000 OA
ENDBRANCH  21  31
ENDBRANCH  17  28
ENDBRANCH   1  19
TORSDOF 8
