REMARK  Name = 
REMARK  7 active torsions:
REMARK  status: ('A' for Active; 'I' for Inactive)
REMARK    1  A    between atoms: C_2  and  C_19
REMARK    2  A    between atoms: N_3  and  C_4
REMARK    3  A    between atoms: C_4  and  C_5
REMARK    4  A    between atoms: C_8  and  C_9
REMARK    5  A    between atoms: C_9  and  N_10
REMARK    6  A    between atoms: N_10  and  C_11
REMARK    7  A    between atoms: C_11  and  C_12
REMARK                            x       y       z     vdW  Elec       q    Type
REMARK                         _______ _______ _______ _____ _____    ______ ____
ROOT
ATOM      1  C   UNL     1      10.848 -11.922   1.168  0.00  0.00    +0.000 C 
ENDROOT
BRANCH   1   2
ATOM      2  C   UNL     1      10.893 -10.617   1.925  0.00  0.00    +0.000 A 
ATOM      3  C   UNL     1       9.856 -10.280   2.790  0.00  0.00    +0.000 A 
ATOM      4  C   UNL     1       9.919  -9.075   3.480  0.00  0.00    +0.000 A 
ATOM      5  C   UNL     1      11.011  -8.224   3.295  0.00  0.00    +0.000 A 
ATOM      6  C   UNL     1      11.986  -8.631   2.391  0.00  0.00    +0.000 A 
ATOM      7  N   UNL     1      11.954  -9.797   1.704  0.00  0.00    +0.000 NA
BRANCH   5   8
ATOM      8  C   UNL     1      11.117  -6.912   4.024  0.00  0.00    +0.000 C 
BRANCH   8   9
ATOM      9  N   UNL     1      11.104  -7.110   5.474  0.00  0.00    +0.000 NA
ATOM     10  H   UNL     1      11.856  -7.753   5.730  0.00  0.00    +0.000 HD
BRANCH   9  11
ATOM     11  C   UNL     1      11.293  -5.839   6.186  0.00  0.00    +0.000 C 
BRANCH  11  12
ATOM     12  C   UNL     1      11.327  -6.072   7.720  0.00  0.00    +0.000 C 
ATOM     13  C   UNL     1      11.444  -4.782   8.515  0.00  0.00    +0.000 C 
ATOM     14  C   UNL     1      10.013  -4.286   8.603  0.00  0.00    +0.000 C 
ATOM     15  C   UNL     1       9.161  -5.545   8.511  0.00  0.00    +0.000 C 
ATOM     16  N   UNL     1      10.074  -6.655   8.228  0.00  0.00    +0.000 NA
ATOM     17  H   UNL     1       9.684  -7.264   7.503  0.00  0.00    +0.000 HD
ENDBRANCH  11  12
ENDBRANCH   9  11
ENDBRANCH   8   9
ENDBRANCH   5   8
ENDBRANCH   1   2
BRANCH   1  20
ATOM     18  O   UNL     1       8.080 -12.366   0.760  0.00  0.00    +0.000 OA
ATOM     19  C   UNL     1       8.794 -12.085  -0.199  0.00  0.00    +0.000 C 
ATOM     20  N   UNL     1      10.126 -11.803  -0.075  0.00  0.00    +0.000 N 
ATOM     21  H   UNL     1      10.681 -11.575  -0.888  0.00  0.00    +0.000 HD
BRANCH  19  22
ATOM     22  C   UNL     1       8.255 -11.973  -1.557  0.00  0.00    +0.000 A 
ATOM     23  C   UNL     1       6.924 -11.643  -1.766  0.00  0.00    +0.000 A 
ATOM     24  S   UNL     1       6.516 -11.497  -3.418  0.00  0.00    +0.000 S 
ATOM     25  C   UNL     1       8.094 -11.915  -3.904  0.00  0.00    +0.000 A 
ATOM     26  N   UNL     1       8.436 -11.965  -5.220  0.00  0.00    +0.000 NA
ATOM     27  C   UNL     1       9.659 -12.320  -5.440  0.00  0.00    +0.000 A 
ATOM     28  N   UNL     1      10.567 -12.644  -4.465  0.00  0.00    +0.000 N 
ATOM     29  C   UNL     1      10.267 -12.609  -3.125  0.00  0.00    +0.000 A 
ATOM     30  O   UNL     1      11.108 -12.902  -2.283  0.00  0.00    +0.000 OA
ATOM     31  C   UNL     1       8.914 -12.180  -2.824  0.00  0.00    +0.000 A 
ATOM     32  H   UNL     1      11.507 -12.924  -4.702  0.00  0.00    +0.000 HD
ENDBRANCH  19  22
ENDBRANCH   1  20
TORSDOF 7
