REMARK  Name = 
REMARK  6 active torsions:
REMARK  status: ('A' for Active; 'I' for Inactive)
REMARK    1  A    between atoms: N_1  and  C_2
REMARK    2  A    between atoms: C_2  and  C_3
REMARK    3  A    between atoms: C_6  and  C_7
REMARK    4  A    between atoms: C_7  and  O_8
REMARK    5  A    between atoms: O_8  and  C_9
REMARK    6  A    between atoms: C_14  and  C_15
REMARK                            x       y       z     vdW  Elec       q    Type
REMARK                         _______ _______ _______ _____ _____    ______ ____
ROOT
ATOM      1  O   UNL     1       3.959  -3.719   4.968  0.00  0.00    +0.000 OA
ENDROOT
BRANCH   1   2
ATOM      2  C   UNL     1       4.165  -4.381   6.150  0.00  0.00    +0.000 A 
ATOM      3  C   UNL     1       4.592  -3.798   7.345  0.00  0.00    +0.000 A 
ATOM      4  C   UNL     1       4.779  -4.586   8.483  0.00  0.00    +0.000 A 
ATOM      5  C   UNL     1       4.539  -5.955   8.430  0.00  0.00    +0.000 A 
ATOM      6  F   UNL     1       4.736  -6.669   9.550  0.00  0.00    +0.000 F 
ATOM      7  C   UNL     1       4.113  -6.562   7.248  0.00  0.00    +0.000 A 
ATOM      8  C   UNL     1       3.929  -5.762   6.107  0.00  0.00    +0.000 A 
BRANCH   7   9
ATOM      9  C   UNL     1       3.843  -8.020   7.151  0.00  0.00    +0.000 C 
ATOM     10  N   UNL     1       4.018  -8.785   8.270  0.00  0.00    +0.000 N 
ATOM     11  O   UNL     1       3.475  -8.535   6.101  0.00  0.00    +0.000 OA
ATOM     12  H   UNL     1       4.321  -8.406   9.158  0.00  0.00    +0.000 HD
ATOM     13  H   UNL     1       3.833  -9.776   8.205  0.00  0.00    +0.000 HD
ENDBRANCH   7   9
ENDBRANCH   1   2
BRANCH   1  14
ATOM     14  C   UNL     1       4.071  -2.294   4.998  0.00  0.00    +0.000 C 
BRANCH  14  18
ATOM     15  C   UNL     1       3.183  -0.617   1.235  0.00  0.00    +0.000 A 
ATOM     16  C   UNL     1       2.198  -0.791   2.201  0.00  0.00    +0.000 A 
ATOM     17  N   UNL     1       2.442  -1.341   3.416  0.00  0.00    +0.000 NA
ATOM     18  C   UNL     1       3.726  -1.719   3.648  0.00  0.00    +0.000 A 
ATOM     19  C   UNL     1       4.710  -1.551   2.678  0.00  0.00    +0.000 A 
ATOM     20  N   UNL     1       4.470  -0.991   1.466  0.00  0.00    +0.000 NA
BRANCH  15  21
ATOM     21  C   UNL     1       2.863   0.058  -0.075  0.00  0.00    +0.000 C 
BRANCH  21  22
ATOM     22  N   UNL     1       3.043   1.510  -0.004  0.00  0.00    +0.000 NA
ATOM     23  H   UNL     1       2.922   1.904  -0.935  0.00  0.00    +0.000 HD
ATOM     24  H   UNL     1       4.017   1.686   0.249  0.00  0.00    +0.000 HD
ENDBRANCH  21  22
ENDBRANCH  15  21
ENDBRANCH  14  18
ENDBRANCH   1  14
TORSDOF 6
