REMARK  Name = 
REMARK  5 active torsions:
REMARK  status: ('A' for Active; 'I' for Inactive)
REMARK    1  A    between atoms: C_2  and  C_4
REMARK    2  A    between atoms: C_7  and  N_8
REMARK    3  A    between atoms: N_8  and  C_9
REMARK    4  A    between atoms: C_9  and  C_10
REMARK    5  A    between atoms: C_14  and  N_15
REMARK                            x       y       z     vdW  Elec       q    Type
REMARK                         _______ _______ _______ _____ _____    ______ ____
ROOT
ATOM      1  N   UNL     1       5.185  -3.763   3.361  0.00  0.00    +0.000 N 
ATOM      2  H   UNL     1       4.731  -3.753   4.270  0.00  0.00    +0.000 HD
ENDROOT
BRANCH   1   6
ATOM      3  C   UNL     1       4.240  -0.483   0.877  0.00  0.00    +0.000 A 
ATOM      4  C   UNL     1       4.374  -1.751   0.313  0.00  0.00    +0.000 A 
ATOM      5  C   UNL     1       4.642  -2.857   1.131  0.00  0.00    +0.000 A 
ATOM      6  C   UNL     1       4.768  -2.731   2.520  0.00  0.00    +0.000 A 
ATOM      7  C   UNL     1       4.617  -1.448   3.069  0.00  0.00    +0.000 A 
ATOM      8  C   UNL     1       4.362  -0.334   2.259  0.00  0.00    +0.000 A 
BRANCH   3  10
ATOM      9  N   UNL     1       3.418   0.571  -1.164  0.00  0.00    +0.000 N 
ATOM     10  C   UNL     1       4.042   0.729   0.039  0.00  0.00    +0.000 C 
ATOM     11  O   UNL     1       4.404   1.835   0.420  0.00  0.00    +0.000 OA
ATOM     12  H   UNL     1       3.213   1.421  -1.675  0.00  0.00    +0.000 HD
ATOM     13  H   UNL     1       2.887  -0.257  -1.396  0.00  0.00    +0.000 HD
ENDBRANCH   3  10
ENDBRANCH   1   6
BRANCH   1  14
ATOM     14  C   UNL     1       5.463  -5.099   2.850  0.00  0.00    +0.000 C 
BRANCH  14  15
ATOM     15  C   UNL     1       6.417  -5.864   3.730  0.00  0.00    +0.000 A 
ATOM     16  C   UNL     1       6.379  -7.254   3.718  0.00  0.00    +0.000 A 
ATOM     17  N   UNL     1       7.242  -8.042   4.385  0.00  0.00    +0.000 NA
ATOM     18  C   UNL     1       8.211  -7.406   5.090  0.00  0.00    +0.000 A 
ATOM     19  C   UNL     1       8.392  -6.022   5.173  0.00  0.00    +0.000 A 
ATOM     20  C   UNL     1       7.453  -5.262   4.460  0.00  0.00    +0.000 A 
BRANCH  19  21
ATOM     21  N   UNL     1       9.421  -5.437   5.884  0.00  0.00    +0.000 N 
ATOM     22  C   UNL     1      10.718  -6.096   6.058  0.00  0.00    +0.000 C 
ATOM     23  C   UNL     1      10.985  -6.334   7.542  0.00  0.00    +0.000 C 
ATOM     24  C   UNL     1      10.840  -5.041   8.343  0.00  0.00    +0.000 C 
ATOM     25  C   UNL     1       9.489  -4.377   8.081  0.00  0.00    +0.000 C 
ATOM     26  C   UNL     1       9.242  -4.166   6.585  0.00  0.00    +0.000 C 
ENDBRANCH  19  21
ENDBRANCH  14  15
ENDBRANCH   1  14
TORSDOF 5
