REMARK  Name = 
REMARK  6 active torsions:
REMARK  status: ('A' for Active; 'I' for Inactive)
REMARK    1  A    between atoms: C_1  and  C_2
REMARK    2  A    between atoms: C_2  and  C_3
REMARK    3  A    between atoms: C_2  and  C_4
REMARK    4  A    between atoms: C_2  and  C_15
REMARK    5  A    between atoms: C_5  and  C_6
REMARK    6  A    between atoms: C_9  and  C_10
REMARK                            x       y       z     vdW  Elec       q    Type
REMARK                         _______ _______ _______ _____ _____    ______ ____
ROOT
ATOM      1  C   UNL     1       3.041  -0.149   1.389  0.00  0.00    +0.000 C 
ATOM      2  C   UNL     1       2.295  -0.193   2.508  0.00  0.00    +0.000 C 
ENDROOT
BRANCH   2   3
ATOM      3  C   UNL     1       2.838  -0.264   3.868  0.00  0.00    +0.000 A 
ATOM      4  C   UNL     1       4.021  -0.938   4.177  0.00  0.00    +0.000 A 
ATOM      5  C   UNL     1       4.475  -0.972   5.494  0.00  0.00    +0.000 A 
ATOM      6  C   UNL     1       3.715  -0.340   6.468  0.00  0.00    +0.000 A 
ATOM      7  N   UNL     1       2.539   0.301   6.219  0.00  0.00    +0.000 NA
ATOM      8  C   UNL     1       2.135   0.315   4.927  0.00  0.00    +0.000 A 
BRANCH   6   9
ATOM      9  C   UNL     1       4.188  -0.345   7.887  0.00  0.00    +0.000 C 
ATOM     10  N   UNL     1       3.375   0.305   8.777  0.00  0.00    +0.000 N 
ATOM     11  O   UNL     1       5.226  -0.885   8.239  0.00  0.00    +0.000 OA
ATOM     12  H   UNL     1       2.524   0.746   8.445  0.00  0.00    +0.000 HD
ATOM     13  H   UNL     1       3.637   0.349   9.752  0.00  0.00    +0.000 HD
ENDBRANCH   6   9
ENDBRANCH   2   3
BRANCH   1  15
ATOM     14  C   UNL     1       0.981  -0.008  -0.128  0.00  0.00    +0.000 C 
ATOM     15  C   UNL     1       2.527  -0.056  -0.053  0.00  0.00    +0.000 C 
ATOM     16  C   UNL     1       3.037   1.294  -0.611  0.00  0.00    +0.000 C 
BRANCH  15  17
ATOM     17  C   UNL     1       3.035  -1.273  -0.857  0.00  0.00    +0.000 A 
ATOM     18  C   UNL     1       3.860  -1.149  -1.990  0.00  0.00    +0.000 A 
ATOM     19  C   UNL     1       4.297  -2.273  -2.698  0.00  0.00    +0.000 A 
ATOM     20  C   UNL     1       3.924  -3.548  -2.288  0.00  0.00    +0.000 A 
ATOM     21  C   UNL     1       3.116  -3.700  -1.167  0.00  0.00    +0.000 A 
ATOM     22  C   UNL     1       2.678  -2.577  -0.459  0.00  0.00    +0.000 A 
ENDBRANCH  15  17
ENDBRANCH   1  15
TORSDOF 4
