REMARK  Name = 
REMARK  7 active torsions:
REMARK  status: ('A' for Active; 'I' for Inactive)
REMARK    1  A    between atoms: C_2  and  C_4
REMARK    2  A    between atoms: N_8  and  C_9
REMARK    3  A    between atoms: C_9  and  C_10
REMARK    4  A    between atoms: C_10  and  C_11
REMARK    5  A    between atoms: C_15  and  O_16
REMARK    6  A    between atoms: O_16  and  C_17
REMARK    7  A    between atoms: C_19  and  C_20
REMARK                            x       y       z     vdW  Elec       q    Type
REMARK                         _______ _______ _______ _____ _____    ______ ____
ROOT
ATOM      1  C   UNL     1       6.111   1.214   6.973  0.00  0.00    +0.000 C 
ENDROOT
BRANCH   1   2
ATOM      2  C   UNL     1       5.931   0.525   8.316  0.00  0.00    +0.000 A 
ATOM      3  C   UNL     1       5.915  -0.869   8.470  0.00  0.00    +0.000 A 
ATOM      4  C   UNL     1       5.752  -1.455   9.725  0.00  0.00    +0.000 A 
ATOM      5  C   UNL     1       5.601  -0.660  10.856  0.00  0.00    +0.000 A 
ATOM      6  C   UNL     1       5.604   0.726  10.727  0.00  0.00    +0.000 A 
ATOM      7  C   UNL     1       5.772   1.313   9.467  0.00  0.00    +0.000 A 
BRANCH   6   8
ATOM      8  O   UNL     1       5.485   1.601  11.776  0.00  0.00    +0.000 OA
BRANCH   8   9
ATOM      9  C   UNL     1       4.862   1.149  12.997  0.00  0.00    +0.000 C 
ATOM     10  C   UNL     1       3.335   0.901  12.955  0.00  0.00    +0.000 C 
ATOM     11  C   UNL     1       3.177   1.734  14.251  0.00  0.00    +0.000 C 
ATOM     12  C   UNL     1       4.599   2.284  14.006  0.00  0.00    +0.000 C 
BRANCH  11  13
ATOM     13  C   UNL     1       2.950   0.982  15.544  0.00  0.00    +0.000 C 
ATOM     14  F   UNL     1       3.079  -0.353  15.377  0.00  0.00    +0.000 F 
ATOM     15  F   UNL     1       3.827   1.367  16.498  0.00  0.00    +0.000 F 
ATOM     16  F   UNL     1       1.704   1.225  16.010  0.00  0.00    +0.000 F 
ENDBRANCH  11  13
ENDBRANCH   8   9
ENDBRANCH   6   8
ENDBRANCH   1   2
BRANCH   1  17
ATOM     17  C   UNL     1       6.296   0.253   5.793  0.00  0.00    +0.000 C 
BRANCH  17  22
ATOM     18  C   UNL     1       7.012  -1.187   1.016  0.00  0.00    +0.000 A 
ATOM     19  C   UNL     1       6.288  -1.801   2.028  0.00  0.00    +0.000 A 
ATOM     20  C   UNL     1       6.077  -1.110   3.219  0.00  0.00    +0.000 A 
ATOM     21  C   UNL     1       6.614   0.166   3.390  0.00  0.00    +0.000 A 
ATOM     22  N   UNL     1       6.371   0.944   4.517  0.00  0.00    +0.000 N 
ATOM     23  N   UNL     1       7.358   0.750   2.432  0.00  0.00    +0.000 NA
ATOM     24  C   UNL     1       7.547   0.066   1.269  0.00  0.00    +0.000 A 
ATOM     25  H   UNL     1       7.005   1.740   4.468  0.00  0.00    +0.000 HD
BRANCH  18  27
ATOM     26  N   UNL     1       6.270  -2.704  -0.727  0.00  0.00    +0.000 N 
ATOM     27  C   UNL     1       7.218  -1.811  -0.304  0.00  0.00    +0.000 C 
ATOM     28  O   UNL     1       8.169  -1.515  -1.009  0.00  0.00    +0.000 OA
ATOM     29  H   UNL     1       6.359  -3.029  -1.684  0.00  0.00    +0.000 HD
ATOM     30  H   UNL     1       5.356  -2.762  -0.303  0.00  0.00    +0.000 HD
ENDBRANCH  18  27
ENDBRANCH  17  22
ENDBRANCH   1  17
TORSDOF 7
