REMARK  Name = 
REMARK  5 active torsions:
REMARK  status: ('A' for Active; 'I' for Inactive)
REMARK    1  A    between atoms: C_2  and  C_4
REMARK    2  A    between atoms: N_8  and  C_9
REMARK    3  A    between atoms: C_9  and  C_10
REMARK    4  A    between atoms: C_10  and  C_13
REMARK    5  A    between atoms: C_17  and  N_18
REMARK                            x       y       z     vdW  Elec       q    Type
REMARK                         _______ _______ _______ _____ _____    ______ ____
ROOT
ATOM      1  C   UNL     1       6.101   1.028   6.950  0.00  0.00    +0.000 C 
ATOM      2  F   UNL     1       5.463   2.235   6.867  0.00  0.00    +0.000 F 
ATOM      3  F   UNL     1       5.613   0.288   5.910  0.00  0.00    +0.000 F 
ENDROOT
BRANCH   1   4
ATOM      4  C   UNL     1       5.874   0.345   8.286  0.00  0.00    +0.000 A 
ATOM      5  C   UNL     1       5.828  -1.048   8.378  0.00  0.00    +0.000 A 
ATOM      6  C   UNL     1       5.706  -1.657   9.624  0.00  0.00    +0.000 A 
ATOM      7  C   UNL     1       5.662  -0.875  10.781  0.00  0.00    +0.000 A 
ATOM      8  C   UNL     1       5.722   0.524  10.733  0.00  0.00    +0.000 A 
ATOM      9  C   UNL     1       5.789   1.112   9.462  0.00  0.00    +0.000 A 
BRANCH   8  10
ATOM     10  N   UNL     1       5.740   1.278  11.886  0.00  0.00    +0.000 N 
ATOM     11  C   UNL     1       5.206   2.643  11.971  0.00  0.00    +0.000 C 
ATOM     12  C   UNL     1       6.303   3.602  12.454  0.00  0.00    +0.000 C 
ATOM     13  O   UNL     1       6.871   3.167  13.701  0.00  0.00    +0.000 OA
ATOM     14  C   UNL     1       7.448   1.859  13.560  0.00  0.00    +0.000 C 
ATOM     15  C   UNL     1       6.408   0.815  13.113  0.00  0.00    +0.000 C 
ENDBRANCH   8  10
ENDBRANCH   1   4
BRANCH   1  16
ATOM     16  C   UNL     1       7.622   1.266   6.733  0.00  0.00    +0.000 C 
BRANCH  16  21
ATOM     17  C   UNL     1      11.771   2.773   4.159  0.00  0.00    +0.000 A 
ATOM     18  C   UNL     1      11.620   1.741   5.080  0.00  0.00    +0.000 A 
ATOM     19  C   UNL     1      10.340   1.428   5.539  0.00  0.00    +0.000 A 
ATOM     20  C   UNL     1       9.238   2.140   5.075  0.00  0.00    +0.000 A 
ATOM     21  N   UNL     1       7.940   1.801   5.403  0.00  0.00    +0.000 N 
ATOM     22  N   UNL     1       9.379   3.161   4.209  0.00  0.00    +0.000 NA
ATOM     23  C   UNL     1      10.635   3.466   3.775  0.00  0.00    +0.000 A 
ATOM     24  H   UNL     1       7.298   2.505   5.039  0.00  0.00    +0.000 HD
BRANCH  17  26
ATOM     25  N   UNL     1      14.019   2.146   3.492  0.00  0.00    +0.000 N 
ATOM     26  C   UNL     1      13.087   3.144   3.594  0.00  0.00    +0.000 C 
ATOM     27  O   UNL     1      13.319   4.277   3.206  0.00  0.00    +0.000 OA
ATOM     28  H   UNL     1      14.883   2.383   3.018  0.00  0.00    +0.000 HD
ATOM     29  H   UNL     1      13.784   1.168   3.567  0.00  0.00    +0.000 HD
ENDBRANCH  17  26
ENDBRANCH  16  21
ENDBRANCH   1  16
TORSDOF 5
