REMARK  Name = 
REMARK  6 active torsions:
REMARK  status: ('A' for Active; 'I' for Inactive)
REMARK    1  A    between atoms: C_1  and  C_2
REMARK    2  A    between atoms: C_4  and  C_5
REMARK    3  A    between atoms: C_10  and  O_11
REMARK    4  A    between atoms: O_11  and  C_12
REMARK    5  A    between atoms: C_12  and  C_13
REMARK    6  A    between atoms: C_12  and  C_14
REMARK                            x       y       z     vdW  Elec       q    Type
REMARK                         _______ _______ _______ _____ _____    ______ ____
ROOT
ATOM      1  C   UNL     1       2.459   0.249   0.325  0.00  0.00    +0.000 C 
ATOM      2  C   UNL     1       0.966   0.131   0.177  0.00  0.00    +0.000 A 
ATOM      3  C   UNL     1       0.202   1.314   0.142  0.00  0.00    +0.000 A 
ATOM      4  C   UNL     1      -1.197   1.280   0.050  0.00  0.00    +0.000 A 
ATOM      5  C   UNL     1      -1.838   0.044   0.038  0.00  0.00    +0.000 A 
ATOM      6  C   UNL     1      -1.089  -1.133   0.076  0.00  0.00    +0.000 A 
ATOM      7  C   UNL     1       0.312  -1.110   0.070  0.00  0.00    +0.000 A 
ENDROOT
BRANCH   4   8
ATOM      8  C   UNL     1      -1.932   2.575  -0.020  0.00  0.00    +0.000 C 
ATOM      9  N   UNL     1      -3.299   2.544  -0.094  0.00  0.00    +0.000 N 
ATOM     10  O   UNL     1      -1.347   3.645  -0.017  0.00  0.00    +0.000 OA
ATOM     11  H   UNL     1      -3.870   1.717  -0.112  0.00  0.00    +0.000 HD
ATOM     12  H   UNL     1      -3.764   3.441  -0.149  0.00  0.00    +0.000 HD
ENDBRANCH   4   8
BRANCH   7  13
ATOM     13  O   UNL     1       1.078  -2.251  -0.027  0.00  0.00    +0.000 OA
BRANCH  13  14
ATOM     14  C   UNL     1       0.458  -3.377  -0.688  0.00  0.00    +0.000 C 
ATOM     15  C   UNL     1       0.100  -4.456   0.338  0.00  0.00    +0.000 C 
BRANCH  14  16
ATOM     16  C   UNL     1       1.339  -3.981  -1.769  0.00  0.00    +0.000 A 
ATOM     17  C   UNL     1       2.735  -3.965  -1.693  0.00  0.00    +0.000 A 
ATOM     18  C   UNL     1       3.501  -4.589  -2.681  0.00  0.00    +0.000 A 
ATOM     19  C   UNL     1       2.880  -5.238  -3.748  0.00  0.00    +0.000 A 
ATOM     20  C   UNL     1       1.490  -5.261  -3.837  0.00  0.00    +0.000 A 
ATOM     21  C   UNL     1       0.726  -4.640  -2.853  0.00  0.00    +0.000 A 
ENDBRANCH  14  16
ENDBRANCH  13  14
ENDBRANCH   7  13
TORSDOF 4
