REMARK  Name = 
REMARK  3 active torsions:
REMARK  status: ('A' for Active; 'I' for Inactive)
REMARK    1  A    between atoms: C_2  and  C_4
REMARK    2  A    between atoms: N_11  and  C_12
REMARK    3  A    between atoms: C_12  and  C_13
REMARK                            x       y       z     vdW  Elec       q    Type
REMARK                         _______ _______ _______ _____ _____    ______ ____
ROOT
ATOM      1  C   UNL     1       3.192   0.009  -1.260  0.00  0.00    +0.000 A 
ATOM      2  C   UNL     1       2.823   0.841  -2.312  0.00  0.00    +0.000 A 
ATOM      3  N   UNL     1       3.467   0.952  -3.503  0.00  0.00    +0.000 NA
ATOM      4  C   UNL     1       4.530   0.126  -3.607  0.00  0.00    +0.000 A 
ATOM      5  C   UNL     1       4.981  -0.780  -2.648  0.00  0.00    +0.000 A 
ATOM      6  C   UNL     1       6.103  -1.452  -3.199  0.00  0.00    +0.000 A 
ATOM      7  C   UNL     1       6.322  -0.934  -4.457  0.00  0.00    +0.000 A 
ATOM      8  N   UNL     1       5.367   0.029  -4.693  0.00  0.00    +0.000 N 
ATOM      9  C   UNL     1       4.289  -0.843  -1.428  0.00  0.00    +0.000 A 
ENDROOT
BRANCH   1  11
ATOM     10  N   UNL     1       3.061  -0.298   1.146  0.00  0.00    +0.000 N 
ATOM     11  C   UNL     1       2.411   0.051  -0.007  0.00  0.00    +0.000 C 
ATOM     12  O   UNL     1       1.245   0.421   0.010  0.00  0.00    +0.000 OA
ATOM     13  H   UNL     1       2.549  -0.165   2.011  0.00  0.00    +0.000 HD
ATOM     14  H   UNL     1       4.066  -0.377   1.207  0.00  0.00    +0.000 HD
ENDBRANCH   1  11
BRANCH   8  15
ATOM     15  C   UNL     1       5.295   0.856  -5.892  0.00  0.00    +0.000 C 
BRANCH  15  16
ATOM     16  C   UNL     1       4.577   0.144  -7.014  0.00  0.00    +0.000 A 
ATOM     17  C   UNL     1       3.198  -0.104  -6.927  0.00  0.00    +0.000 A 
ATOM     18  C   UNL     1       2.540  -0.820  -7.928  0.00  0.00    +0.000 A 
ATOM     19  C   UNL     1       3.254  -1.281  -9.031  0.00  0.00    +0.000 A 
ATOM     20 CL   UNL     1       2.453  -2.202 -10.244  0.00  0.00    +0.000 Cl
ATOM     21  C   UNL     1       4.616  -1.011  -9.152  0.00  0.00    +0.000 A 
ATOM     22  C   UNL     1       5.276  -0.299  -8.147  0.00  0.00    +0.000 A 
ENDBRANCH  15  16
ENDBRANCH   8  15
TORSDOF 3
