REMARK  Name = 
REMARK  8 active torsions:
REMARK  status: ('A' for Active; 'I' for Inactive)
REMARK    1  A    between atoms: C_1  and  O_2
REMARK    2  A    between atoms: O_2  and  C_3
REMARK    3  A    between atoms: C_5  and  C_6
REMARK    4  A    between atoms: C_6  and  N_7
REMARK    5  A    between atoms: C_8  and  C_10
REMARK    6  A    between atoms: C_17  and  C_18
REMARK    7  A    between atoms: C_18  and  N_19
REMARK    8  A    between atoms: C_20  and  C_22
REMARK                            x       y       z     vdW  Elec       q    Type
REMARK                         _______ _______ _______ _____ _____    ______ ____
ROOT
ATOM      1  C   UNL     1       3.010   0.800   0.835  0.00  0.00    +0.000 A 
ATOM      2  C   UNL     1       2.599   0.874   2.175  0.00  0.00    +0.000 A 
ATOM      3  C   UNL     1       3.363   1.562   3.131  0.00  0.00    +0.000 A 
ATOM      4  C   UNL     1       4.542   2.195   2.727  0.00  0.00    +0.000 A 
ATOM      5  C   UNL     1       4.957   2.131   1.396  0.00  0.00    +0.000 A 
ATOM      6  C   UNL     1       4.207   1.427   0.440  0.00  0.00    +0.000 A 
ENDROOT
BRANCH   1   8
ATOM      7  C   UNL     1       0.962  -0.172   0.100  0.00  0.00    +0.000 C 
ATOM      8  O   UNL     1       2.336   0.109  -0.140  0.00  0.00    +0.000 OA
ENDBRANCH   1   8
BRANCH   3   9
ATOM      9  C   UNL     1       2.911   1.638   4.566  0.00  0.00    +0.000 C 
BRANCH   9  10
ATOM     10  N   UNL     1       2.090   2.794   4.809  0.00  0.00    +0.000 N 
ATOM     11  C   UNL     1       1.525   3.036   6.040  0.00  0.00    +0.000 C 
ATOM     12  O   UNL     1       1.652   2.288   7.001  0.00  0.00    +0.000 OA
ATOM     13  H   UNL     1       1.971   3.516   4.104  0.00  0.00    +0.000 HD
BRANCH  11  14
ATOM     14  C   UNL     1       0.751   4.289   6.096  0.00  0.00    +0.000 A 
ATOM     15  C   UNL     1       0.096   4.833   7.236  0.00  0.00    +0.000 A 
ATOM     16  C   UNL     1      -0.498   5.990   6.795  0.00  0.00    +0.000 A 
ATOM     17  N   UNL     1      -0.188   6.090   5.473  0.00  0.00    +0.000 N 
ATOM     18  N   UNL     1       0.573   5.079   5.018  0.00  0.00    +0.000 NA
ATOM     19  H   UNL     1      -0.461   6.819   4.821  0.00  0.00    +0.000 HD
ENDBRANCH  11  14
ENDBRANCH   9  10
ENDBRANCH   3   9
BRANCH   6  20
ATOM     20  C   UNL     1       4.678   1.436  -0.996  0.00  0.00    +0.000 C 
BRANCH  20  21
ATOM     21  N   UNL     1       4.096   2.544  -1.718  0.00  0.00    +0.000 N 
ATOM     22  C   UNL     1       4.823   3.489  -2.391  0.00  0.00    +0.000 C 
ATOM     23  O   UNL     1       6.049   3.465  -2.444  0.00  0.00    +0.000 OA
ATOM     24  H   UNL     1       3.096   2.661  -1.602  0.00  0.00    +0.000 HD
BRANCH  22  25
ATOM     25  C   UNL     1       4.046   4.502  -3.121  0.00  0.00    +0.000 A 
ATOM     26  C   UNL     1       4.611   5.164  -4.203  0.00  0.00    +0.000 A 
ATOM     27  S   UNL     1       3.540   6.240  -4.982  0.00  0.00    +0.000 S 
ATOM     28  C   UNL     1       2.300   5.900  -3.868  0.00  0.00    +0.000 A 
ATOM     29  N   UNL     1       1.083   6.501  -3.967  0.00  0.00    +0.000 NA
ATOM     30  C   UNL     1       0.252   6.177  -3.032  0.00  0.00    +0.000 A 
ATOM     31  N   UNL     1       0.526   5.315  -2.007  0.00  0.00    +0.000 N 
ATOM     32  C   UNL     1       1.727   4.659  -1.886  0.00  0.00    +0.000 A 
ATOM     33  O   UNL     1       1.913   3.848  -0.985  0.00  0.00    +0.000 OA
ATOM     34  C   UNL     1       2.699   4.983  -2.912  0.00  0.00    +0.000 A 
ATOM     35  H   UNL     1      -0.168   5.100  -1.307  0.00  0.00    +0.000 HD
ENDBRANCH  22  25
ENDBRANCH  20  21
ENDBRANCH   6  20
TORSDOF 7
