REMARK  Name = 
REMARK  8 active torsions:
REMARK  status: ('A' for Active; 'I' for Inactive)
REMARK    1  A    between atoms: N_1  and  C_2
REMARK    2  A    between atoms: C_2  and  C_3
REMARK    3  A    between atoms: C_3  and  N_4
REMARK    4  A    between atoms: C_3  and  C_17
REMARK    5  A    between atoms: C_5  and  C_7
REMARK    6  A    between atoms: C_20  and  O_21
REMARK    7  A    between atoms: O_21  and  C_22
REMARK    8  A    between atoms: C_22  and  C_23
REMARK                            x       y       z     vdW  Elec       q    Type
REMARK                         _______ _______ _______ _____ _____    ______ ____
ROOT
ATOM      1  C   UNL     1       2.821  -0.885  -0.900  0.00  0.00    +0.000 C 
ENDROOT
BRANCH   1   2
ATOM      2  C   UNL     1       4.344  -0.857  -1.006  0.00  0.00    +0.000 A 
ATOM      3  C   UNL     1       5.100  -2.027  -0.865  0.00  0.00    +0.000 A 
ATOM      4  C   UNL     1       6.485  -2.006  -1.056  0.00  0.00    +0.000 A 
ATOM      5  C   UNL     1       7.129  -0.820  -1.411  0.00  0.00    +0.000 A 
ATOM      6  C   UNL     1       6.395   0.363  -1.483  0.00  0.00    +0.000 A 
ATOM      7  C   UNL     1       5.016   0.342  -1.296  0.00  0.00    +0.000 A 
BRANCH   5   8
ATOM      8  O   UNL     1       8.468  -0.914  -1.687  0.00  0.00    +0.000 OA
BRANCH   8   9
ATOM      9  C   UNL     1       8.956   0.104  -2.573  0.00  0.00    +0.000 C 
BRANCH   9  10
ATOM     10  C   UNL     1      10.228  -0.311  -3.272  0.00  0.00    +0.000 A 
ATOM     11  C   UNL     1      11.188  -1.091  -2.633  0.00  0.00    +0.000 A 
ATOM     12  C   UNL     1      12.354  -1.413  -3.319  0.00  0.00    +0.000 A 
ATOM     13  C   UNL     1      12.539  -0.942  -4.613  0.00  0.00    +0.000 A 
ATOM     14  C   UNL     1      11.547  -0.158  -5.172  0.00  0.00    +0.000 A 
ATOM     15  N   UNL     1      10.406   0.172  -4.534  0.00  0.00    +0.000 NA
ENDBRANCH   9  10
ENDBRANCH   8   9
ENDBRANCH   5   8
ENDBRANCH   1   2
BRANCH   1  16
ATOM     16  N   UNL     1       2.276  -0.529  -2.205  0.00  0.00    +0.000 N 
ATOM     17  C   UNL     1       1.054  -0.919  -2.672  0.00  0.00    +0.000 C 
ATOM     18  O   UNL     1       0.259  -1.561  -1.995  0.00  0.00    +0.000 OA
ATOM     19  H   UNL     1       2.915  -0.066  -2.839  0.00  0.00    +0.000 HD
BRANCH  17  20
ATOM     20  C   UNL     1       0.731  -0.474  -4.037  0.00  0.00    +0.000 A 
ATOM     21  C   UNL     1      -0.592  -0.351  -4.438  0.00  0.00    +0.000 A 
ATOM     22  S   UNL     1      -0.770   0.185  -6.049  0.00  0.00    +0.000 S 
ATOM     23  C   UNL     1       0.914   0.222  -6.285  0.00  0.00    +0.000 A 
ATOM     24  N   UNL     1       1.449   0.565  -7.489  0.00  0.00    +0.000 NA
ATOM     25  C   UNL     1       2.739   0.499  -7.540  0.00  0.00    +0.000 A 
ATOM     26  N   UNL     1       3.543   0.138  -6.492  0.00  0.00    +0.000 N 
ATOM     27  C   UNL     1       3.051  -0.107  -5.229  0.00  0.00    +0.000 A 
ATOM     28  O   UNL     1       3.809  -0.235  -4.278  0.00  0.00    +0.000 OA
ATOM     29  C   UNL     1       1.604  -0.127  -5.139  0.00  0.00    +0.000 A 
ATOM     30  H   UNL     1       4.550   0.154  -6.578  0.00  0.00    +0.000 HD
ENDBRANCH  17  20
ENDBRANCH   1  16
BRANCH   1  31
ATOM     31  C   UNL     1       2.309   0.087   0.202  0.00  0.00    +0.000 C 
BRANCH  31  32
ATOM     32  N   UNL     1       2.857  -0.169   1.541  0.00  0.00    +0.000 NA
ATOM     33  H   UNL     1       2.709   0.655   2.123  0.00  0.00    +0.000 HD
ATOM     34  H   UNL     1       3.869  -0.289   1.477  0.00  0.00    +0.000 HD
ENDBRANCH  31  32
ENDBRANCH   1  31
TORSDOF 8
