REMARK  Name = 
REMARK  9 active torsions:
REMARK  status: ('A' for Active; 'I' for Inactive)
REMARK    1  A    between atoms: C_1  and  O_2
REMARK    2  A    between atoms: O_2  and  C_3
REMARK    3  A    between atoms: C_5  and  C_6
REMARK    4  A    between atoms: C_6  and  N_7
REMARK    5  A    between atoms: N_7  and  C_8
REMARK    6  A    between atoms: C_8  and  C_9
REMARK    7  A    between atoms: C_17  and  C_18
REMARK    8  A    between atoms: C_18  and  N_19
REMARK    9  A    between atoms: C_20  and  C_22
REMARK                            x       y       z     vdW  Elec       q    Type
REMARK                         _______ _______ _______ _____ _____    ______ ____
ROOT
ATOM      1  C   UNL     1       2.939   0.265  -1.127  0.00  0.00    +0.000 A 
ATOM      2  C   UNL     1       2.643   1.488  -1.740  0.00  0.00    +0.000 A 
ATOM      3  C   UNL     1       3.390   1.944  -2.836  0.00  0.00    +0.000 A 
ATOM      4  C   UNL     1       4.460   1.167  -3.299  0.00  0.00    +0.000 A 
ATOM      5  C   UNL     1       4.756  -0.056  -2.700  0.00  0.00    +0.000 A 
ATOM      6  C   UNL     1       4.002  -0.519  -1.610  0.00  0.00    +0.000 A 
ENDROOT
BRANCH   1   8
ATOM      7  C   UNL     1       0.989   0.304   0.241  0.00  0.00    +0.000 C 
ATOM      8  O   UNL     1       2.275  -0.232  -0.036  0.00  0.00    +0.000 OA
ENDBRANCH   1   8
BRANCH   3   9
ATOM      9  C   UNL     1       3.032   3.237  -3.530  0.00  0.00    +0.000 C 
BRANCH   9  10
ATOM     10  N   UNL     1       2.688   2.968  -4.923  0.00  0.00    +0.000 NA
ATOM     11  H   UNL     1       1.927   2.288  -4.946  0.00  0.00    +0.000 HD
BRANCH  10  12
ATOM     12  C   UNL     1       2.302   4.166  -5.647  0.00  0.00    +0.000 C 
BRANCH  12  13
ATOM     13  C   UNL     1       1.990   3.844  -7.073  0.00  0.00    +0.000 A 
ATOM     14  C   UNL     1       0.755   4.075  -7.637  0.00  0.00    +0.000 A 
ATOM     15  N   UNL     1       0.449   3.770  -8.920  0.00  0.00    +0.000 NA
ATOM     16  C   UNL     1       1.441   3.219  -9.639  0.00  0.00    +0.000 A 
ATOM     17  N   UNL     1       2.680   2.954  -9.203  0.00  0.00    +0.000 NA
ATOM     18  C   UNL     1       2.928   3.278  -7.919  0.00  0.00    +0.000 A 
ENDBRANCH  12  13
ENDBRANCH  10  12
ENDBRANCH   9  10
ENDBRANCH   3   9
BRANCH   6  19
ATOM     19  C   UNL     1       4.319  -1.863  -1.009  0.00  0.00    +0.000 C 
BRANCH  19  20
ATOM     20  N   UNL     1       3.574  -2.936  -1.629  0.00  0.00    +0.000 N 
ATOM     21  C   UNL     1       3.732  -4.219  -1.177  0.00  0.00    +0.000 C 
ATOM     22  O   UNL     1       4.478  -4.479  -0.234  0.00  0.00    +0.000 OA
ATOM     23  H   UNL     1       2.913  -2.714  -2.369  0.00  0.00    +0.000 HD
BRANCH  21  24
ATOM     24  C   UNL     1       3.021  -5.292  -1.878  0.00  0.00    +0.000 A 
ATOM     25  C   UNL     1       2.844  -6.518  -1.249  0.00  0.00    +0.000 A 
ATOM     26  S   UNL     1       2.289  -7.744  -2.297  0.00  0.00    +0.000 S 
ATOM     27  C   UNL     1       2.245  -6.665  -3.612  0.00  0.00    +0.000 A 
ATOM     28  N   UNL     1       1.981  -7.102  -4.872  0.00  0.00    +0.000 NA
ATOM     29  C   UNL     1       1.959  -6.166  -5.763  0.00  0.00    +0.000 A 
ATOM     30  N   UNL     1       2.121  -4.830  -5.498  0.00  0.00    +0.000 N 
ATOM     31  C   UNL     1       2.321  -4.339  -4.227  0.00  0.00    +0.000 A 
ATOM     32  O   UNL     1       2.286  -3.138  -3.983  0.00  0.00    +0.000 OA
ATOM     33  C   UNL     1       2.503  -5.363  -3.219  0.00  0.00    +0.000 A 
ATOM     34  H   UNL     1       1.989  -4.144  -6.227  0.00  0.00    +0.000 HD
ENDBRANCH  21  24
ENDBRANCH  19  20
ENDBRANCH   6  19
TORSDOF 8
