REMARK  Name = 
REMARK  9 active torsions:
REMARK  status: ('A' for Active; 'I' for Inactive)
REMARK    1  A    between atoms: C_1  and  O_2
REMARK    2  A    between atoms: O_2  and  C_3
REMARK    3  A    between atoms: C_10  and  C_11
REMARK    4  A    between atoms: N_13  and  C_14
REMARK    5  A    between atoms: C_14  and  C_15
REMARK    6  A    between atoms: C_18  and  C_19
REMARK    7  A    between atoms: C_19  and  N_20
REMARK    8  A    between atoms: N_20  and  C_21
REMARK    9  A    between atoms: C_21  and  C_22
REMARK                            x       y       z     vdW  Elec       q    Type
REMARK                         _______ _______ _______ _____ _____    ______ ____
ROOT
ATOM      1  C   UNL     1       2.927   1.746   2.904  0.00  0.00    +0.000 C 
ENDROOT
BRANCH   1   2
ATOM      2  C   UNL     1       1.834   2.588   2.298  0.00  0.00    +0.000 A 
ATOM      3  C   UNL     1       0.615   2.012   1.916  0.00  0.00    +0.000 A 
ATOM      4  C   UNL     1      -0.376   2.777   1.281  0.00  0.00    +0.000 A 
ATOM      5  C   UNL     1      -0.183   4.144   1.030  0.00  0.00    +0.000 A 
ATOM      6  C   UNL     1       1.024   4.725   1.446  0.00  0.00    +0.000 A 
ATOM      7  C   UNL     1       2.023   3.956   2.062  0.00  0.00    +0.000 A 
BRANCH   5   8
ATOM      8  C   UNL     1      -1.221   4.964   0.285  0.00  0.00    +0.000 C 
BRANCH   8   9
ATOM      9  N   UNL     1      -2.507   5.000   0.984  0.00  0.00    +0.000 NA
ATOM     10  H   UNL     1      -2.360   5.404   1.909  0.00  0.00    +0.000 HD
BRANCH   9  11
ATOM     11  C   UNL     1      -3.499   5.811   0.272  0.00  0.00    +0.000 C 
BRANCH  11  12
ATOM     12  C   UNL     1      -4.815   5.847   1.018  0.00  0.00    +0.000 A 
ATOM     13  C   UNL     1      -5.350   7.056   1.476  0.00  0.00    +0.000 A 
ATOM     14  C   UNL     1      -6.554   7.038   2.161  0.00  0.00    +0.000 A 
ATOM     15  N   UNL     1      -7.261   5.916   2.420  0.00  0.00    +0.000 NA
ATOM     16  C   UNL     1      -6.736   4.760   1.966  0.00  0.00    +0.000 A 
ATOM     17  C   UNL     1      -5.541   4.676   1.266  0.00  0.00    +0.000 A 
ENDBRANCH  11  12
ENDBRANCH   9  11
ENDBRANCH   8   9
ENDBRANCH   5   8
ENDBRANCH   1   2
BRANCH   1  20
ATOM     18  C   UNL     1       4.844   0.352   2.206  0.00  0.00    +0.000 C 
ATOM     19  O   UNL     1       5.088   0.061   3.379  0.00  0.00    +0.000 OA
ATOM     20  N   UNL     1       3.797   1.187   1.890  0.00  0.00    +0.000 N 
ATOM     21  H   UNL     1       3.637   1.457   0.928  0.00  0.00    +0.000 HD
BRANCH  18  29
ATOM     22  C   UNL     1       4.691   0.643  -1.231  0.00  0.00    +0.000 A 
ATOM     23  N   UNL     1       4.859   0.565  -2.566  0.00  0.00    +0.000 NA
ATOM     24  C   UNL     1       5.876  -0.155  -3.041  0.00  0.00    +0.000 A 
ATOM     25  N   UNL     1       6.767  -0.831  -2.327  0.00  0.00    +0.000 NA
ATOM     26  C   UNL     1       6.561  -0.741  -1.002  0.00  0.00    +0.000 A 
ATOM     27  S   UNL     1       7.607  -1.553   0.058  0.00  0.00    +0.000 S 
ATOM     28  C   UNL     1       6.749  -0.994   1.413  0.00  0.00    +0.000 A 
ATOM     29  C   UNL     1       5.661  -0.179   1.098  0.00  0.00    +0.000 A 
ATOM     30  C   UNL     1       5.554  -0.032  -0.351  0.00  0.00    +0.000 A 
BRANCH  22  32
ATOM     31  C   UNL     1       2.914   2.039  -1.813  0.00  0.00    +0.000 C 
ATOM     32  O   UNL     1       3.652   1.421  -0.758  0.00  0.00    +0.000 OA
ENDBRANCH  22  32
ENDBRANCH  18  29
ENDBRANCH   1  20
TORSDOF 8
