REMARK  Name = 
REMARK  7 active torsions:
REMARK  status: ('A' for Active; 'I' for Inactive)
REMARK    1  A    between atoms: C_2  and  C_20
REMARK    2  A    between atoms: N_3  and  C_4
REMARK    3  A    between atoms: C_4  and  C_5
REMARK    4  A    between atoms: C_8  and  C_9
REMARK    5  A    between atoms: C_9  and  N_10
REMARK    6  A    between atoms: N_10  and  C_11
REMARK    7  A    between atoms: C_11  and  C_12
REMARK                            x       y       z     vdW  Elec       q    Type
REMARK                         _______ _______ _______ _____ _____    ______ ____
ROOT
ATOM      1  C   UNL     1       3.047   2.609   2.552  0.00  0.00    +0.000 A 
ATOM      2  C   UNL     1       2.970   4.000   2.421  0.00  0.00    +0.000 A 
ATOM      3  C   UNL     1       3.788   4.829   3.187  0.00  0.00    +0.000 A 
ATOM      4  C   UNL     1       4.680   4.294   4.125  0.00  0.00    +0.000 A 
ATOM      5  C   UNL     1       4.795   2.898   4.213  0.00  0.00    +0.000 A 
ATOM      6  C   UNL     1       3.991   2.064   3.430  0.00  0.00    +0.000 A 
ENDROOT
BRANCH   1   7
ATOM      7  C   UNL     1       2.124   1.732   1.749  0.00  0.00    +0.000 C 
BRANCH   7  10
ATOM      8  O   UNL     1       1.531   3.171  -0.592  0.00  0.00    +0.000 OA
ATOM      9  C   UNL     1       2.327   2.236  -0.653  0.00  0.00    +0.000 C 
ATOM     10  N   UNL     1       2.649   1.468   0.433  0.00  0.00    +0.000 N 
ATOM     11  H   UNL     1       3.443   0.838   0.383  0.00  0.00    +0.000 HD
BRANCH   9  12
ATOM     12  C   UNL     1       2.946   1.849  -1.925  0.00  0.00    +0.000 A 
ATOM     13  C   UNL     1       2.311   2.150  -3.122  0.00  0.00    +0.000 A 
ATOM     14  S   UNL     1       3.185   1.653  -4.500  0.00  0.00    +0.000 S 
ATOM     15  C   UNL     1       4.457   1.050  -3.543  0.00  0.00    +0.000 A 
ATOM     16  N   UNL     1       5.574   0.520  -4.111  0.00  0.00    +0.000 NA
ATOM     17  C   UNL     1       6.472   0.142  -3.269  0.00  0.00    +0.000 A 
ATOM     18  N   UNL     1       6.351   0.224  -1.904  0.00  0.00    +0.000 N 
ATOM     19  C   UNL     1       5.204   0.668  -1.285  0.00  0.00    +0.000 A 
ATOM     20  O   UNL     1       5.062   0.573  -0.071  0.00  0.00    +0.000 OA
ATOM     21  C   UNL     1       4.195   1.179  -2.191  0.00  0.00    +0.000 A 
ATOM     22  H   UNL     1       7.075  -0.134  -1.301  0.00  0.00    +0.000 HD
ENDBRANCH   9  12
ENDBRANCH   7  10
ENDBRANCH   1   7
BRANCH   4  23
ATOM     23  C   UNL     1       5.550   5.162   5.010  0.00  0.00    +0.000 C 
BRANCH  23  24
ATOM     24  N   UNL     1       5.011   6.482   5.339  0.00  0.00    +0.000 NA
ATOM     25  H   UNL     1       4.875   7.013   4.482  0.00  0.00    +0.000 HD
BRANCH  24  26
ATOM     26  C   UNL     1       3.768   6.441   6.114  0.00  0.00    +0.000 C 
BRANCH  26  27
ATOM     27  C   UNL     1       3.225   7.876   6.285  0.00  0.00    +0.000 C 
ATOM     28  C   UNL     1       4.181   8.792   7.070  0.00  0.00    +0.000 C 
ATOM     29  C   UNL     1       4.120   8.573   8.581  0.00  0.00    +0.000 C 
ATOM     30  N   UNL     1       2.751   8.634   9.097  0.00  0.00    +0.000 NA
ATOM     31  C   UNL     1       1.908   7.631   8.447  0.00  0.00    +0.000 C 
ATOM     32  C   UNL     1       1.836   7.872   6.942  0.00  0.00    +0.000 C 
ATOM     33  H   UNL     1       2.368   9.560   8.903  0.00  0.00    +0.000 HD
ENDBRANCH  26  27
ENDBRANCH  24  26
ENDBRANCH  23  24
ENDBRANCH   4  23
TORSDOF 7
