REMARK  Name = 
REMARK  6 active torsions:
REMARK  status: ('A' for Active; 'I' for Inactive)
REMARK    1  A    between atoms: N_1  and  C_2
REMARK    2  A    between atoms: C_2  and  C_3
REMARK    3  A    between atoms: C_6  and  C_7
REMARK    4  A    between atoms: C_7  and  O_8
REMARK    5  A    between atoms: O_8  and  C_9
REMARK    6  A    between atoms: C_12  and  C_13
REMARK                            x       y       z     vdW  Elec       q    Type
REMARK                         _______ _______ _______ _____ _____    ______ ____
ROOT
ATOM      1  O   UNL     1      -0.258   3.498   3.378  0.00  0.00    +0.000 OA
ENDROOT
BRANCH   1   2
ATOM      2  C   UNL     1      -1.610   3.680   3.280  0.00  0.00    +0.000 A 
ATOM      3  C   UNL     1      -2.319   3.958   2.111  0.00  0.00    +0.000 A 
ATOM      4  C   UNL     1      -3.706   4.146   2.160  0.00  0.00    +0.000 A 
ATOM      5  C   UNL     1      -4.393   4.042   3.375  0.00  0.00    +0.000 A 
ATOM      6  C   UNL     1      -3.683   3.762   4.546  0.00  0.00    +0.000 A 
ATOM      7  C   UNL     1      -2.298   3.581   4.493  0.00  0.00    +0.000 A 
BRANCH   5   8
ATOM      8  C   UNL     1      -5.862   4.270   3.375  0.00  0.00    +0.000 C 
ATOM      9  N   UNL     1      -6.588   3.708   4.386  0.00  0.00    +0.000 N 
ATOM     10  O   UNL     1      -6.412   4.909   2.486  0.00  0.00    +0.000 OA
ATOM     11  H   UNL     1      -6.218   2.991   4.992  0.00  0.00    +0.000 HD
ATOM     12  H   UNL     1      -7.594   3.793   4.315  0.00  0.00    +0.000 HD
ENDBRANCH   5   8
ENDBRANCH   1   2
BRANCH   1  13
ATOM     13  C   UNL     1       0.497   3.594   2.169  0.00  0.00    +0.000 C 
BRANCH  13  17
ATOM     14  C   UNL     1       3.161   1.104   0.948  0.00  0.00    +0.000 C 
ATOM     15  C   UNL     1       2.261   0.888   2.177  0.00  0.00    +0.000 C 
ATOM     16  C   UNL     1       2.301   2.061   3.156  0.00  0.00    +0.000 C 
ATOM     17  C   UNL     1       1.993   3.415   2.490  0.00  0.00    +0.000 C 
ATOM     18  C   UNL     1       2.844   3.623   1.228  0.00  0.00    +0.000 C 
ATOM     19  C   UNL     1       2.786   2.432   0.267  0.00  0.00    +0.000 C 
BRANCH  14  20
ATOM     20  C   UNL     1       4.670   1.074   1.272  0.00  0.00    +0.000 C 
BRANCH  20  21
ATOM     21  N   UNL     1       5.094  -0.197   1.847  0.00  0.00    +0.000 NA
ATOM     22  H   UNL     1       6.083  -0.142   2.088  0.00  0.00    +0.000 HD
ATOM     23  H   UNL     1       5.013  -0.933   1.147  0.00  0.00    +0.000 HD
ENDBRANCH  20  21
ENDBRANCH  14  20
ENDBRANCH  13  17
ENDBRANCH   1  13
TORSDOF 6
