REMARK  Name = 
REMARK  7 active torsions:
REMARK  status: ('A' for Active; 'I' for Inactive)
REMARK    1  A    between atoms: C_1  and  O_2
REMARK    2  A    between atoms: O_2  and  C_3
REMARK    3  A    between atoms: C_5  and  C_6
REMARK    4  A    between atoms: N_11  and  C_12
REMARK    5  A    between atoms: C_12  and  C_13
REMARK    6  A    between atoms: C_17  and  C_18
REMARK    7  A    between atoms: C_22  and  C_23
REMARK                            x       y       z     vdW  Elec       q    Type
REMARK                         _______ _______ _______ _____ _____    ______ ____
ROOT
ATOM      1  C   UNL     1       6.594  -4.116   0.793  0.00  0.00    +0.000 C 
ENDROOT
BRANCH   1   7
ATOM      2  C   UNL     1       6.256  -4.241  -3.898  0.00  0.00    +0.000 A 
ATOM      3  C   UNL     1       4.896  -4.126  -3.901  0.00  0.00    +0.000 A 
ATOM      4  C   UNL     1       4.338  -4.044  -2.653  0.00  0.00    +0.000 A 
ATOM      5  N   UNL     1       5.038  -4.103  -1.490  0.00  0.00    +0.000 NA
ATOM      6  C   UNL     1       6.360  -4.231  -1.608  0.00  0.00    +0.000 A 
ATOM      7  N   UNL     1       7.162  -4.380  -0.501  0.00  0.00    +0.000 N 
ATOM      8  N   UNL     1       7.001  -4.261  -2.779  0.00  0.00    +0.000 NA
ATOM      9  H   UNL     1       8.092  -4.030  -0.694  0.00  0.00    +0.000 HD
BRANCH   4  10
ATOM     10  C   UNL     1       2.857  -3.874  -2.531  0.00  0.00    +0.000 C 
ATOM     11  N   UNL     1       2.383  -3.742  -1.250  0.00  0.00    +0.000 N 
ATOM     12  O   UNL     1       2.113  -3.842  -3.497  0.00  0.00    +0.000 OA
ATOM     13  H   UNL     1       3.023  -3.772  -0.466  0.00  0.00    +0.000 HD
ATOM     14  H   UNL     1       1.390  -3.625  -1.098  0.00  0.00    +0.000 HD
ENDBRANCH   4  10
BRANCH   2  16
ATOM     15  C   UNL     1       8.286  -4.501  -5.027  0.00  0.00    +0.000 C 
ATOM     16  O   UNL     1       6.872  -4.349  -5.127  0.00  0.00    +0.000 OA
ENDBRANCH   2  16
ENDBRANCH   1   7
BRANCH   1  17
ATOM     17  C   UNL     1       7.669  -4.244   1.848  0.00  0.00    +0.000 A 
ATOM     18  C   UNL     1       8.349  -3.113   2.313  0.00  0.00    +0.000 A 
ATOM     19  C   UNL     1       9.320  -3.239   3.303  0.00  0.00    +0.000 A 
ATOM     20  C   UNL     1       9.621  -4.495   3.835  0.00  0.00    +0.000 A 
ATOM     21  C   UNL     1       8.968  -5.657   3.388  0.00  0.00    +0.000 A 
ATOM     22  C   UNL     1       8.005  -5.507   2.372  0.00  0.00    +0.000 A 
BRANCH  21  23
ATOM     23  C   UNL     1       9.253  -6.976   3.988  0.00  0.00    +0.000 A 
ATOM     24  C   UNL     1       9.457  -7.132   5.361  0.00  0.00    +0.000 A 
ATOM     25  N   UNL     1       9.708  -8.309   5.986  0.00  0.00    +0.000 NA
ATOM     26  C   UNL     1       9.752  -9.413   5.211  0.00  0.00    +0.000 A 
ATOM     27  C   UNL     1       9.560  -9.396   3.839  0.00  0.00    +0.000 A 
ATOM     28  C   UNL     1       9.311  -8.156   3.230  0.00  0.00    +0.000 A 
BRANCH  27  29
ATOM     29  C   UNL     1       9.608 -10.663   3.045  0.00  0.00    +0.000 C 
ATOM     30  F   UNL     1       9.899 -11.766   3.789  0.00  0.00    +0.000 F 
ATOM     31  F   UNL     1       8.424 -10.933   2.428  0.00  0.00    +0.000 F 
ATOM     32  F   UNL     1      10.543 -10.624   2.056  0.00  0.00    +0.000 F 
ENDBRANCH  27  29
ENDBRANCH  21  23
ENDBRANCH   1  17
TORSDOF 6
