REMARK  Name = 
REMARK  9 active torsions:
REMARK  status: ('A' for Active; 'I' for Inactive)
REMARK    1  A    between atoms: C_1  and  C_2
REMARK    2  A    between atoms: C_2  and  C_3
REMARK    3  A    between atoms: C_2  and  C_18
REMARK    4  A    between atoms: C_3  and  N_4
REMARK    5  A    between atoms: N_4  and  C_5
REMARK    6  A    between atoms: C_8  and  C_9
REMARK    7  A    between atoms: N_11  and  S_12
REMARK    8  A    between atoms: S_12  and  C_13
REMARK    9  A    between atoms: C_22  and  C_23
REMARK                            x       y       z     vdW  Elec       q    Type
REMARK                         _______ _______ _______ _____ _____    ______ ____
ROOT
ATOM      1  C   UNL     1       2.846   3.688   1.149  0.00  0.00    +0.000 A 
ATOM      2  C   UNL     1       4.187   3.910   1.492  0.00  0.00    +0.000 A 
ATOM      3  C   UNL     1       4.621   5.150   1.990  0.00  0.00    +0.000 A 
ATOM      4  C   UNL     1       3.714   6.205   2.129  0.00  0.00    +0.000 A 
ATOM      5  C   UNL     1       2.382   6.006   1.753  0.00  0.00    +0.000 A 
ATOM      6  C   UNL     1       1.961   4.767   1.257  0.00  0.00    +0.000 A 
ENDROOT
BRANCH   4   7
ATOM      7  C   UNL     1       4.101   7.549   2.624  0.00  0.00    +0.000 C 
ATOM      8  O   UNL     1       3.479   8.543   2.283  0.00  0.00    +0.000 OA
ATOM      9  N   UNL     1       5.242   7.609   3.441  0.00  0.00    +0.000 N 
ATOM     10  H   UNL     1       5.679   6.779   3.825  0.00  0.00    +0.000 HD
BRANCH   9  11
ATOM     11  S   UNL     1       5.784   9.002   4.173  0.00  0.00    +0.000 S 
ATOM     12  C   UNL     1       6.269  10.016   2.789  0.00  0.00    +0.000 C 
ATOM     13  O   UNL     1       4.694   9.622   4.885  0.00  0.00    +0.000 OA
ATOM     14  O   UNL     1       6.992   8.604   4.871  0.00  0.00    +0.000 OA
ENDBRANCH   9  11
ENDBRANCH   4   7
BRANCH   1  15
ATOM     15  N   UNL     1       2.356   2.493   0.594  0.00  0.00    +0.000 N 
ATOM     16  H   UNL     1       2.267   2.597  -0.416  0.00  0.00    +0.000 HD
BRANCH  15  17
ATOM     17  C   UNL     1       3.047   1.258   0.942  0.00  0.00    +0.000 C 
BRANCH  17  19
ATOM     18  C   UNL     1       0.887  -0.112   0.549  0.00  0.00    +0.000 C 
ATOM     19  C   UNL     1       2.364   0.069   0.319  0.00  0.00    +0.000 C 
BRANCH  19  20
ATOM     20  C   UNL     1       3.144  -1.180   0.135  0.00  0.00    +0.000 A 
ATOM     21  C   UNL     1       4.252  -1.466   0.948  0.00  0.00    +0.000 A 
ATOM     22  C   UNL     1       4.906  -2.698   0.872  0.00  0.00    +0.000 A 
ATOM     23  C   UNL     1       4.465  -3.665  -0.027  0.00  0.00    +0.000 A 
ATOM     24  C   UNL     1       3.388  -3.388  -0.873  0.00  0.00    +0.000 A 
ATOM     25  C   UNL     1       2.743  -2.145  -0.801  0.00  0.00    +0.000 A 
BRANCH  24  26
ATOM     26  C   UNL     1       2.923  -4.391  -1.785  0.00  0.00    +0.000 C 
ATOM     27  N   UNL     1       2.544  -5.213  -2.512  0.00  0.00    +0.000 NA
ENDBRANCH  24  26
ENDBRANCH  19  20
ENDBRANCH  17  19
ENDBRANCH  15  17
ENDBRANCH   1  15
TORSDOF 7
