REMARK  Name = 
REMARK  5 active torsions:
REMARK  status: ('A' for Active; 'I' for Inactive)
REMARK    1  A    between atoms: C_2  and  C_3
REMARK    2  A    between atoms: C_6  and  N_7
REMARK    3  A    between atoms: N_7  and  C_8
REMARK    4  A    between atoms: C_8  and  C_9
REMARK    5  A    between atoms: C_11  and  C_12
REMARK                            x       y       z     vdW  Elec       q    Type
REMARK                         _______ _______ _______ _____ _____    ______ ____
ROOT
ATOM      1  C   UNL     1       8.785  -1.108  -0.077  0.00  0.00    +0.000 C 
ENDROOT
BRANCH   1   2
ATOM      2  C   UNL     1      10.263  -0.752  -0.061  0.00  0.00    +0.000 A 
ATOM      3  C   UNL     1      11.198  -1.774  -0.049  0.00  0.00    +0.000 A 
ATOM      4  C   UNL     1      12.536  -1.425  -0.033  0.00  0.00    +0.000 A 
ATOM      5  N   UNL     1      12.921  -0.130  -0.007  0.00  0.00    +0.000 NA
ATOM      6  C   UNL     1      11.944   0.788  -0.025  0.00  0.00    +0.000 A 
ATOM      7  N   UNL     1      10.624   0.548  -0.056  0.00  0.00    +0.000 NA
BRANCH   4   8
ATOM      8  C   UNL     1      13.615  -2.435  -0.025  0.00  0.00    +0.000 A 
ATOM      9  C   UNL     1      13.461  -3.689  -0.648  0.00  0.00    +0.000 A 
ATOM     10  C   UNL     1      14.471  -4.654  -0.605  0.00  0.00    +0.000 A 
ATOM     11  C   UNL     1      15.664  -4.383   0.057  0.00  0.00    +0.000 A 
ATOM     12  C   UNL     1      15.851  -3.146   0.665  0.00  0.00    +0.000 A 
ATOM     13  C   UNL     1      14.839  -2.182   0.619  0.00  0.00    +0.000 A 
ENDBRANCH   4   8
ENDBRANCH   1   2
BRANCH   1  14
ATOM     14  N   UNL     1       8.504  -1.914  -1.260  0.00  0.00    +0.000 N 
ATOM     15  H   UNL     1       8.551  -1.386  -2.127  0.00  0.00    +0.000 HD
BRANCH  14  19
ATOM     16  C   UNL     1       5.491  -4.790  -1.139  0.00  0.00    +0.000 A 
ATOM     17  C   UNL     1       5.772  -3.952  -0.069  0.00  0.00    +0.000 A 
ATOM     18  N   UNL     1       6.716  -2.971  -0.090  0.00  0.00    +0.000 NA
ATOM     19  C   UNL     1       7.417  -2.790  -1.230  0.00  0.00    +0.000 A 
ATOM     20  C   UNL     1       7.165  -3.588  -2.356  0.00  0.00    +0.000 A 
ATOM     21  F   UNL     1       7.874  -3.415  -3.482  0.00  0.00    +0.000 F 
ATOM     22  C   UNL     1       6.205  -4.595  -2.315  0.00  0.00    +0.000 A 
BRANCH  16  24
ATOM     23  N   UNL     1       3.729  -6.675  -0.925  0.00  0.00    +0.000 NA
ATOM     24  C   UNL     1       4.514  -5.828  -1.022  0.00  0.00    +0.000 C 
ENDBRANCH  16  24
ENDBRANCH  14  19
ENDBRANCH   1  14
TORSDOF 5
