REMARK  Name = 
REMARK  3 active torsions:
REMARK  status: ('A' for Active; 'I' for Inactive)
REMARK    1  A    between atoms: C_2  and  C_4
REMARK    2  A    between atoms: C_7  and  C_8
REMARK    3  A    between atoms: C_8  and  N_9
REMARK                            x       y       z     vdW  Elec       q    Type
REMARK                         _______ _______ _______ _____ _____    ______ ____
ROOT
ATOM      1  C   UNL     1       2.896  -1.461  -0.156  0.00  0.00    +0.000 A 
ATOM      2  C   UNL     1       3.715  -1.515  -1.285  0.00  0.00    +0.000 A 
ATOM      3  C   UNL     1       4.577  -2.603  -1.459  0.00  0.00    +0.000 A 
ATOM      4  C   UNL     1       4.600  -3.610  -0.493  0.00  0.00    +0.000 A 
ATOM      5  N   UNL     1       3.808  -3.567   0.608  0.00  0.00    +0.000 NA
ATOM      6  C   UNL     1       2.984  -2.501   0.757  0.00  0.00    +0.000 A 
ENDROOT
BRANCH   1   8
ATOM      7  N   UNL     1       1.509   0.392  -0.914  0.00  0.00    +0.000 N 
ATOM      8  C   UNL     1       1.976  -0.343   0.141  0.00  0.00    +0.000 C 
ATOM      9  O   UNL     1       1.618  -0.098   1.286  0.00  0.00    +0.000 OA
ATOM     10  H   UNL     1       0.796   1.079  -0.697  0.00  0.00    +0.000 HD
ATOM     11  H   UNL     1       1.568   0.072  -1.868  0.00  0.00    +0.000 HD
ENDBRANCH   1   8
BRANCH   4  12
ATOM     12  C   UNL     1       5.590  -4.746  -0.558  0.00  0.00    +0.000 C 
BRANCH  12  13
ATOM     13  N   UNL     1       5.368  -5.687  -1.652  0.00  0.00    +0.000 N 
ATOM     14  C   UNL     1       6.312  -5.971  -2.617  0.00  0.00    +0.000 A 
ATOM     15  C   UNL     1       5.905  -7.103  -3.291  0.00  0.00    +0.000 A 
ATOM     16  C   UNL     1       4.673  -7.510  -2.733  0.00  0.00    +0.000 A 
ATOM     17  N   UNL     1       3.918  -8.590  -3.047  0.00  0.00    +0.000 NA
ATOM     18  C   UNL     1       2.790  -8.722  -2.319  0.00  0.00    +0.000 A 
ATOM     19  C   UNL     1       2.361  -7.849  -1.330  0.00  0.00    +0.000 A 
ATOM     20  C   UNL     1       3.143  -6.742  -1.012  0.00  0.00    +0.000 A 
ATOM     21  C   UNL     1       4.332  -6.596  -1.734  0.00  0.00    +0.000 A 
ENDBRANCH  12  13
ENDBRANCH   4  12
TORSDOF 3
