REMARK  Name = 
REMARK  7 active torsions:
REMARK  status: ('A' for Active; 'I' for Inactive)
REMARK    1  A    between atoms: C_1  and  O_2
REMARK    2  A    between atoms: O_2  and  C_3
REMARK    3  A    between atoms: C_6  and  C_7
REMARK    4  A    between atoms: C_11  and  C_12
REMARK    5  A    between atoms: C_12  and  N_13
REMARK    6  A    between atoms: N_13  and  C_14
REMARK    7  A    between atoms: C_17  and  C_18
REMARK                            x       y       z     vdW  Elec       q    Type
REMARK                         _______ _______ _______ _____ _____    ______ ____
ROOT
ATOM      1  C   UNL     1       7.535  -3.424   6.168  0.00  0.00    +0.000 C 
ATOM      2  C   UNL     1       7.262  -4.316   7.361  0.00  0.00    +0.000 C 
ATOM      3  C   UNL     1       6.449  -3.077   7.186  0.00  0.00    +0.000 C 
ENDROOT
BRANCH   1   8
ATOM      4  C   UNL     1       5.672  -3.538   2.786  0.00  0.00    +0.000 A 
ATOM      5  C   UNL     1       6.181  -4.737   2.259  0.00  0.00    +0.000 A 
ATOM      6  C   UNL     1       7.127  -5.490   2.956  0.00  0.00    +0.000 A 
ATOM      7  C   UNL     1       7.567  -5.068   4.209  0.00  0.00    +0.000 A 
ATOM      8  C   UNL     1       7.077  -3.893   4.794  0.00  0.00    +0.000 A 
ATOM      9  C   UNL     1       6.140  -3.143   4.052  0.00  0.00    +0.000 A 
BRANCH   4  13
ATOM     10  C   UNL     1       2.918  -1.232   0.527  0.00  0.00    +0.000 A 
ATOM     11  C   UNL     1       2.780  -1.232   1.902  0.00  0.00    +0.000 A 
ATOM     12  C   UNL     1       3.677  -1.989   2.660  0.00  0.00    +0.000 A 
ATOM     13  C   UNL     1       4.700  -2.714   2.037  0.00  0.00    +0.000 A 
ATOM     14  C   UNL     1       4.752  -2.610   0.644  0.00  0.00    +0.000 A 
ATOM     15  N   UNL     1       3.895  -1.897  -0.121  0.00  0.00    +0.000 NA
BRANCH  10  17
ATOM     16  C   UNL     1       2.201  -0.621  -1.603  0.00  0.00    +0.000 C 
ATOM     17  O   UNL     1       1.990  -0.513  -0.197  0.00  0.00    +0.000 OA
ENDBRANCH  10  17
ENDBRANCH   4  13
ENDBRANCH   1   8
BRANCH   1  18
ATOM     18  N   UNL     1       8.618  -2.433   6.126  0.00  0.00    +0.000 N 
ATOM     19  H   UNL     1       8.378  -1.572   5.644  0.00  0.00    +0.000 HD
BRANCH  18  20
ATOM     20  C   UNL     1      10.001  -2.683   6.116  0.00  0.00    +0.000 A 
ATOM     21  C   UNL     1      10.584  -3.937   6.302  0.00  0.00    +0.000 A 
ATOM     22  C   UNL     1      11.978  -4.071   6.407  0.00  0.00    +0.000 A 
ATOM     23  C   UNL     1      12.810  -2.945   6.347  0.00  0.00    +0.000 A 
ATOM     24  C   UNL     1      12.237  -1.686   6.171  0.00  0.00    +0.000 A 
ATOM     25  C   UNL     1      10.850  -1.564   6.059  0.00  0.00    +0.000 A 
BRANCH  23  26
ATOM     26  C   UNL     1      14.273  -3.113   6.536  0.00  0.00    +0.000 C 
ATOM     27  N   UNL     1      15.096  -2.133   6.047  0.00  0.00    +0.000 N 
ATOM     28  O   UNL     1      14.742  -4.099   7.094  0.00  0.00    +0.000 OA
ATOM     29  H   UNL     1      14.785  -1.424   5.400  0.00  0.00    +0.000 HD
ATOM     30  H   UNL     1      16.092  -2.294   6.130  0.00  0.00    +0.000 HD
ENDBRANCH  23  26
ENDBRANCH  18  20
ENDBRANCH   1  18
TORSDOF 6
