REMARK  Name = 
REMARK  10 active torsions:
REMARK  status: ('A' for Active; 'I' for Inactive)
REMARK    1  A    between atoms: N_1  and  C_2
REMARK    2  A    between atoms: C_2  and  C_3
REMARK    3  A    between atoms: C_3  and  N_4
REMARK    4  A    between atoms: N_4  and  C_5
REMARK    5  A    between atoms: C_5  and  C_6
REMARK    6  A    between atoms: C_9  and  C_10
REMARK    7  A    between atoms: C_10  and  C_11
REMARK    8  A    between atoms: C_14  and  C_15
REMARK    9  A    between atoms: C_15  and  N_16
REMARK   10  A    between atoms: C_17  and  C_19
REMARK                            x       y       z     vdW  Elec       q    Type
REMARK                         _______ _______ _______ _____ _____    ______ ____
ROOT
ATOM      1  C   UNL     1      11.314  -2.699  -1.056  0.00  0.00    +0.000 A 
ATOM      2  C   UNL     1      11.058  -4.068  -1.094  0.00  0.00    +0.000 A 
ATOM      3  C   UNL     1      11.673  -4.898  -0.157  0.00  0.00    +0.000 A 
ATOM      4  C   UNL     1      12.518  -4.348   0.809  0.00  0.00    +0.000 A 
ATOM      5  C   UNL     1      12.738  -2.977   0.750  0.00  0.00    +0.000 A 
ATOM      6  N   UNL     1      12.158  -2.149  -0.149  0.00  0.00    +0.000 NA
ENDROOT
BRANCH   1   7
ATOM      7  C   UNL     1      10.628  -1.755  -2.018  0.00  0.00    +0.000 C 
BRANCH   7  11
ATOM      8  C   UNL     1       6.987  -0.072  -0.566  0.00  0.00    +0.000 A 
ATOM      9  C   UNL     1       6.950  -0.820  -1.737  0.00  0.00    +0.000 A 
ATOM     10  C   UNL     1       8.128  -1.389  -2.214  0.00  0.00    +0.000 A 
ATOM     11  C   UNL     1       9.322  -1.196  -1.516  0.00  0.00    +0.000 A 
ATOM     12  C   UNL     1       9.265  -0.427  -0.356  0.00  0.00    +0.000 A 
ATOM     13  N   UNL     1       8.133   0.132   0.134  0.00  0.00    +0.000 NA
BRANCH   8  14
ATOM     14  C   UNL     1       5.694   0.450   0.034  0.00  0.00    +0.000 C 
BRANCH  14  15
ATOM     15  N   UNL     1       4.753  -0.617   0.436  0.00  0.00    +0.000 NA
ATOM     16  H   UNL     1       3.981  -0.153   0.922  0.00  0.00    +0.000 HD
BRANCH  15  17
ATOM     17  C   UNL     1       5.356  -1.534   1.424  0.00  0.00    +0.000 C 
BRANCH  17  18
ATOM     18  C   UNL     1       5.691  -0.862   2.770  0.00  0.00    +0.000 C 
BRANCH  18  19
ATOM     19  N   UNL     1       4.507  -0.205   3.337  0.00  0.00    +0.000 NA
ATOM     20  H   UNL     1       4.771   0.237   4.216  0.00  0.00    +0.000 HD
ATOM     21  H   UNL     1       3.819  -0.920   3.573  0.00  0.00    +0.000 HD
ENDBRANCH  18  19
ENDBRANCH  17  18
ENDBRANCH  15  17
ENDBRANCH  14  15
ENDBRANCH   8  14
ENDBRANCH   7  11
ENDBRANCH   1   7
BRANCH   4  22
ATOM     22  C   UNL     1      13.193  -5.189   1.853  0.00  0.00    +0.000 C 
BRANCH  22  23
ATOM     23  N   UNL     1      14.481  -5.651   1.403  0.00  0.00    +0.000 N 
ATOM     24  C   UNL     1      15.241  -6.504   2.165  0.00  0.00    +0.000 C 
ATOM     25  O   UNL     1      14.842  -6.954   3.233  0.00  0.00    +0.000 OA
ATOM     26  H   UNL     1      14.929  -5.120   0.662  0.00  0.00    +0.000 HD
BRANCH  24  27
ATOM     27  C   UNL     1      16.536  -6.901   1.595  0.00  0.00    +0.000 A 
ATOM     28  C   UNL     1      17.135  -8.086   2.003  0.00  0.00    +0.000 A 
ATOM     29  S   UNL     1      18.600  -8.426   1.198  0.00  0.00    +0.000 S 
ATOM     30  C   UNL     1      18.518  -6.972   0.318  0.00  0.00    +0.000 A 
ATOM     31  N   UNL     1      19.500  -6.628  -0.557  0.00  0.00    +0.000 NA
ATOM     32  C   UNL     1      19.327  -5.484  -1.131  0.00  0.00    +0.000 A 
ATOM     33  N   UNL     1      18.257  -4.655  -0.915  0.00  0.00    +0.000 N 
ATOM     34  C   UNL     1      17.225  -4.978  -0.063  0.00  0.00    +0.000 A 
ATOM     35  O   UNL     1      16.257  -4.238   0.076  0.00  0.00    +0.000 OA
ATOM     36  C   UNL     1      17.380  -6.247   0.618  0.00  0.00    +0.000 A 
ATOM     37  H   UNL     1      18.176  -3.776  -1.402  0.00  0.00    +0.000 HD
ENDBRANCH  24  27
ENDBRANCH  22  23
ENDBRANCH   4  22
TORSDOF 10
