REMARK  Name = 
REMARK  10 active torsions:
REMARK  status: ('A' for Active; 'I' for Inactive)
REMARK    1  A    between atoms: C_2  and  C_4
REMARK    2  A    between atoms: C_4  and  C_5
REMARK    3  A    between atoms: C_5  and  C_6
REMARK    4  A    between atoms: C_6  and  N_7
REMARK    5  A    between atoms: C_6  and  C_29
REMARK    6  A    between atoms: N_7  and  C_8
REMARK    7  A    between atoms: C_8  and  C_9
REMARK    8  A    between atoms: C_12  and  C_13
REMARK    9  A    between atoms: C_13  and  N_14
REMARK   10  A    between atoms: C_15  and  C_17
REMARK                            x       y       z     vdW  Elec       q    Type
REMARK                         _______ _______ _______ _____ _____    ______ ____
ROOT
ATOM      1  C   UNL     1       4.442   1.604  -0.035  0.00  0.00    +0.000 A 
ATOM      2  C   UNL     1       3.187   1.286  -0.567  0.00  0.00    +0.000 A 
ATOM      3  C   UNL     1       2.551   2.161  -1.454  0.00  0.00    +0.000 A 
ATOM      4  C   UNL     1       3.165   3.364  -1.832  0.00  0.00    +0.000 A 
ATOM      5  C   UNL     1       4.398   3.702  -1.263  0.00  0.00    +0.000 A 
ATOM      6  C   UNL     1       5.032   2.829  -0.381  0.00  0.00    +0.000 A 
ENDROOT
BRANCH   1   7
ATOM      7  C   UNL     1       5.143   0.685   0.938  0.00  0.00    +0.000 C 
BRANCH   7   8
ATOM      8  N   UNL     1       5.425  -0.639   0.359  0.00  0.00    +0.000 NA
ATOM      9  H   UNL     1       5.911  -0.494  -0.526  0.00  0.00    +0.000 HD
BRANCH   8  10
ATOM     10  C   UNL     1       6.298  -1.473   1.243  0.00  0.00    +0.000 C 
BRANCH  10  11
ATOM     11  C   UNL     1       5.597  -1.814   2.564  0.00  0.00    +0.000 A 
ATOM     12  C   UNL     1       4.333  -2.416   2.531  0.00  0.00    +0.000 A 
ATOM     13  C   UNL     1       3.628  -2.593   3.719  0.00  0.00    +0.000 A 
ATOM     14  C   UNL     1       4.210  -2.200   4.916  0.00  0.00    +0.000 A 
ATOM     15  C   UNL     1       5.481  -1.655   4.872  0.00  0.00    +0.000 A 
ATOM     16  N   UNL     1       6.178  -1.445   3.732  0.00  0.00    +0.000 NA
ENDBRANCH  10  11
BRANCH  10  17
ATOM     17  C   UNL     1       7.692  -0.807   1.352  0.00  0.00    +0.000 C 
BRANCH  17  18
ATOM     18  C   UNL     1       8.812  -1.613   2.005  0.00  0.00    +0.000 C 
BRANCH  18  20
ATOM     19  N   UNL     1      11.166  -1.400   2.573  0.00  0.00    +0.000 N 
ATOM     20  C   UNL     1      10.107  -0.818   1.944  0.00  0.00    +0.000 C 
ATOM     21  O   UNL     1      10.245   0.256   1.371  0.00  0.00    +0.000 OA
ATOM     22  H   UNL     1      12.024  -0.867   2.612  0.00  0.00    +0.000 HD
ATOM     23  H   UNL     1      11.065  -2.207   3.174  0.00  0.00    +0.000 HD
ENDBRANCH  18  20
ENDBRANCH  17  18
ENDBRANCH  10  17
ENDBRANCH   8  10
ENDBRANCH   7   8
ENDBRANCH   1   7
BRANCH   4  24
ATOM     24  C   UNL     1       2.501   4.311  -2.794  0.00  0.00    +0.000 C 
BRANCH  24  25
ATOM     25  N   UNL     1       1.673   5.258  -2.093  0.00  0.00    +0.000 N 
ATOM     26  C   UNL     1       0.916   6.179  -2.766  0.00  0.00    +0.000 C 
ATOM     27  O   UNL     1       0.872   6.219  -3.992  0.00  0.00    +0.000 OA
ATOM     28  H   UNL     1       1.873   5.397  -1.108  0.00  0.00    +0.000 HD
BRANCH  26  29
ATOM     29  C   UNL     1       0.101   7.077  -1.939  0.00  0.00    +0.000 A 
ATOM     30  C   UNL     1      -1.034   7.667  -2.481  0.00  0.00    +0.000 A 
ATOM     31  S   UNL     1      -1.896   8.635  -1.373  0.00  0.00    +0.000 S 
ATOM     32  C   UNL     1      -0.755   8.340  -0.142  0.00  0.00    +0.000 A 
ATOM     33  N   UNL     1      -0.891   8.902   1.087  0.00  0.00    +0.000 NA
ATOM     34  C   UNL     1       0.053   8.612   1.914  0.00  0.00    +0.000 A 
ATOM     35  N   UNL     1       1.124   7.804   1.628  0.00  0.00    +0.000 N 
ATOM     36  C   UNL     1       1.294   7.199   0.405  0.00  0.00    +0.000 A 
ATOM     37  O   UNL     1       2.247   6.457   0.190  0.00  0.00    +0.000 OA
ATOM     38  C   UNL     1       0.260   7.500  -0.569  0.00  0.00    +0.000 A 
ATOM     39  H   UNL     1       1.832   7.615   2.320  0.00  0.00    +0.000 HD
ENDBRANCH  26  29
ENDBRANCH  24  25
ENDBRANCH   4  24
TORSDOF 10
