REMARK  Name = 
REMARK  9 active torsions:
REMARK  status: ('A' for Active; 'I' for Inactive)
REMARK    1  A    between atoms: N_1  and  C_2
REMARK    2  A    between atoms: C_2  and  C_3
REMARK    3  A    between atoms: C_3  and  N_4
REMARK    4  A    between atoms: C_3  and  C_26
REMARK    5  A    between atoms: N_4  and  C_5
REMARK    6  A    between atoms: C_5  and  C_6
REMARK    7  A    between atoms: C_9  and  C_10
REMARK    8  A    between atoms: C_10  and  N_11
REMARK    9  A    between atoms: C_12  and  C_14
REMARK                            x       y       z     vdW  Elec       q    Type
REMARK                         _______ _______ _______ _____ _____    ______ ____
ROOT
ATOM      1  C   UNL     1       2.888  -2.009  -1.296  0.00  0.00    +0.000 A 
ATOM      2  C   UNL     1       2.102  -3.032  -0.745  0.00  0.00    +0.000 A 
ATOM      3  C   UNL     1       1.394  -3.910  -1.568  0.00  0.00    +0.000 A 
ATOM      4  C   UNL     1       1.460  -3.782  -2.960  0.00  0.00    +0.000 A 
ATOM      5  C   UNL     1       2.218  -2.740  -3.511  0.00  0.00    +0.000 A 
ATOM      6  C   UNL     1       2.928  -1.864  -2.688  0.00  0.00    +0.000 A 
ENDROOT
BRANCH   1   7
ATOM      7  C   UNL     1       3.614  -1.036  -0.399  0.00  0.00    +0.000 C 
BRANCH   7   8
ATOM      8  N   UNL     1       4.464  -1.724   0.570  0.00  0.00    +0.000 NA
ATOM      9  H   UNL     1       5.134  -2.304   0.057  0.00  0.00    +0.000 HD
BRANCH   8  10
ATOM     10  C   UNL     1       5.262  -0.805   1.419  0.00  0.00    +0.000 C 
BRANCH  10  11
ATOM     11  C   UNL     1       6.215  -1.634   2.290  0.00  0.00    +0.000 A 
ATOM     12  C   UNL     1       5.832  -2.138   3.535  0.00  0.00    +0.000 A 
ATOM     13  C   UNL     1       6.725  -2.924   4.261  0.00  0.00    +0.000 A 
ATOM     14  C   UNL     1       7.972  -3.208   3.724  0.00  0.00    +0.000 A 
ATOM     15  C   UNL     1       8.274  -2.694   2.475  0.00  0.00    +0.000 A 
ATOM     16  N   UNL     1       7.431  -1.927   1.747  0.00  0.00    +0.000 NA
ENDBRANCH  10  11
BRANCH  10  17
ATOM     17  C   UNL     1       4.370   0.192   2.227  0.00  0.00    +0.000 C 
BRANCH  17  18
ATOM     18  N   UNL     1       5.102   1.197   3.006  0.00  0.00    +0.000 NA
ATOM     19  H   UNL     1       4.438   1.861   3.400  0.00  0.00    +0.000 HD
ATOM     20  H   UNL     1       5.708   1.732   2.384  0.00  0.00    +0.000 HD
ENDBRANCH  17  18
ENDBRANCH  10  17
ENDBRANCH   8  10
ENDBRANCH   7   8
ENDBRANCH   1   7
BRANCH   4  21
ATOM     21  C   UNL     1       0.687  -4.712  -3.854  0.00  0.00    +0.000 C 
BRANCH  21  22
ATOM     22  N   UNL     1      -0.625  -4.188  -4.130  0.00  0.00    +0.000 N 
ATOM     23  C   UNL     1      -1.537  -4.909  -4.855  0.00  0.00    +0.000 C 
ATOM     24  O   UNL     1      -1.292  -6.041  -5.264  0.00  0.00    +0.000 OA
ATOM     25  H   UNL     1      -0.766  -3.192  -3.987  0.00  0.00    +0.000 HD
BRANCH  23  26
ATOM     26  C   UNL     1      -2.848  -4.286  -5.068  0.00  0.00    +0.000 A 
ATOM     27  C   UNL     1      -3.948  -5.088  -5.345  0.00  0.00    +0.000 A 
ATOM     28  S   UNL     1      -5.402  -4.217  -5.524  0.00  0.00    +0.000 S 
ATOM     29  C   UNL     1      -4.607  -2.733  -5.284  0.00  0.00    +0.000 A 
ATOM     30  N   UNL     1      -5.290  -1.559  -5.337  0.00  0.00    +0.000 NA
ATOM     31  C   UNL     1      -4.560  -0.508  -5.161  0.00  0.00    +0.000 A 
ATOM     32  N   UNL     1      -3.209  -0.527  -4.931  0.00  0.00    +0.000 N 
ATOM     33  C   UNL     1      -2.482  -1.689  -4.845  0.00  0.00    +0.000 A 
ATOM     34  O   UNL     1      -1.280  -1.668  -4.601  0.00  0.00    +0.000 OA
ATOM     35  C   UNL     1      -3.253  -2.900  -5.048  0.00  0.00    +0.000 A 
ATOM     36  H   UNL     1      -2.695   0.331  -4.790  0.00  0.00    +0.000 HD
ENDBRANCH  23  26
ENDBRANCH  21  22
ENDBRANCH   4  21
TORSDOF 9
