REMARK  Name = 
REMARK  6 active torsions:
REMARK  status: ('A' for Active; 'I' for Inactive)
REMARK    1  A    between atoms: C_1  and  O_2
REMARK    2  A    between atoms: O_2  and  C_3
REMARK    3  A    between atoms: C_6  and  C_7
REMARK    4  A    between atoms: C_7  and  O_8
REMARK    5  A    between atoms: O_8  and  C_9
REMARK    6  A    between atoms: C_12  and  C_13
REMARK                            x       y       z     vdW  Elec       q    Type
REMARK                         _______ _______ _______ _____ _____    ______ ____
ROOT
ATOM      1  C   UNL     1       5.507  -6.919  -0.629  0.00  0.00    +0.000 A 
ATOM      2  C   UNL     1       6.544  -7.326   0.208  0.00  0.00    +0.000 A 
ATOM      3  C   UNL     1       7.083  -8.612   0.078  0.00  0.00    +0.000 A 
ATOM      4  C   UNL     1       6.580  -9.503  -0.879  0.00  0.00    +0.000 A 
ATOM      5  C   UNL     1       5.538  -9.096  -1.716  0.00  0.00    +0.000 A 
ATOM      6  C   UNL     1       5.010  -7.807  -1.589  0.00  0.00    +0.000 A 
ENDROOT
BRANCH   4   7
ATOM      7  C   UNL     1       7.211 -10.845  -0.988  0.00  0.00    +0.000 C 
ATOM      8  N   UNL     1       6.457 -11.860  -1.505  0.00  0.00    +0.000 N 
ATOM      9  O   UNL     1       8.357 -11.046  -0.606  0.00  0.00    +0.000 OA
ATOM     10  H   UNL     1       5.462 -11.794  -1.660  0.00  0.00    +0.000 HD
ATOM     11  H   UNL     1       6.875 -12.782  -1.492  0.00  0.00    +0.000 HD
ENDBRANCH   4   7
BRANCH   1  12
ATOM     12  O   UNL     1       4.907  -5.693  -0.629  0.00  0.00    +0.000 OA
BRANCH  12  13
ATOM     13  C   UNL     1       5.316  -4.755   0.373  0.00  0.00    +0.000 C 
BRANCH  13  17
ATOM     14  C   UNL     1       3.046  -1.131   0.110  0.00  0.00    +0.000 A 
ATOM     15  C   UNL     1       2.460  -2.326  -0.290  0.00  0.00    +0.000 A 
ATOM     16  C   UNL     1       3.189  -3.512  -0.209  0.00  0.00    +0.000 A 
ATOM     17  C   UNL     1       4.502  -3.484   0.256  0.00  0.00    +0.000 A 
ATOM     18  N   UNL     1       5.089  -2.330   0.671  0.00  0.00    +0.000 NA
ATOM     19  C   UNL     1       4.352  -1.190   0.583  0.00  0.00    +0.000 A 
BRANCH  14  21
ATOM     20  C   UNL     1       1.137   0.159  -0.439  0.00  0.00    +0.000 C 
ATOM     21  O   UNL     1       2.459   0.102   0.086  0.00  0.00    +0.000 OA
ENDBRANCH  14  21
ENDBRANCH  13  17
ENDBRANCH  12  13
ENDBRANCH   1  12
TORSDOF 5
