REMARK  Name = 
REMARK  7 active torsions:
REMARK  status: ('A' for Active; 'I' for Inactive)
REMARK    1  A    between atoms: C_1  and  O_2
REMARK    2  A    between atoms: O_2  and  C_3
REMARK    3  A    between atoms: C_5  and  C_6
REMARK    4  A    between atoms: C_11  and  O_12
REMARK    5  A    between atoms: O_12  and  C_13
REMARK    6  A    between atoms: C_13  and  C_14
REMARK    7  A    between atoms: C_18  and  C_19
REMARK                            x       y       z     vdW  Elec       q    Type
REMARK                         _______ _______ _______ _____ _____    ______ ____
ROOT
ATOM      1  C   UNL     1       3.625  -1.974   1.078  0.00  0.00    +0.000 C 
ENDROOT
BRANCH   1   2
ATOM      2  C   UNL     1       4.088  -3.075   1.996  0.00  0.00    +0.000 A 
ATOM      3  C   UNL     1       3.148  -3.793   2.727  0.00  0.00    +0.000 A 
ATOM      4  N   UNL     1       3.460  -4.731   3.643  0.00  0.00    +0.000 NA
ATOM      5  C   UNL     1       4.779  -4.959   3.847  0.00  0.00    +0.000 A 
ATOM      6  C   UNL     1       5.827  -4.300   3.195  0.00  0.00    +0.000 A 
ATOM      7  C   UNL     1       5.441  -3.336   2.250  0.00  0.00    +0.000 A 
BRANCH   6   8
ATOM      8  C   UNL     1       7.243  -4.602   3.492  0.00  0.00    +0.000 A 
ATOM      9  C   UNL     1       7.660  -4.931   4.798  0.00  0.00    +0.000 A 
ATOM     10  C   UNL     1       8.990  -5.260   5.078  0.00  0.00    +0.000 A 
ATOM     11  C   UNL     1       9.930  -5.251   4.057  0.00  0.00    +0.000 A 
ATOM     12  F   UNL     1      11.198  -5.578   4.344  0.00  0.00    +0.000 F 
ATOM     13  C   UNL     1       9.556  -4.910   2.762  0.00  0.00    +0.000 A 
ATOM     14 CL   UNL     1      10.717  -4.886   1.491  0.00  0.00    +0.000 Cl
ATOM     15  C   UNL     1       8.223  -4.589   2.481  0.00  0.00    +0.000 A 
ENDBRANCH   6   8
ENDBRANCH   1   2
BRANCH   1  16
ATOM     16  O   UNL     1       4.518  -1.786  -0.019  0.00  0.00    +0.000 OA
BRANCH  16  22
ATOM     17  C   UNL     1       3.103   0.061  -0.941  0.00  0.00    +0.000 A 
ATOM     18  C   UNL     1       2.950   0.962  -2.006  0.00  0.00    +0.000 A 
ATOM     19  C   UNL     1       3.849   0.990  -3.084  0.00  0.00    +0.000 A 
ATOM     20  C   UNL     1       4.928   0.107  -3.087  0.00  0.00    +0.000 A 
ATOM     21  C   UNL     1       5.092  -0.794  -2.027  0.00  0.00    +0.000 A 
ATOM     22  C   UNL     1       4.191  -0.830  -0.951  0.00  0.00    +0.000 A 
BRANCH  19  23
ATOM     23  C   UNL     1       3.583   1.983  -4.163  0.00  0.00    +0.000 C 
ATOM     24  N   UNL     1       4.451   2.069  -5.213  0.00  0.00    +0.000 N 
ATOM     25  O   UNL     1       2.601   2.720  -4.126  0.00  0.00    +0.000 OA
ATOM     26  H   UNL     1       5.288   1.521  -5.325  0.00  0.00    +0.000 HD
ATOM     27  H   UNL     1       4.236   2.758  -5.923  0.00  0.00    +0.000 HD
ENDBRANCH  19  23
BRANCH  17  29
ATOM     28  C   UNL     1       0.952   0.598  -0.049  0.00  0.00    +0.000 C 
ATOM     29  O   UNL     1       2.259   0.066   0.136  0.00  0.00    +0.000 OA
ENDBRANCH  17  29
ENDBRANCH  16  22
ENDBRANCH   1  16
TORSDOF 6
