REMARK  Name = 
REMARK  5 active torsions:
REMARK  status: ('A' for Active; 'I' for Inactive)
REMARK    1  A    between atoms: C_1  and  C_2
REMARK    2  A    between atoms: C_4  and  N_5
REMARK    3  A    between atoms: N_5  and  C_6
REMARK    4  A    between atoms: C_8  and  C_9
REMARK    5  A    between atoms: C_16  and  C_17
REMARK                            x       y       z     vdW  Elec       q    Type
REMARK                         _______ _______ _______ _____ _____    ______ ____
ROOT
ATOM      1  C   UNL     1       5.282  -3.149   0.733  0.00  0.00    +0.000 A 
ATOM      2  C   UNL     1       4.630  -3.890   1.733  0.00  0.00    +0.000 A 
ATOM      3  C   UNL     1       4.576  -5.291   1.686  0.00  0.00    +0.000 A 
ATOM      4  C   UNL     1       5.190  -5.966   0.620  0.00  0.00    +0.000 A 
ATOM      5  C   UNL     1       5.884  -5.252  -0.355  0.00  0.00    +0.000 A 
ATOM      6  C   UNL     1       5.945  -3.863  -0.280  0.00  0.00    +0.000 A 
ATOM      7  F   UNL     1       6.622  -3.200  -1.230  0.00  0.00    +0.000 F 
ENDROOT
BRANCH   3   8
ATOM      8  C   UNL     1       3.882  -6.107   2.724  0.00  0.00    +0.000 C 
ATOM      9  N   UNL     1       3.342  -5.481   3.813  0.00  0.00    +0.000 N 
ATOM     10  O   UNL     1       3.797  -7.325   2.618  0.00  0.00    +0.000 OA
ATOM     11  H   UNL     1       3.407  -4.499   4.020  0.00  0.00    +0.000 HD
ATOM     12  H   UNL     1       2.911  -6.079   4.505  0.00  0.00    +0.000 HD
ENDBRANCH   3   8
BRANCH   1  13
ATOM     13  N   UNL     1       5.329  -1.742   0.735  0.00  0.00    +0.000 N 
ATOM     14  H   UNL     1       6.260  -1.424   1.002  0.00  0.00    +0.000 HD
BRANCH  13  18
ATOM     15  C   UNL     1       0.942   0.217   0.131  0.00  0.00    +0.000 C 
ATOM     16  C   UNL     1       2.451   0.059   0.118  0.00  0.00    +0.000 C 
ATOM     17  C   UNL     1       2.903  -1.280   0.669  0.00  0.00    +0.000 C 
ATOM     18  C   UNL     1       4.236  -0.993   1.365  0.00  0.00    +0.000 C 
ATOM     19  C   UNL     1       4.394   0.531   1.211  0.00  0.00    +0.000 C 
ATOM     20  C   UNL     1       4.954   1.205   2.452  0.00  0.00    +0.000 C 
ATOM     21  O   UNL     1       3.075   1.039   0.953  0.00  0.00    +0.000 OA
ENDBRANCH  13  18
ENDBRANCH   1  13
TORSDOF 3
