REMARK  Name = 
REMARK  5 active torsions:
REMARK  status: ('A' for Active; 'I' for Inactive)
REMARK    1  A    between atoms: N_1  and  C_2
REMARK    2  A    between atoms: C_2  and  C_3
REMARK    3  A    between atoms: C_6  and  C_7
REMARK    4  A    between atoms: C_7  and  N_8
REMARK    5  A    between atoms: C_14  and  O_15
REMARK                            x       y       z     vdW  Elec       q    Type
REMARK                         _______ _______ _______ _____ _____    ______ ____
ROOT
ATOM      1  C   UNL     1       5.414   3.849  -0.732  0.00  0.00    +0.000 C 
ENDROOT
BRANCH   1   2
ATOM      2  N   UNL     1       6.859   3.917  -0.906  0.00  0.00    +0.000 N 
ATOM      3  C   UNL     1       7.729   2.960  -0.445  0.00  0.00    +0.000 A 
ATOM      4  C   UNL     1       9.011   3.402  -0.673  0.00  0.00    +0.000 A 
ATOM      5  C   UNL     1       8.923   4.673  -1.300  0.00  0.00    +0.000 A 
ATOM      6  C   UNL     1       9.885   5.601  -1.749  0.00  0.00    +0.000 A 
ATOM      7  C   UNL     1       9.469   6.790  -2.357  0.00  0.00    +0.000 A 
ATOM      8  C   UNL     1       8.113   7.049  -2.516  0.00  0.00    +0.000 A 
ATOM      9  C   UNL     1       7.135   6.159  -2.069  0.00  0.00    +0.000 A 
ATOM     10  C   UNL     1       7.564   4.970  -1.457  0.00  0.00    +0.000 A 
BRANCH   8  11
ATOM     11  O   UNL     1       7.686   8.196  -3.122  0.00  0.00    +0.000 OA
ATOM     12  H   UNL     1       8.466   8.696  -3.415  0.00  0.00    +0.000 HD
ENDBRANCH   8  11
ENDBRANCH   1   2
BRANCH   1  16
ATOM     13  C   UNL     1       2.932   0.933  -1.105  0.00  0.00    +0.000 C 
ATOM     14  C   UNL     1       4.458   0.814  -1.259  0.00  0.00    +0.000 C 
ATOM     15  C   UNL     1       5.020   1.818  -2.265  0.00  0.00    +0.000 C 
ATOM     16  C   UNL     1       4.650   3.277  -1.944  0.00  0.00    +0.000 C 
ATOM     17  C   UNL     1       3.128   3.403  -1.731  0.00  0.00    +0.000 C 
ATOM     18  C   UNL     1       2.572   2.382  -0.735  0.00  0.00    +0.000 C 
BRANCH  13  19
ATOM     19  C   UNL     1       2.223   0.404  -2.371  0.00  0.00    +0.000 C 
BRANCH  19  20
ATOM     20  N   UNL     1       0.768   0.447  -2.271  0.00  0.00    +0.000 NA
ATOM     21  H   UNL     1       0.368   0.060  -3.126  0.00  0.00    +0.000 HD
ATOM     22  H   UNL     1       0.454   1.416  -2.239  0.00  0.00    +0.000 HD
ENDBRANCH  19  20
ENDBRANCH  13  19
ENDBRANCH   1  16
TORSDOF 5
