REMARK  Name = 
REMARK  9 active torsions:
REMARK  status: ('A' for Active; 'I' for Inactive)
REMARK    1  A    between atoms: C_1  and  C_2
REMARK    2  A    between atoms: C_2  and  C_3
REMARK    3  A    between atoms: C_2  and  C_4
REMARK    4  A    between atoms: C_2  and  C_5
REMARK    5  A    between atoms: C_8  and  C_9
REMARK    6  A    between atoms: N_15  and  C_16
REMARK    7  A    between atoms: C_16  and  C_17
REMARK    8  A    between atoms: C_20  and  O_21
REMARK    9  A    between atoms: O_21  and  C_22
REMARK                            x       y       z     vdW  Elec       q    Type
REMARK                         _______ _______ _______ _____ _____    ______ ____
ROOT
ATOM      1  C   UNL     1       2.960   1.377  -0.317  0.00  0.00    +0.000 A 
ATOM      2  N   UNL     1       4.199   1.675  -0.733  0.00  0.00    +0.000 NA
ATOM      3  C   UNL     1       4.163   3.006  -0.903  0.00  0.00    +0.000 A 
ATOM      4  C   UNL     1       5.052   4.074  -1.085  0.00  0.00    +0.000 C 
ATOM      5  C   UNL     1       4.136   5.251  -0.877  0.00  0.00    +0.000 C 
ATOM      6  N   UNL     1       2.901   4.932  -0.556  0.00  0.00    +0.000 NA
ATOM      7  C   UNL     1       2.975   3.574  -0.568  0.00  0.00    +0.000 A 
ATOM      8  N   UNL     1       2.199   2.553  -0.117  0.00  0.00    +0.000 N 
ENDROOT
BRANCH   4   9
ATOM      9  C   UNL     1       6.485   4.104  -0.816  0.00  0.00    +0.000 C 
ATOM     10  N   UNL     1       7.096   2.891  -0.730  0.00  0.00    +0.000 N 
ATOM     11  O   UNL     1       7.090   5.152  -0.640  0.00  0.00    +0.000 OA
ATOM     12  H   UNL     1       6.566   2.025  -0.778  0.00  0.00    +0.000 HD
ATOM     13  H   UNL     1       8.055   2.860  -0.414  0.00  0.00    +0.000 HD
ENDBRANCH   4   9
BRANCH   1  15
ATOM     14  C   UNL     1       3.582  -1.066  -0.405  0.00  0.00    +0.000 C 
ATOM     15  C   UNL     1       2.470  -0.048  -0.050  0.00  0.00    +0.000 C 
ATOM     16  C   UNL     1       1.264  -0.386  -0.948  0.00  0.00    +0.000 C 
ATOM     17  C   UNL     1       2.145  -0.260   1.439  0.00  0.00    +0.000 C 
ENDBRANCH   1  15
BRANCH   8  18
ATOM     18  C   UNL     1       0.993   2.679   0.686  0.00  0.00    +0.000 C 
BRANCH  18  19
ATOM     19  C   UNL     1       0.109   3.846   0.339  0.00  0.00    +0.000 A 
ATOM     20  C   UNL     1      -0.785   3.769  -0.733  0.00  0.00    +0.000 A 
ATOM     21  C   UNL     1      -1.609   4.854  -1.053  0.00  0.00    +0.000 A 
ATOM     22  C   UNL     1      -1.569   6.008  -0.273  0.00  0.00    +0.000 A 
ATOM     23  C   UNL     1      -0.656   6.099   0.778  0.00  0.00    +0.000 A 
ATOM     24  C   UNL     1       0.176   5.024   1.093  0.00  0.00    +0.000 A 
BRANCH  22  25
ATOM     25  O   UNL     1      -2.327   7.124  -0.448  0.00  0.00    +0.000 OA
BRANCH  25  26
ATOM     26  C   UNL     1      -3.592   7.020  -1.083  0.00  0.00    +0.000 C 
ATOM     27  F   UNL     1      -4.076   5.762  -1.152  0.00  0.00    +0.000 F 
ATOM     28  F   UNL     1      -4.481   7.758  -0.378  0.00  0.00    +0.000 F 
ATOM     29  F   UNL     1      -3.517   7.532  -2.330  0.00  0.00    +0.000 F 
ENDBRANCH  25  26
ENDBRANCH  22  25
ENDBRANCH  18  19
ENDBRANCH   8  18
TORSDOF 6
