REMARK  Name = 
REMARK  8 active torsions:
REMARK  status: ('A' for Active; 'I' for Inactive)
REMARK    1  A    between atoms: N_1  and  C_2
REMARK    2  A    between atoms: C_2  and  C_3
REMARK    3  A    between atoms: C_3  and  N_4
REMARK    4  A    between atoms: C_3  and  C_17
REMARK    5  A    between atoms: C_5  and  C_7
REMARK    6  A    between atoms: C_20  and  C_21
REMARK    7  A    between atoms: C_21  and  N_22
REMARK    8  A    between atoms: C_23  and  C_25
REMARK                            x       y       z     vdW  Elec       q    Type
REMARK                         _______ _______ _______ _____ _____    ______ ____
ROOT
ATOM      1  C   UNL     1       2.879  -0.759  -1.232  0.00  0.00    +0.000 C 
ENDROOT
BRANCH   1   2
ATOM      2  C   UNL     1       4.409  -0.836  -1.169  0.00  0.00    +0.000 A 
ATOM      3  C   UNL     1       5.123  -0.052  -0.251  0.00  0.00    +0.000 A 
ATOM      4  C   UNL     1       6.519  -0.108  -0.189  0.00  0.00    +0.000 A 
ATOM      5  C   UNL     1       7.248  -0.953  -1.038  0.00  0.00    +0.000 A 
ATOM      6  C   UNL     1       6.541  -1.763  -1.934  0.00  0.00    +0.000 A 
ATOM      7  C   UNL     1       5.143  -1.700  -2.004  0.00  0.00    +0.000 A 
BRANCH   5   8
ATOM      8  C   UNL     1       8.757  -0.988  -0.989  0.00  0.00    +0.000 C 
BRANCH   8   9
ATOM      9  N   UNL     1       9.250  -1.951  -0.033  0.00  0.00    +0.000 N 
ATOM     10  C   UNL     1      10.601  -2.169   0.125  0.00  0.00    +0.000 C 
ATOM     11  O   UNL     1      11.444  -1.582  -0.545  0.00  0.00    +0.000 OA
ATOM     12  H   UNL     1       8.594  -2.393   0.590  0.00  0.00    +0.000 HD
BRANCH  10  13
ATOM     13  C   UNL     1      10.957  -3.142   1.142  0.00  0.00    +0.000 A 
ATOM     14  C   UNL     1      10.190  -3.936   1.982  0.00  0.00    +0.000 A 
ATOM     15  C   UNL     1      11.064  -4.726   2.768  0.00  0.00    +0.000 A 
ATOM     16  C   UNL     1      12.348  -4.402   2.401  0.00  0.00    +0.000 A 
ATOM     17  N   UNL     1      12.276  -3.445   1.426  0.00  0.00    +0.000 N 
ATOM     18  H   UNL     1      13.065  -3.013   0.960  0.00  0.00    +0.000 HD
ENDBRANCH  10  13
ENDBRANCH   8   9
ENDBRANCH   5   8
ENDBRANCH   1   2
BRANCH   1  19
ATOM     19  N   UNL     1       2.331  -2.026  -0.766  0.00  0.00    +0.000 N 
ATOM     20  C   UNL     1       0.995  -2.265  -0.576  0.00  0.00    +0.000 C 
ATOM     21  O   UNL     1       0.141  -1.390  -0.665  0.00  0.00    +0.000 OA
ATOM     22  H   UNL     1       2.970  -2.808  -0.780  0.00  0.00    +0.000 HD
BRANCH  20  23
ATOM     23  C   UNL     1       0.646  -3.646  -0.215  0.00  0.00    +0.000 A 
ATOM     24  C   UNL     1      -0.534  -3.919   0.464  0.00  0.00    +0.000 A 
ATOM     25  S   UNL     1      -0.718  -5.567   0.870  0.00  0.00    +0.000 S 
ATOM     26  C   UNL     1       0.750  -5.977   0.114  0.00  0.00    +0.000 A 
ATOM     27  N   UNL     1       1.211  -7.258   0.113  0.00  0.00    +0.000 NA
ATOM     28  C   UNL     1       2.329  -7.423  -0.512  0.00  0.00    +0.000 A 
ATOM     29  N   UNL     1       3.019  -6.430  -1.155  0.00  0.00    +0.000 N 
ATOM     30  C   UNL     1       2.580  -5.131  -1.199  0.00  0.00    +0.000 A 
ATOM     31  O   UNL     1       3.207  -4.274  -1.811  0.00  0.00    +0.000 OA
ATOM     32  C   UNL     1       1.356  -4.878  -0.464  0.00  0.00    +0.000 A 
ATOM     33  H   UNL     1       3.881  -6.624  -1.643  0.00  0.00    +0.000 HD
ENDBRANCH  20  23
ENDBRANCH   1  19
BRANCH   1  34
ATOM     34  C   UNL     1       2.358  -0.391  -2.656  0.00  0.00    +0.000 C 
BRANCH  34  35
ATOM     35  N   UNL     1       2.853   0.893  -3.169  0.00  0.00    +0.000 NA
ATOM     36  H   UNL     1       2.610   0.968  -4.156  0.00  0.00    +0.000 HD
ATOM     37  H   UNL     1       3.871   0.909  -3.120  0.00  0.00    +0.000 HD
ENDBRANCH  34  35
ENDBRANCH   1  34
TORSDOF 8
