REMARK  Name = 
REMARK  8 active torsions:
REMARK  status: ('A' for Active; 'I' for Inactive)
REMARK    1  A    between atoms: C_1  and  C_2
REMARK    2  A    between atoms: C_2  and  C_3
REMARK    3  A    between atoms: C_3  and  N_4
REMARK    4  A    between atoms: C_3  and  C_17
REMARK    5  A    between atoms: C_5  and  C_7
REMARK    6  A    between atoms: C_20  and  C_21
REMARK    7  A    between atoms: C_21  and  N_22
REMARK    8  A    between atoms: C_23  and  C_25
REMARK                            x       y       z     vdW  Elec       q    Type
REMARK                         _______ _______ _______ _____ _____    ______ ____
ROOT
ATOM      1  C   UNL     1      14.089  -4.342  -5.509  0.00  0.00    +0.000 C 
ENDROOT
BRANCH   1   2
ATOM      2  C   UNL     1      13.851  -2.889  -5.142  0.00  0.00    +0.000 A 
ATOM      3  C   UNL     1      13.064  -2.550  -4.036  0.00  0.00    +0.000 A 
ATOM      4  C   UNL     1      12.928  -1.213  -3.643  0.00  0.00    +0.000 A 
ATOM      5  C   UNL     1      13.559  -0.186  -4.366  0.00  0.00    +0.000 A 
ATOM      6  C   UNL     1      14.326  -0.528  -5.481  0.00  0.00    +0.000 A 
ATOM      7  C   UNL     1      14.454  -1.856  -5.872  0.00  0.00    +0.000 A 
BRANCH   5   8
ATOM      8  C   UNL     1      13.435   1.267  -3.988  0.00  0.00    +0.000 C 
BRANCH   8   9
ATOM      9  N   UNL     1      14.469   1.716  -3.085  0.00  0.00    +0.000 N 
ATOM     10  C   UNL     1      14.490   3.029  -2.665  0.00  0.00    +0.000 C 
ATOM     11  O   UNL     1      13.667   3.866  -3.036  0.00  0.00    +0.000 OA
ATOM     12  H   UNL     1      14.908   1.036  -2.479  0.00  0.00    +0.000 HD
BRANCH  10  13
ATOM     13  C   UNL     1      15.636   3.344  -1.671  0.00  0.00    +0.000 C 
ATOM     14  C   UNL     1      17.005   3.075  -2.270  0.00  0.00    +0.000 C 
ATOM     15  C   UNL     1      17.254   4.310  -3.117  0.00  0.00    +0.000 C 
ATOM     16  C   UNL     1      16.457   5.416  -2.436  0.00  0.00    +0.000 C 
ATOM     17  N   UNL     1      15.690   4.784  -1.357  0.00  0.00    +0.000 NA
ATOM     18  H   UNL     1      14.737   5.158  -1.354  0.00  0.00    +0.000 HD
ENDBRANCH  10  13
ENDBRANCH   8   9
ENDBRANCH   5   8
ENDBRANCH   1   2
BRANCH   1  19
ATOM     19  N   UNL     1      13.026  -4.821  -6.368  0.00  0.00    +0.000 N 
ATOM     20  C   UNL     1      12.618  -6.120  -6.395  0.00  0.00    +0.000 C 
ATOM     21  O   UNL     1      13.103  -7.002  -5.671  0.00  0.00    +0.000 OA
ATOM     22  H   UNL     1      12.698  -4.186  -7.095  0.00  0.00    +0.000 HD
BRANCH  20  23
ATOM     23  C   UNL     1      11.526  -6.427  -7.299  0.00  0.00    +0.000 A 
ATOM     24  C   UNL     1      10.626  -7.442  -7.021  0.00  0.00    +0.000 A 
ATOM     25  S   UNL     1       9.440  -7.634  -8.235  0.00  0.00    +0.000 S 
ATOM     26  C   UNL     1      10.122  -6.387  -9.174  0.00  0.00    +0.000 A 
ATOM     27  N   UNL     1       9.613  -6.053 -10.390  0.00  0.00    +0.000 NA
ATOM     28  C   UNL     1      10.267  -5.120 -11.001  0.00  0.00    +0.000 A 
ATOM     29  N   UNL     1      11.370  -4.479 -10.510  0.00  0.00    +0.000 N 
ATOM     30  C   UNL     1      11.895  -4.744  -9.263  0.00  0.00    +0.000 A 
ATOM     31  O   UNL     1      12.827  -4.093  -8.819  0.00  0.00    +0.000 OA
ATOM     32  C   UNL     1      11.214  -5.814  -8.558  0.00  0.00    +0.000 A 
ATOM     33  H   UNL     1      11.825  -3.743 -11.025  0.00  0.00    +0.000 HD
ENDBRANCH  20  23
ENDBRANCH   1  19
BRANCH   1  35
ATOM     34  C   UNL     1      15.779  -5.970  -6.495  0.00  0.00    +0.000 C 
ATOM     35  C   UNL     1      15.491  -4.534  -6.135  0.00  0.00    +0.000 C 
ENDBRANCH   1  35
TORSDOF 7
