REMARK  Name = 
REMARK  9 active torsions:
REMARK  status: ('A' for Active; 'I' for Inactive)
REMARK    1  A    between atoms: C_1  and  C_2
REMARK    2  A    between atoms: C_2  and  N_3
REMARK    3  A    between atoms: C_2  and  C_16
REMARK    4  A    between atoms: C_4  and  C_6
REMARK    5  A    between atoms: C_19  and  C_20
REMARK    6  A    between atoms: C_20  and  N_21
REMARK    7  A    between atoms: N_21  and  C_22
REMARK    8  A    between atoms: C_27  and  C_28
REMARK    9  A    between atoms: C_28  and  O_29
REMARK                            x       y       z     vdW  Elec       q    Type
REMARK                         _______ _______ _______ _____ _____    ______ ____
ROOT
ATOM      1  C   UNL     1       2.827   0.708   1.243  0.00  0.00    +0.000 A 
ATOM      2  C   UNL     1       2.782   2.100   1.382  0.00  0.00    +0.000 A 
ATOM      3  C   UNL     1       3.057   2.697   2.617  0.00  0.00    +0.000 A 
ATOM      4  C   UNL     1       3.384   1.914   3.734  0.00  0.00    +0.000 A 
ATOM      5  C   UNL     1       3.443   0.523   3.593  0.00  0.00    +0.000 A 
ATOM      6  C   UNL     1       3.175  -0.071   2.361  0.00  0.00    +0.000 A 
ENDROOT
BRANCH   1   8
ATOM      7  C   UNL     1       3.650  -0.699  -0.657  0.00  0.00    +0.000 C 
ATOM      8  C   UNL     1       2.444   0.042  -0.071  0.00  0.00    +0.000 C 
BRANCH   8   9
ATOM      9  N   UNL     1       1.321  -0.841   0.182  0.00  0.00    +0.000 N 
ATOM     10  C   UNL     1       0.681  -1.574  -0.783  0.00  0.00    +0.000 C 
ATOM     11  O   UNL     1       1.032  -1.587  -1.957  0.00  0.00    +0.000 OA
ATOM     12  H   UNL     1       0.795  -0.622   1.017  0.00  0.00    +0.000 HD
BRANCH  10  13
ATOM     13  C   UNL     1      -0.413  -2.419  -0.301  0.00  0.00    +0.000 A 
ATOM     14  C   UNL     1      -0.718  -3.608  -0.950  0.00  0.00    +0.000 A 
ATOM     15  S   UNL     1      -1.983  -4.481  -0.206  0.00  0.00    +0.000 S 
ATOM     16  C   UNL     1      -2.200  -3.273   0.973  0.00  0.00    +0.000 A 
ATOM     17  N   UNL     1      -3.161  -3.381   1.929  0.00  0.00    +0.000 NA
ATOM     18  C   UNL     1      -3.227  -2.376   2.739  0.00  0.00    +0.000 A 
ATOM     19  N   UNL     1      -2.414  -1.273   2.684  0.00  0.00    +0.000 N 
ATOM     20  C   UNL     1      -1.412  -1.135   1.754  0.00  0.00    +0.000 A 
ATOM     21  O   UNL     1      -0.669  -0.159   1.765  0.00  0.00    +0.000 OA
ATOM     22  C   UNL     1      -1.307  -2.228   0.815  0.00  0.00    +0.000 A 
ATOM     23  H   UNL     1      -2.507  -0.522   3.351  0.00  0.00    +0.000 HD
ENDBRANCH  10  13
ENDBRANCH   8   9
ENDBRANCH   1   8
BRANCH   4  24
ATOM     24  C   UNL     1       3.680   2.555   5.069  0.00  0.00    +0.000 C 
BRANCH  24  25
ATOM     25  N   UNL     1       2.465   2.624   5.886  0.00  0.00    +0.000 N 
ATOM     26  H   UNL     1       2.069   1.697   6.001  0.00  0.00    +0.000 HD
BRANCH  25  27
ATOM     27  C   UNL     1       2.707   3.174   7.161  0.00  0.00    +0.000 A 
ATOM     28  N   UNL     1       3.973   3.560   7.450  0.00  0.00    +0.000 NA
ATOM     29  C   UNL     1       4.242   4.078   8.660  0.00  0.00    +0.000 A 
ATOM     30  C   UNL     1       3.287   4.274   9.632  0.00  0.00    +0.000 A 
ATOM     31  C   UNL     1       1.982   3.901   9.336  0.00  0.00    +0.000 A 
ATOM     32  C   UNL     1       1.670   3.312   8.097  0.00  0.00    +0.000 A 
BRANCH  32  33
ATOM     33  C   UNL     1       0.245   2.932   7.789  0.00  0.00    +0.000 C 
BRANCH  33  34
ATOM     34  O   UNL     1      -0.444   2.480   8.958  0.00  0.00    +0.000 OA
ATOM     35  H   UNL     1      -0.011   1.655   9.236  0.00  0.00    +0.000 HD
ENDBRANCH  33  34
ENDBRANCH  32  33
ENDBRANCH  25  27
ENDBRANCH  24  25
ENDBRANCH   4  24
TORSDOF 8
