REMARK  Name = 
REMARK  6 active torsions:
REMARK  status: ('A' for Active; 'I' for Inactive)
REMARK    1  A    between atoms: C_2  and  C_19
REMARK    2  A    between atoms: N_3  and  C_4
REMARK    3  A    between atoms: C_4  and  C_5
REMARK    4  A    between atoms: C_8  and  C_9
REMARK    5  A    between atoms: C_9  and  O_10
REMARK    6  A    between atoms: C_9  and  C_11
REMARK                            x       y       z     vdW  Elec       q    Type
REMARK                         _______ _______ _______ _____ _____    ______ ____
ROOT
ATOM      1  C   UNL     1       2.245  -2.094   1.448  0.00  0.00    +0.000 C 
ENDROOT
BRANCH   1   2
ATOM      2  C   UNL     1       3.190  -3.025   2.162  0.00  0.00    +0.000 A 
ATOM      3  C   UNL     1       4.233  -2.529   2.955  0.00  0.00    +0.000 A 
ATOM      4  C   UNL     1       5.069  -3.399   3.668  0.00  0.00    +0.000 A 
ATOM      5  C   UNL     1       4.877  -4.789   3.604  0.00  0.00    +0.000 A 
ATOM      6  C   UNL     1       3.847  -5.278   2.784  0.00  0.00    +0.000 A 
ATOM      7  C   UNL     1       3.020  -4.410   2.066  0.00  0.00    +0.000 A 
BRANCH   5   8
ATOM      8  C   UNL     1       5.746  -5.742   4.417  0.00  0.00    +0.000 C 
BRANCH   8   9
ATOM      9  C   UNL     1       6.573  -6.701   3.569  0.00  0.00    +0.000 A 
ATOM     10  C   UNL     1       7.526  -6.192   2.669  0.00  0.00    +0.000 A 
ATOM     11  C   UNL     1       8.267  -7.047   1.849  0.00  0.00    +0.000 A 
ATOM     12  C   UNL     1       8.089  -8.425   1.933  0.00  0.00    +0.000 A 
ATOM     13  C   UNL     1       7.175  -8.951   2.841  0.00  0.00    +0.000 A 
ATOM     14  C   UNL     1       6.422  -8.097   3.651  0.00  0.00    +0.000 A 
ENDBRANCH   8   9
BRANCH   8  15
ATOM     15  O   UNL     1       4.917  -6.470   5.328  0.00  0.00    +0.000 OA
ATOM     16  H   UNL     1       4.100  -6.691   4.852  0.00  0.00    +0.000 HD
ENDBRANCH   8  15
ENDBRANCH   5   8
ENDBRANCH   1   2
BRANCH   1  19
ATOM     17  O   UNL     1       0.830  -0.509  -0.311  0.00  0.00    +0.000 OA
ATOM     18  C   UNL     1       1.935  -0.910  -0.652  0.00  0.00    +0.000 C 
ATOM     19  N   UNL     1       2.682  -1.763   0.121  0.00  0.00    +0.000 N 
ATOM     20  H   UNL     1       3.667  -1.898  -0.090  0.00  0.00    +0.000 HD
BRANCH  18  21
ATOM     21  C   UNL     1       2.515  -0.510  -1.938  0.00  0.00    +0.000 A 
ATOM     22  C   UNL     1       1.723  -0.163  -3.018  0.00  0.00    +0.000 A 
ATOM     23  S   UNL     1       2.621   0.347  -4.382  0.00  0.00    +0.000 S 
ATOM     24  C   UNL     1       4.097   0.139  -3.559  0.00  0.00    +0.000 A 
ATOM     25  N   UNL     1       5.287   0.442  -4.143  0.00  0.00    +0.000 NA
ATOM     26  C   UNL     1       6.315   0.268  -3.381  0.00  0.00    +0.000 A 
ATOM     27  N   UNL     1       6.265  -0.197  -2.092  0.00  0.00    +0.000 N 
ATOM     28  C   UNL     1       5.106  -0.587  -1.492  0.00  0.00    +0.000 A 
ATOM     29  O   UNL     1       5.116  -1.133  -0.394  0.00  0.00    +0.000 OA
ATOM     30  C   UNL     1       3.909  -0.352  -2.281  0.00  0.00    +0.000 A 
ATOM     31  H   UNL     1       7.106  -0.365  -1.560  0.00  0.00    +0.000 HD
ENDBRANCH  18  21
ENDBRANCH   1  19
TORSDOF 6
