REMARK  Name = 
REMARK  7 active torsions:
REMARK  status: ('A' for Active; 'I' for Inactive)
REMARK    1  A    between atoms: C_2  and  C_20
REMARK    2  A    between atoms: N_3  and  C_4
REMARK    3  A    between atoms: C_4  and  C_5
REMARK    4  A    between atoms: C_8  and  C_9
REMARK    5  A    between atoms: C_9  and  N_10
REMARK    6  A    between atoms: N_10  and  C_11
REMARK    7  A    between atoms: C_11  and  C_12
REMARK                            x       y       z     vdW  Elec       q    Type
REMARK                         _______ _______ _______ _____ _____    ______ ____
ROOT
ATOM      1  C   UNL     1       2.322  -2.074   1.190  0.00  0.00    +0.000 C 
ENDROOT
BRANCH   1   2
ATOM      2  C   UNL     1       3.269  -3.119   1.781  0.00  0.00    +0.000 C 
ATOM      3  C   UNL     1       2.667  -4.529   1.676  0.00  0.00    +0.000 C 
ATOM      4  C   UNL     1       3.583  -5.579   2.299  0.00  0.00    +0.000 C 
ATOM      5  C   UNL     1       3.916  -5.245   3.761  0.00  0.00    +0.000 C 
ATOM      6  C   UNL     1       4.489  -3.821   3.875  0.00  0.00    +0.000 C 
ATOM      7  C   UNL     1       3.579  -2.779   3.239  0.00  0.00    +0.000 C 
BRANCH   5   8
ATOM      8  C   UNL     1       4.894  -6.280   4.354  0.00  0.00    +0.000 C 
BRANCH   8   9
ATOM      9  N   UNL     1       5.167  -5.955   5.752  0.00  0.00    +0.000 NA
ATOM     10  H   UNL     1       4.298  -5.942   6.284  0.00  0.00    +0.000 HD
BRANCH   9  11
ATOM     11  C   UNL     1       6.104  -6.882   6.376  0.00  0.00    +0.000 C 
BRANCH  11  12
ATOM     12  C   UNL     1       6.377  -6.478   7.801  0.00  0.00    +0.000 A 
ATOM     13  C   UNL     1       6.950  -5.240   8.111  0.00  0.00    +0.000 A 
ATOM     14  C   UNL     1       7.182  -4.895   9.439  0.00  0.00    +0.000 A 
ATOM     15  C   UNL     1       6.838  -5.807  10.422  0.00  0.00    +0.000 A 
ATOM     16  N   UNL     1       6.286  -7.013  10.166  0.00  0.00    +0.000 NA
ATOM     17  C   UNL     1       6.068  -7.318   8.866  0.00  0.00    +0.000 A 
ENDBRANCH  11  12
ENDBRANCH   9  11
ENDBRANCH   8   9
ENDBRANCH   5   8
ENDBRANCH   1   2
BRANCH   1  20
ATOM     18  O   UNL     1       3.830  -1.033  -0.970  0.00  0.00    +0.000 OA
ATOM     19  C   UNL     1       2.847  -1.736  -1.198  0.00  0.00    +0.000 C 
ATOM     20  N   UNL     1       2.102  -2.321  -0.211  0.00  0.00    +0.000 N 
ATOM     21  H   UNL     1       1.316  -2.911  -0.450  0.00  0.00    +0.000 HD
BRANCH  19  22
ATOM     22  C   UNL     1       2.426  -2.053  -2.557  0.00  0.00    +0.000 A 
ATOM     23  C   UNL     1       3.328  -2.073  -3.613  0.00  0.00    +0.000 A 
ATOM     24  S   UNL     1       2.616  -2.531  -5.095  0.00  0.00    +0.000 S 
ATOM     25  C   UNL     1       1.075  -2.677  -4.378  0.00  0.00    +0.000 A 
ATOM     26  N   UNL     1      -0.009  -3.065  -5.092  0.00  0.00    +0.000 NA
ATOM     27  C   UNL     1      -1.102  -3.140  -4.406  0.00  0.00    +0.000 A 
ATOM     28  N   UNL     1      -1.212  -2.846  -3.072  0.00  0.00    +0.000 N 
ATOM     29  C   UNL     1      -0.159  -2.391  -2.324  0.00  0.00    +0.000 A 
ATOM     30  O   UNL     1      -0.319  -2.078  -1.150  0.00  0.00    +0.000 OA
ATOM     31  C   UNL     1       1.105  -2.359  -3.031  0.00  0.00    +0.000 A 
ATOM     32  H   UNL     1      -2.096  -2.905  -2.590  0.00  0.00    +0.000 HD
ENDBRANCH  19  22
ENDBRANCH   1  20
TORSDOF 7
