REMARK  Name = 
REMARK  6 active torsions:
REMARK  status: ('A' for Active; 'I' for Inactive)
REMARK    1  A    between atoms: C_1  and  C_2
REMARK    2  A    between atoms: C_2  and  C_3
REMARK    3  A    between atoms: C_2  and  C_4
REMARK    4  A    between atoms: C_2  and  C_11
REMARK    5  A    between atoms: C_4  and  C_5
REMARK    6  A    between atoms: C_14  and  C_15
REMARK                            x       y       z     vdW  Elec       q    Type
REMARK                         _______ _______ _______ _____ _____    ______ ____
ROOT
ATOM      1  C   UNL     1       3.127  -0.685  -1.374  0.00  0.00    +0.000 A 
ATOM      2  C   UNL     1       4.385  -1.285  -1.382  0.00  0.00    +0.000 A 
ATOM      3  C   UNL     1       4.857  -1.891  -2.546  0.00  0.00    +0.000 A 
ATOM      4  C   UNL     1       4.085  -1.871  -3.708  0.00  0.00    +0.000 A 
ATOM      5  C   UNL     1       2.855  -1.242  -3.627  0.00  0.00    +0.000 A 
ATOM      6  N   UNL     1       2.371  -0.653  -2.504  0.00  0.00    +0.000 NA
ENDROOT
BRANCH   4   7
ATOM      7  C   UNL     1       4.627  -2.490  -4.938  0.00  0.00    +0.000 C 
ATOM      8  N   UNL     1       3.902  -2.438  -6.095  0.00  0.00    +0.000 N 
ATOM      9  O   UNL     1       5.725  -3.043  -4.937  0.00  0.00    +0.000 OA
ATOM     10  H   UNL     1       3.002  -1.995  -6.215  0.00  0.00    +0.000 HD
ATOM     11  H   UNL     1       4.325  -2.862  -6.908  0.00  0.00    +0.000 HD
ENDBRANCH   4   7
BRANCH   1  13
ATOM     12  C   UNL     1       1.025   0.052  -0.171  0.00  0.00    +0.000 C 
ATOM     13  C   UNL     1       2.572   0.049  -0.146  0.00  0.00    +0.000 C 
ATOM     14  C   UNL     1       3.005   1.533  -0.274  0.00  0.00    +0.000 C 
BRANCH  13  15
ATOM     15  C   UNL     1       3.098  -0.492   1.231  0.00  0.00    +0.000 C 
BRANCH  15  16
ATOM     16  C   UNL     1       2.836  -1.946   1.591  0.00  0.00    +0.000 A 
ATOM     17  C   UNL     1       3.899  -2.854   1.729  0.00  0.00    +0.000 A 
ATOM     18  C   UNL     1       3.665  -4.191   2.065  0.00  0.00    +0.000 A 
ATOM     19  C   UNL     1       2.364  -4.643   2.268  0.00  0.00    +0.000 A 
ATOM     20  C   UNL     1       1.302  -3.751   2.163  0.00  0.00    +0.000 A 
ATOM     21  C   UNL     1       1.540  -2.410   1.852  0.00  0.00    +0.000 A 
ENDBRANCH  15  16
ENDBRANCH  13  15
ENDBRANCH   1  13
TORSDOF 4
