REMARK  Name = 
REMARK  4 active torsions:
REMARK  status: ('A' for Active; 'I' for Inactive)
REMARK    1  A    between atoms: C_2  and  C_4
REMARK    2  A    between atoms: N_8  and  C_9
REMARK    3  A    between atoms: C_9  and  C_10
REMARK    4  A    between atoms: C_13  and  C_14
REMARK                            x       y       z     vdW  Elec       q    Type
REMARK                         _______ _______ _______ _____ _____    ______ ____
ROOT
ATOM      1  C   UNL     1       0.428   2.122  -2.801  0.00  0.00    +0.000 A 
ATOM      2  C   UNL     1       1.450   2.923  -2.307  0.00  0.00    +0.000 A 
ATOM      3  C   UNL     1       2.491   3.296  -3.156  0.00  0.00    +0.000 A 
ATOM      4  C   UNL     1       2.504   2.849  -4.473  0.00  0.00    +0.000 A 
ATOM      5  N   UNL     1       3.441   3.270  -5.400  0.00  0.00    +0.000 N 
ATOM      6  N   UNL     1       1.543   2.034  -4.949  0.00  0.00    +0.000 NA
ATOM      7  C   UNL     1       0.533   1.682  -4.110  0.00  0.00    +0.000 A 
ATOM      8  H   UNL     1       3.317   2.717  -6.246  0.00  0.00    +0.000 HD
ENDROOT
BRANCH   1  10
ATOM      9  N   UNL     1      -1.121   2.602  -0.996  0.00  0.00    +0.000 N 
ATOM     10  C   UNL     1      -0.750   1.745  -1.997  0.00  0.00    +0.000 C 
ATOM     11  O   UNL     1      -1.395   0.731  -2.237  0.00  0.00    +0.000 OA
ATOM     12  H   UNL     1      -1.998   2.398  -0.534  0.00  0.00    +0.000 HD
ATOM     13  H   UNL     1      -0.783   3.553  -0.949  0.00  0.00    +0.000 HD
ENDBRANCH   1  10
BRANCH   5  14
ATOM     14  C   UNL     1       4.816   3.444  -4.979  0.00  0.00    +0.000 C 
BRANCH  14  15
ATOM     15  C   UNL     1       5.667   3.850  -6.157  0.00  0.00    +0.000 A 
ATOM     16  C   UNL     1       5.727   5.186  -6.566  0.00  0.00    +0.000 A 
ATOM     17  C   UNL     1       6.526   5.567  -7.651  0.00  0.00    +0.000 A 
ATOM     18  C   UNL     1       7.293   4.629  -8.365  0.00  0.00    +0.000 A 
ATOM     19  C   UNL     1       7.209   3.288  -7.945  0.00  0.00    +0.000 A 
ATOM     20  C   UNL     1       6.401   2.900  -6.869  0.00  0.00    +0.000 A 
BRANCH  18  21
ATOM     21  C   UNL     1       8.152   5.030  -9.509  0.00  0.00    +0.000 A 
ATOM     22  C   UNL     1       8.773   6.291  -9.566  0.00  0.00    +0.000 A 
ATOM     23  C   UNL     1       9.588   6.659 -10.643  0.00  0.00    +0.000 A 
ATOM     24  C   UNL     1       9.812   5.768 -11.687  0.00  0.00    +0.000 A 
ATOM     25  C   UNL     1       9.213   4.514 -11.659  0.00  0.00    +0.000 A 
ATOM     26  C   UNL     1       8.387   4.156 -10.589  0.00  0.00    +0.000 A 
ENDBRANCH  18  21
ENDBRANCH  14  15
ENDBRANCH   5  14
TORSDOF 4
