REMARK  Name = 
REMARK  5 active torsions:
REMARK  status: ('A' for Active; 'I' for Inactive)
REMARK    1  A    between atoms: N_1  and  C_2
REMARK    2  A    between atoms: C_2  and  C_3
REMARK    3  A    between atoms: C_3  and  C_4
REMARK    4  A    between atoms: C_7  and  C_8
REMARK    5  A    between atoms: C_8  and  N_9
REMARK                            x       y       z     vdW  Elec       q    Type
REMARK                         _______ _______ _______ _____ _____    ______ ____
ROOT
ATOM      1  C   UNL     1       4.433  -1.116  -1.089  0.00  0.00    +0.000 A 
ATOM      2  C   UNL     1       5.123   0.003  -1.553  0.00  0.00    +0.000 A 
ATOM      3  C   UNL     1       6.516   0.015  -1.528  0.00  0.00    +0.000 A 
ATOM      4  C   UNL     1       7.197  -1.094  -1.023  0.00  0.00    +0.000 A 
ATOM      5  N   UNL     1       6.544  -2.210  -0.608  0.00  0.00    +0.000 NA
ATOM      6  C   UNL     1       5.190  -2.196  -0.653  0.00  0.00    +0.000 A 
ENDROOT
BRANCH   1   7
ATOM      7  C   UNL     1       2.928  -1.151  -1.061  0.00  0.00    +0.000 C 
BRANCH   7   8
ATOM      8  C   UNL     1       2.333  -1.661  -2.376  0.00  0.00    +0.000 C 
BRANCH   8   9
ATOM      9  N   UNL     1       0.872  -1.658  -2.321  0.00  0.00    +0.000 NA
ATOM     10  H   UNL     1       0.500  -1.980  -3.214  0.00  0.00    +0.000 HD
ATOM     11  H   UNL     1       0.533  -0.703  -2.204  0.00  0.00    +0.000 HD
ENDBRANCH   8   9
ENDBRANCH   7   8
ENDBRANCH   1   7
BRANCH   4  12
ATOM     12  C   UNL     1       8.703  -1.102  -0.926  0.00  0.00    +0.000 C 
BRANCH  12  13
ATOM     13  N   UNL     1       9.184  -0.038  -0.056  0.00  0.00    +0.000 N 
ATOM     14  N   UNL     1       9.566   1.143  -0.605  0.00  0.00    +0.000 NA
ATOM     15  C   UNL     1       9.883   1.889   0.454  0.00  0.00    +0.000 A 
ATOM     16  C   UNL     1       9.740   1.201   1.676  0.00  0.00    +0.000 A 
ATOM     17  C   UNL     1       9.926   1.512   3.035  0.00  0.00    +0.000 A 
ATOM     18  C   UNL     1       9.668   0.527   3.995  0.00  0.00    +0.000 A 
ATOM     19  C   UNL     1       9.239  -0.744   3.614  0.00  0.00    +0.000 A 
ATOM     20  C   UNL     1       9.048  -1.071   2.266  0.00  0.00    +0.000 A 
ATOM     21  C   UNL     1       9.300  -0.072   1.316  0.00  0.00    +0.000 A 
ENDBRANCH  12  13
ENDBRANCH   4  12
TORSDOF 5
