REMARK  Name = 
REMARK  5 active torsions:
REMARK  status: ('A' for Active; 'I' for Inactive)
REMARK    1  A    between atoms: C_2  and  C_4
REMARK    2  A    between atoms: C_7  and  O_8
REMARK    3  A    between atoms: O_8  and  C_9
REMARK    4  A    between atoms: C_9  and  C_10
REMARK    5  A    between atoms: C_15  and  C_16
REMARK                            x       y       z     vdW  Elec       q    Type
REMARK                         _______ _______ _______ _____ _____    ______ ____
ROOT
ATOM      1  C   UNL     1       5.945   1.191   6.852  0.00  0.00    +0.000 A 
ATOM      2  C   UNL     1       6.096   2.574   6.987  0.00  0.00    +0.000 A 
ATOM      3  C   UNL     1       6.875   3.082   8.015  0.00  0.00    +0.000 A 
ATOM      4  F   UNL     1       7.016   4.409   8.140  0.00  0.00    +0.000 F 
ATOM      5  C   UNL     1       7.488   2.240   8.934  0.00  0.00    +0.000 A 
ATOM      6  C   UNL     1       7.316   0.851   8.857  0.00  0.00    +0.000 A 
ATOM      7  C   UNL     1       6.552   0.340   7.792  0.00  0.00    +0.000 A 
ENDROOT
BRANCH   6   8
ATOM      8  C   UNL     1       7.830  -0.110   9.926  0.00  0.00    +0.000 C 
ATOM      9  C   UNL     1       6.744  -0.364  10.988  0.00  0.00    +0.000 C 
ATOM     10  C   UNL     1       6.645   0.786  11.990  0.00  0.00    +0.000 C 
ATOM     11  C   UNL     1       8.006   1.151  12.582  0.00  0.00    +0.000 C 
ATOM     12  N   UNL     1       9.022   1.400  11.564  0.00  0.00    +0.000 NA
ATOM     13  C   UNL     1       9.153   0.284  10.621  0.00  0.00    +0.000 C 
ATOM     14  H   UNL     1       9.921   1.585  12.007  0.00  0.00    +0.000 HD
ENDBRANCH   6   8
BRANCH   1  15
ATOM     15  C   UNL     1       5.092   0.627   5.748  0.00  0.00    +0.000 C 
BRANCH  15  16
ATOM     16  O   UNL     1       3.776   0.427   6.257  0.00  0.00    +0.000 OA
BRANCH  16  20
ATOM     17  C   UNL     1       0.766  -1.008   3.752  0.00  0.00    +0.000 A 
ATOM     18  C   UNL     1       2.052  -0.846   3.227  0.00  0.00    +0.000 A 
ATOM     19  C   UNL     1       3.088  -0.370   4.036  0.00  0.00    +0.000 A 
ATOM     20  C   UNL     1       2.846  -0.046   5.372  0.00  0.00    +0.000 A 
ATOM     21  C   UNL     1       1.558  -0.197   5.893  0.00  0.00    +0.000 A 
ATOM     22  C   UNL     1       0.518  -0.670   5.087  0.00  0.00    +0.000 A 
BRANCH  17  24
ATOM     23  N   UNL     1      -0.037  -2.317   1.864  0.00  0.00    +0.000 N 
ATOM     24  C   UNL     1      -0.355  -1.504   2.917  0.00  0.00    +0.000 C 
ATOM     25  O   UNL     1      -1.521  -1.229   3.172  0.00  0.00    +0.000 OA
ATOM     26  H   UNL     1      -0.817  -2.727   1.364  0.00  0.00    +0.000 HD
ATOM     27  H   UNL     1       0.864  -2.764   1.775  0.00  0.00    +0.000 HD
ENDBRANCH  17  24
ENDBRANCH  16  20
ENDBRANCH  15  16
ENDBRANCH   1  15
TORSDOF 5
