REMARK  Name = 
REMARK  4 active torsions:
REMARK  status: ('A' for Active; 'I' for Inactive)
REMARK    1  A    between atoms: C_2  and  C_3
REMARK    2  A    between atoms: C_6  and  C_7
REMARK    3  A    between atoms: C_7  and  C_8
REMARK    4  A    between atoms: C_12  and  C_13
REMARK                            x       y       z     vdW  Elec       q    Type
REMARK                         _______ _______ _______ _____ _____    ______ ____
ROOT
ATOM      1  C   UNL     1       3.990   1.412   0.753  0.00  0.00    +0.000 A 
ATOM      2  C   UNL     1       3.989   2.564  -0.048  0.00  0.00    +0.000 A 
ATOM      3  C   UNL     1       3.861   3.830   0.517  0.00  0.00    +0.000 A 
ATOM      4  C   UNL     1       3.742   3.967   1.901  0.00  0.00    +0.000 A 
ATOM      5  C   UNL     1       3.806   2.852   2.751  0.00  0.00    +0.000 A 
ATOM      6  C   UNL     1       3.980   1.591   2.151  0.00  0.00    +0.000 A 
ENDROOT
BRANCH   5   7
ATOM      7  C   UNL     1       3.587   2.971   4.207  0.00  0.00    +0.000 A 
ATOM      8  C   UNL     1       2.632   3.849   4.741  0.00  0.00    +0.000 A 
ATOM      9  C   UNL     1       2.405   3.907   6.116  0.00  0.00    +0.000 A 
ATOM     10  C   UNL     1       3.140   3.071   6.936  0.00  0.00    +0.000 A 
ATOM     11  N   UNL     1       4.069   2.208   6.480  0.00  0.00    +0.000 NA
ATOM     12  C   UNL     1       4.269   2.183   5.138  0.00  0.00    +0.000 A 
ENDBRANCH   5   7
BRANCH   1  13
ATOM     13  C   UNL     1       3.774   0.025   0.141  0.00  0.00    +0.000 C 
ATOM     14  C   UNL     1       2.667  -0.836   0.759  0.00  0.00    +0.000 C 
ATOM     15  C   UNL     1       2.414  -0.159  -0.546  0.00  0.00    +0.000 C 
BRANCH  13  19
ATOM     16  C   UNL     1       7.074  -2.183  -1.685  0.00  0.00    +0.000 A 
ATOM     17  C   UNL     1       6.806  -2.320  -0.321  0.00  0.00    +0.000 A 
ATOM     18  C   UNL     1       5.770  -1.585   0.271  0.00  0.00    +0.000 A 
ATOM     19  C   UNL     1       4.970  -0.701  -0.479  0.00  0.00    +0.000 A 
ATOM     20  C   UNL     1       5.283  -0.561  -1.842  0.00  0.00    +0.000 A 
ATOM     21  C   UNL     1       6.314  -1.292  -2.443  0.00  0.00    +0.000 A 
BRANCH  16  23
ATOM     22  N   UNL     1       8.951  -3.583  -2.810  0.00  0.00    +0.000 NA
ATOM     23  C   UNL     1       8.113  -2.954  -2.302  0.00  0.00    +0.000 C 
ENDBRANCH  16  23
ENDBRANCH  13  19
ENDBRANCH   1  13
TORSDOF 4
