REMARK  Name = 
REMARK  7 active torsions:
REMARK  status: ('A' for Active; 'I' for Inactive)
REMARK    1  A    between atoms: C_2  and  C_4
REMARK    2  A    between atoms: C_7  and  C_8
REMARK    3  A    between atoms: N_10  and  C_11
REMARK    4  A    between atoms: C_11  and  C_12
REMARK    5  A    between atoms: C_15  and  C_16
REMARK    6  A    between atoms: C_16  and  N_17
REMARK    7  A    between atoms: C_18  and  C_20
REMARK                            x       y       z     vdW  Elec       q    Type
REMARK                         _______ _______ _______ _____ _____    ______ ____
ROOT
ATOM      1  C   UNL     1       6.294  -5.277  -5.952  0.00  0.00    +0.000 A 
ATOM      2  C   UNL     1       6.513  -6.542  -6.456  0.00  0.00    +0.000 A 
ATOM      3  C   UNL     1       6.317  -6.818  -7.790  0.00  0.00    +0.000 A 
ATOM      4  C   UNL     1       5.933  -5.850  -8.686  0.00  0.00    +0.000 A 
ATOM      5  C   UNL     1       5.649  -4.606  -8.153  0.00  0.00    +0.000 A 
ATOM      6  C   UNL     1       5.969  -4.275  -6.843  0.00  0.00    +0.000 A 
ENDROOT
BRANCH   1   7
ATOM      7  C   UNL     1       6.419  -5.041  -4.480  0.00  0.00    +0.000 C 
BRANCH   7  10
ATOM      8  C   UNL     1       8.120  -4.395  -2.746  0.00  0.00    +0.000 C 
ATOM      9  O   UNL     1       7.260  -4.477  -1.871  0.00  0.00    +0.000 OA
ATOM     10  N   UNL     1       7.779  -4.663  -4.088  0.00  0.00    +0.000 N 
ATOM     11  H   UNL     1       8.456  -4.612  -4.839  0.00  0.00    +0.000 HD
BRANCH   8  15
ATOM     12  C   UNL     1      12.008  -3.489  -2.501  0.00  0.00    +0.000 A 
ATOM     13  C   UNL     1      11.442  -3.402  -1.247  0.00  0.00    +0.000 A 
ATOM     14  C   UNL     1      10.056  -3.710  -1.218  0.00  0.00    +0.000 A 
ATOM     15  C   UNL     1       9.518  -4.014  -2.446  0.00  0.00    +0.000 A 
ATOM     16  S   UNL     1      10.768  -3.880  -3.659  0.00  0.00    +0.000 S 
BRANCH  12  18
ATOM     17  N   UNL     1      13.743  -3.462  -4.245  0.00  0.00    +0.000 N 
ATOM     18  C   UNL     1      13.423  -3.322  -2.888  0.00  0.00    +0.000 C 
ATOM     19  O   UNL     1      14.314  -3.075  -2.078  0.00  0.00    +0.000 OA
ATOM     20  H   UNL     1      14.703  -3.336  -4.575  0.00  0.00    +0.000 HD
ATOM     21  H   UNL     1      13.064  -3.653  -4.972  0.00  0.00    +0.000 HD
ENDBRANCH  12  18
ENDBRANCH   8  15
ENDBRANCH   7  10
ENDBRANCH   1   7
BRANCH   4  22
ATOM     22  C   UNL     1       5.869  -6.107 -10.169  0.00  0.00    +0.000 C 
BRANCH  22  23
ATOM     23  N   UNL     1       4.556  -6.601 -10.615  0.00  0.00    +0.000 N 
ATOM     24  C   UNL     1       4.280  -6.902 -11.952  0.00  0.00    +0.000 C 
ATOM     25  O   UNL     1       5.148  -6.759 -12.806  0.00  0.00    +0.000 OA
ATOM     26  H   UNL     1       3.862  -6.758  -9.904  0.00  0.00    +0.000 HD
BRANCH  24  27
ATOM     27  C   UNL     1       2.900  -7.365 -12.341  0.00  0.00    +0.000 A 
ATOM     28  C   UNL     1       2.598  -7.672 -13.673  0.00  0.00    +0.000 A 
ATOM     29  S   UNL     1       0.985  -8.255 -13.870  0.00  0.00    +0.000 S 
ATOM     30  C   UNL     1       0.597  -8.157 -12.207  0.00  0.00    +0.000 A 
ATOM     31  N   UNL     1      -0.609  -8.488 -11.655  0.00  0.00    +0.000 NA
ATOM     32  C   UNL     1      -0.558  -8.295 -10.436  0.00  0.00    +0.000 A 
ATOM     33  N   UNL     1      -0.529  -8.106  -9.196  0.00  0.00    +0.000 N 
ATOM     34  C   UNL     1       1.208  -7.566  -9.852  0.00  0.00    +0.000 A 
ATOM     35  O   UNL     1       2.256  -7.138  -9.340  0.00  0.00    +0.000 OA
ATOM     36  C   UNL     1       1.638  -7.683 -11.454  0.00  0.00    +0.000 A 
ATOM     37  H   UNL     1      -1.654  -8.518  -9.294  0.00  0.00    +0.000 HD
ENDBRANCH  24  27
ENDBRANCH  22  23
ENDBRANCH   4  22
TORSDOF 7
