REMARK  Name = 
REMARK  9 active torsions:
REMARK  status: ('A' for Active; 'I' for Inactive)
REMARK    1  A    between atoms: C_1  and  O_2
REMARK    2  A    between atoms: O_2  and  C_3
REMARK    3  A    between atoms: C_10  and  C_11
REMARK    4  A    between atoms: N_13  and  C_14
REMARK    5  A    between atoms: C_14  and  C_15
REMARK    6  A    between atoms: C_18  and  C_19
REMARK    7  A    between atoms: C_19  and  O_20
REMARK    8  A    between atoms: O_20  and  C_21
REMARK    9  A    between atoms: C_21  and  C_22
REMARK                            x       y       z     vdW  Elec       q    Type
REMARK                         _______ _______ _______ _____ _____    ______ ____
ROOT
ATOM      1  C   UNL     1       2.887  -0.676  -3.310  0.00  0.00    +0.000 C 
ENDROOT
BRANCH   1   2
ATOM      2  C   UNL     1       1.682  -1.500  -2.935  0.00  0.00    +0.000 A 
ATOM      3  C   UNL     1       1.748  -2.899  -2.903  0.00  0.00    +0.000 A 
ATOM      4  C   UNL     1       0.639  -3.656  -2.510  0.00  0.00    +0.000 A 
ATOM      5  C   UNL     1      -0.565  -3.032  -2.152  0.00  0.00    +0.000 A 
ATOM      6  C   UNL     1      -0.642  -1.634  -2.225  0.00  0.00    +0.000 A 
ATOM      7  C   UNL     1       0.467  -0.878  -2.618  0.00  0.00    +0.000 A 
BRANCH   5   8
ATOM      8  C   UNL     1      -1.748  -3.848  -1.692  0.00  0.00    +0.000 C 
BRANCH   8   9
ATOM      9  O   UNL     1      -1.381  -4.563  -0.516  0.00  0.00    +0.000 OA
BRANCH   9  10
ATOM     10  C   UNL     1      -2.472  -5.330   0.004  0.00  0.00    +0.000 C 
BRANCH  10  11
ATOM     11  C   UNL     1      -2.056  -6.098   1.240  0.00  0.00    +0.000 A 
ATOM     12  C   UNL     1      -1.115  -5.573   2.125  0.00  0.00    +0.000 A 
ATOM     13  C   UNL     1      -0.762  -6.306   3.254  0.00  0.00    +0.000 A 
ATOM     14  C   UNL     1      -1.365  -7.536   3.481  0.00  0.00    +0.000 A 
ATOM     15  C   UNL     1      -2.308  -7.979   2.569  0.00  0.00    +0.000 A 
ATOM     16  N   UNL     1      -2.671  -7.290   1.464  0.00  0.00    +0.000 NA
ENDBRANCH  10  11
ENDBRANCH   9  10
ENDBRANCH   8   9
ENDBRANCH   5   8
ENDBRANCH   1   2
BRANCH   1  19
ATOM     17  C   UNL     1       4.001   0.228  -5.302  0.00  0.00    +0.000 C 
ATOM     18  O   UNL     1       4.892   0.718  -4.614  0.00  0.00    +0.000 OA
ATOM     19  N   UNL     1       2.967  -0.466  -4.733  0.00  0.00    +0.000 N 
ATOM     20  H   UNL     1       2.210  -0.817  -5.304  0.00  0.00    +0.000 HD
BRANCH  17  28
ATOM     21  C   UNL     1       1.899  -0.891  -7.800  0.00  0.00    +0.000 A 
ATOM     22  N   UNL     1       1.315  -1.263  -8.958  0.00  0.00    +0.000 NA
ATOM     23  C   UNL     1       1.897  -0.903 -10.103  0.00  0.00    +0.000 A 
ATOM     24  N   UNL     1       3.013  -0.192 -10.244  0.00  0.00    +0.000 NA
ATOM     25  C   UNL     1       3.570   0.148  -9.070  0.00  0.00    +0.000 A 
ATOM     26  S   UNL     1       4.995   1.070  -9.061  0.00  0.00    +0.000 S 
ATOM     27  C   UNL     1       5.055   1.051  -7.365  0.00  0.00    +0.000 A 
ATOM     28  C   UNL     1       4.012   0.349  -6.771  0.00  0.00    +0.000 A 
ATOM     29  C   UNL     1       3.105  -0.166  -7.796  0.00  0.00    +0.000 A 
BRANCH  21  31
ATOM     30  C   UNL     1       0.026  -1.892  -6.793  0.00  0.00    +0.000 C 
ATOM     31  O   UNL     1       1.271  -1.218  -6.615  0.00  0.00    +0.000 OA
ENDBRANCH  21  31
ENDBRANCH  17  28
ENDBRANCH   1  19
TORSDOF 8
