REMARK  Name = 
REMARK  9 active torsions:
REMARK  status: ('A' for Active; 'I' for Inactive)
REMARK    1  A    between atoms: C_1  and  N_2
REMARK    2  A    between atoms: N_2  and  C_3
REMARK    3  A    between atoms: N_2  and  C_4
REMARK    4  A    between atoms: C_4  and  C_5
REMARK    5  A    between atoms: C_5  and  N_6
REMARK    6  A    between atoms: C_7  and  C_9
REMARK    7  A    between atoms: N_13  and  C_14
REMARK    8  A    between atoms: C_14  and  C_15
REMARK    9  A    between atoms: C_15  and  C_16
REMARK                            x       y       z     vdW  Elec       q    Type
REMARK                         _______ _______ _______ _____ _____    ______ ____
ROOT
ATOM      1  C   UNL     1       6.998  -2.991   3.234  0.00  0.00    +0.000 A 
ATOM      2  C   UNL     1       6.437  -4.256   3.374  0.00  0.00    +0.000 A 
ATOM      3  C   UNL     1       7.048  -5.178   4.234  0.00  0.00    +0.000 A 
ATOM      4  C   UNL     1       8.171  -4.807   4.978  0.00  0.00    +0.000 A 
ATOM      5  N   UNL     1       8.794  -5.776   5.789  0.00  0.00    +0.000 N 
ATOM      6  N   UNL     1       8.714  -3.581   4.850  0.00  0.00    +0.000 NA
ATOM      7  C   UNL     1       8.138  -2.714   3.976  0.00  0.00    +0.000 A 
ATOM      8  H   UNL     1       8.101  -6.427   6.141  0.00  0.00    +0.000 HD
ENDROOT
BRANCH   1  10
ATOM      9  N   UNL     1       5.180  -2.020   1.902  0.00  0.00    +0.000 N 
ATOM     10  C   UNL     1       6.504  -1.966   2.290  0.00  0.00    +0.000 C 
ATOM     11  O   UNL     1       7.278  -1.096   1.890  0.00  0.00    +0.000 OA
ATOM     12  H   UNL     1       4.509  -2.560   2.436  0.00  0.00    +0.000 HD
BRANCH   9  13
ATOM     13  C   UNL     1       4.637  -0.981   1.045  0.00  0.00    +0.000 C 
BRANCH  13  14
ATOM     14  C   UNL     1       3.340  -1.407   0.336  0.00  0.00    +0.000 C 
BRANCH  14  16
ATOM     15  C   UNL     1       1.765  -0.651   2.034  0.00  0.00    +0.000 C 
ATOM     16  N   UNL     1       2.230  -1.793   1.239  0.00  0.00    +0.000 NA
ATOM     17  C   UNL     1       1.111  -2.300   0.432  0.00  0.00    +0.000 C 
ENDBRANCH  14  16
ENDBRANCH  13  14
ENDBRANCH   9  13
ENDBRANCH   1  10
BRANCH   5  18
ATOM     18  C   UNL     1       9.593  -5.189   6.871  0.00  0.00    +0.000 C 
BRANCH  18  19
ATOM     19  C   UNL     1      10.193  -6.304   7.741  0.00  0.00    +0.000 C 
BRANCH  19  20
ATOM     20  C   UNL     1      10.974  -5.757   8.895  0.00  0.00    +0.000 A 
ATOM     21  C   UNL     1      10.410  -5.500  10.126  0.00  0.00    +0.000 A 
ATOM     22  N   UNL     1      11.081  -4.957  11.160  0.00  0.00    +0.000 NA
ATOM     23  C   UNL     1      12.361  -4.645  10.942  0.00  0.00    +0.000 A 
ATOM     24  N   UNL     1      13.066  -4.071  11.978  0.00  0.00    +0.000 N 
ATOM     25  N   UNL     1      13.020  -4.879   9.804  0.00  0.00    +0.000 NA
ATOM     26  C   UNL     1      12.307  -5.424   8.797  0.00  0.00    +0.000 A 
ATOM     27  H   UNL     1      12.640  -4.318  12.860  0.00  0.00    +0.000 HD
ATOM     28  H   UNL     1      14.051  -4.258  11.863  0.00  0.00    +0.000 HD
ENDBRANCH  19  20
ENDBRANCH  18  19
ENDBRANCH   5  18
TORSDOF 7
