REMARK  Name = 
REMARK  9 active torsions:
REMARK  status: ('A' for Active; 'I' for Inactive)
REMARK    1  A    between atoms: C_2  and  C_4
REMARK    2  A    between atoms: C_7  and  N_8
REMARK    3  A    between atoms: N_8  and  C_9
REMARK    4  A    between atoms: C_9  and  C_10
REMARK    5  A    between atoms: C_10  and  C_13
REMARK    6  A    between atoms: C_15  and  N_16
REMARK    7  A    between atoms: N_16  and  C_17
REMARK    8  A    between atoms: C_17  and  C_18
REMARK    9  A    between atoms: C_24  and  C_25
REMARK                            x       y       z     vdW  Elec       q    Type
REMARK                         _______ _______ _______ _____ _____    ______ ____
ROOT
ATOM      1  C   UNL     1       5.612   2.773  -8.098  0.00  0.00    +0.000 A 
ATOM      2  C   UNL     1       4.739   2.551  -9.191  0.00  0.00    +0.000 A 
ATOM      3  C   UNL     1       4.403   3.561 -10.107  0.00  0.00    +0.000 A 
ATOM      4  C   UNL     1       4.930   4.831  -9.880  0.00  0.00    +0.000 A 
ATOM      5  C   UNL     1       5.803   5.078  -8.821  0.00  0.00    +0.000 A 
ATOM      6  C   UNL     1       6.153   4.059  -7.927  0.00  0.00    +0.000 A 
ENDROOT
BRANCH   6   7
ATOM      7  C   UNL     1       7.155   4.374  -6.878  0.00  0.00    +0.000 C 
ATOM      8  N   UNL     1       7.128   5.630  -6.337  0.00  0.00    +0.000 N 
ATOM      9  O   UNL     1       7.998   3.554  -6.541  0.00  0.00    +0.000 OA
ATOM     10  H   UNL     1       6.403   6.308  -6.520  0.00  0.00    +0.000 HD
ATOM     11  H   UNL     1       7.798   5.836  -5.607  0.00  0.00    +0.000 HD
ENDBRANCH   6   7
BRANCH   1  12
ATOM     12  C   UNL     1       5.897   1.609  -7.162  0.00  0.00    +0.000 C 
ATOM     13  F   UNL     1       4.826   0.748  -7.124  0.00  0.00    +0.000 F 
ATOM     14  F   UNL     1       6.055   1.984  -5.858  0.00  0.00    +0.000 F 
BRANCH  12  15
ATOM     15  C   UNL     1       7.134   0.788  -7.628  0.00  0.00    +0.000 C 
BRANCH  15  16
ATOM     16  N   UNL     1       7.533  -0.279  -6.681  0.00  0.00    +0.000 N 
ATOM     17  H   UNL     1       7.586   0.094  -5.731  0.00  0.00    +0.000 HD
BRANCH  16  21
ATOM     18  C   UNL     1       6.200  -4.218  -6.729  0.00  0.00    +0.000 A 
ATOM     19  C   UNL     1       6.138  -3.504  -7.916  0.00  0.00    +0.000 A 
ATOM     20  C   UNL     1       6.548  -2.170  -7.913  0.00  0.00    +0.000 A 
ATOM     21  C   UNL     1       6.993  -1.562  -6.737  0.00  0.00    +0.000 A 
ATOM     22  C   UNL     1       7.037  -2.393  -5.609  0.00  0.00    +0.000 A 
ATOM     23  N   UNL     1       6.639  -3.691  -5.557  0.00  0.00    +0.000 NA
BRANCH  18  25
ATOM     24  N   UNL     1       5.830  -6.265  -5.483  0.00  0.00    +0.000 N 
ATOM     25  C   UNL     1       5.793  -5.659  -6.709  0.00  0.00    +0.000 C 
ATOM     26  O   UNL     1       5.446  -6.264  -7.717  0.00  0.00    +0.000 OA
ATOM     27  H   UNL     1       5.564  -7.235  -5.396  0.00  0.00    +0.000 HD
ATOM     28  H   UNL     1       6.113  -5.729  -4.670  0.00  0.00    +0.000 HD
ENDBRANCH  18  25
ENDBRANCH  16  21
ENDBRANCH  15  16
ENDBRANCH  12  15
ENDBRANCH   1  12
BRANCH   3  29
ATOM     29  N   UNL     1       3.463   3.280 -11.099  0.00  0.00    +0.000 N 
ATOM     30  H   UNL     1       3.568   2.337 -11.473  0.00  0.00    +0.000 HD
BRANCH  29  31
ATOM     31  C   UNL     1       3.115   4.275 -12.109  0.00  0.00    +0.000 C 
BRANCH  31  32
ATOM     32  C   UNL     1       1.785   3.935 -12.752  0.00  0.00    +0.000 C 
ATOM     33  C   UNL     1       1.255   4.988 -13.734  0.00  0.00    +0.000 C 
ATOM     34  O   UNL     1      -0.034   4.997 -13.071  0.00  0.00    +0.000 OA
ATOM     35  C   UNL     1       0.542   4.306 -11.932  0.00  0.00    +0.000 C 
ENDBRANCH  31  32
ENDBRANCH  29  31
ENDBRANCH   3  29
TORSDOF 9
