REMARK  Name = 
REMARK  4 active torsions:
REMARK  status: ('A' for Active; 'I' for Inactive)
REMARK    1  A    between atoms: N_1  and  C_2
REMARK    2  A    between atoms: C_2  and  C_3
REMARK    3  A    between atoms: C_6  and  C_7
REMARK    4  A    between atoms: C_7  and  N_8
REMARK                            x       y       z     vdW  Elec       q    Type
REMARK                         _______ _______ _______ _____ _____    ______ ____
ROOT
ATOM      1  C   UNL     1       3.940  -4.821  -3.419  0.00  0.00    +0.000 C 
ENDROOT
BRANCH   1   2
ATOM      2  N   UNL     1       3.911  -4.952  -4.871  0.00  0.00    +0.000 N 
ATOM      3  C   UNL     1       2.897  -4.532  -5.690  0.00  0.00    +0.000 A 
ATOM      4  N   UNL     1       2.818  -5.263  -6.781  0.00  0.00    +0.000 NA
ATOM      5  C   UNL     1       3.846  -6.167  -6.687  0.00  0.00    +0.000 A 
ATOM      6  C   UNL     1       4.158  -7.256  -7.511  0.00  0.00    +0.000 A 
ATOM      7  C   UNL     1       5.272  -8.027  -7.180  0.00  0.00    +0.000 A 
ATOM      8  F   UNL     1       5.556  -9.112  -7.914  0.00  0.00    +0.000 F 
ATOM      9  C   UNL     1       6.092  -7.714  -6.100  0.00  0.00    +0.000 A 
ATOM     10  C   UNL     1       5.787  -6.640  -5.259  0.00  0.00    +0.000 A 
ATOM     11  C   UNL     1       4.625  -5.916  -5.558  0.00  0.00    +0.000 A 
ENDBRANCH   1   2
BRANCH   1  15
ATOM     12  C   UNL     1       3.183  -0.964  -1.613  0.00  0.00    +0.000 A 
ATOM     13  C   UNL     1       2.126  -1.840  -1.894  0.00  0.00    +0.000 A 
ATOM     14  C   UNL     1       2.362  -3.070  -2.513  0.00  0.00    +0.000 A 
ATOM     15  C   UNL     1       3.664  -3.447  -2.871  0.00  0.00    +0.000 A 
ATOM     16  C   UNL     1       4.720  -2.561  -2.627  0.00  0.00    +0.000 A 
ATOM     17  C   UNL     1       4.480  -1.336  -1.988  0.00  0.00    +0.000 A 
BRANCH  12  18
ATOM     18  C   UNL     1       2.927   0.357  -0.933  0.00  0.00    +0.000 C 
BRANCH  18  19
ATOM     19  N   UNL     1       2.313   0.184   0.381  0.00  0.00    +0.000 NA
ATOM     20  H   UNL     1       2.233   1.095   0.831  0.00  0.00    +0.000 HD
ATOM     21  H   UNL     1       2.934  -0.373   0.962  0.00  0.00    +0.000 HD
ENDBRANCH  18  19
ENDBRANCH  12  18
ENDBRANCH   1  15
TORSDOF 4
