REMARK  Name = 
REMARK  8 active torsions:
REMARK  status: ('A' for Active; 'I' for Inactive)
REMARK    1  A    between atoms: C_1  and  C_2
REMARK    2  A    between atoms: N_4  and  C_5
REMARK    3  A    between atoms: C_9  and  C_10
REMARK    4  A    between atoms: C_10  and  C_11
REMARK    5  A    between atoms: C_11  and  N_12
REMARK    6  A    between atoms: N_12  and  C_13
REMARK    7  A    between atoms: C_16  and  C_17
REMARK    8  A    between atoms: C_24  and  C_25
REMARK                            x       y       z     vdW  Elec       q    Type
REMARK                         _______ _______ _______ _____ _____    ______ ____
ROOT
ATOM      1  C   UNL     1      -1.443   1.077  -5.335  0.00  0.00    +0.000 C 
ENDROOT
BRANCH   1   6
ATOM      2  C   UNL     1       1.793   1.347  -3.284  0.00  0.00    +0.000 A 
ATOM      3  C   UNL     1       2.186   2.645  -3.646  0.00  0.00    +0.000 A 
ATOM      4  C   UNL     1       1.421   3.437  -4.509  0.00  0.00    +0.000 A 
ATOM      5  C   UNL     1       0.236   2.944  -5.044  0.00  0.00    +0.000 A 
ATOM      6  C   UNL     1      -0.198   1.662  -4.706  0.00  0.00    +0.000 A 
ATOM      7  C   UNL     1       0.581   0.888  -3.823  0.00  0.00    +0.000 A 
BRANCH   2  11
ATOM      8  C   UNL     1       1.983  -2.425  -3.219  0.00  0.00    +0.000 C 
ATOM      9  C   UNL     1       2.589  -1.852  -1.939  0.00  0.00    +0.000 C 
ATOM     10  C   UNL     1       2.023  -0.467  -1.565  0.00  0.00    +0.000 C 
ATOM     11  N   UNL     1       2.568   0.581  -2.437  0.00  0.00    +0.000 N 
ATOM     12  C   UNL     1       4.038   0.582  -2.517  0.00  0.00    +0.000 C 
ATOM     13  C   UNL     1       4.546  -0.832  -2.888  0.00  0.00    +0.000 C 
ATOM     14  C   UNL     1       6.066  -0.896  -2.812  0.00  0.00    +0.000 C 
ATOM     15  O   UNL     1       4.029  -1.841  -1.999  0.00  0.00    +0.000 OA
ENDBRANCH   2  11
ENDBRANCH   1   6
BRANCH   1  16
ATOM     16  C   UNL     1      -1.096   0.325  -6.625  0.00  0.00    +0.000 C 
BRANCH  16  17
ATOM     17  N   UNL     1      -2.295  -0.253  -7.251  0.00  0.00    +0.000 N 
ATOM     18  H   UNL     1      -3.054   0.423  -7.327  0.00  0.00    +0.000 HD
BRANCH  17  19
ATOM     19  C   UNL     1      -2.103  -0.947  -8.460  0.00  0.00    +0.000 A 
ATOM     20  C   UNL     1      -0.939  -1.667  -8.750  0.00  0.00    +0.000 A 
ATOM     21  C   UNL     1      -0.817  -2.381  -9.941  0.00  0.00    +0.000 A 
ATOM     22  C   UNL     1      -1.890  -2.388 -10.817  0.00  0.00    +0.000 A 
ATOM     23  N   UNL     1      -3.069  -1.755 -10.569  0.00  0.00    +0.000 NA
ATOM     24  C   UNL     1      -3.141  -1.077  -9.392  0.00  0.00    +0.000 A 
BRANCH  22  25
ATOM     25  C   UNL     1      -1.772  -3.131 -12.113  0.00  0.00    +0.000 C 
ATOM     26  N   UNL     1      -2.874  -3.087 -12.921  0.00  0.00    +0.000 N 
ATOM     27  O   UNL     1      -0.759  -3.737 -12.439  0.00  0.00    +0.000 OA
ATOM     28  H   UNL     1      -3.698  -2.581 -12.617  0.00  0.00    +0.000 HD
ATOM     29  H   UNL     1      -2.860  -3.571 -13.806  0.00  0.00    +0.000 HD
ENDBRANCH  22  25
ENDBRANCH  17  19
ENDBRANCH  16  17
ENDBRANCH   1  16
TORSDOF 6
