REMARK  Name = 
REMARK  8 active torsions:
REMARK  status: ('A' for Active; 'I' for Inactive)
REMARK    1  A    between atoms: C_1  and  C_2
REMARK    2  A    between atoms: C_2  and  C_3
REMARK    3  A    between atoms: C_2  and  C_4
REMARK    4  A    between atoms: C_6  and  N_7
REMARK    5  A    between atoms: C_14  and  C_15
REMARK    6  A    between atoms: C_15  and  O_16
REMARK    7  A    between atoms: O_16  and  C_17
REMARK    8  A    between atoms: C_20  and  C_21
REMARK                            x       y       z     vdW  Elec       q    Type
REMARK                         _______ _______ _______ _____ _____    ______ ____
ROOT
ATOM      1  C   UNL     1       2.965   0.347   1.448  0.00  0.00    +0.000 A 
ATOM      2  C   UNL     1       2.905   1.675   1.877  0.00  0.00    +0.000 A 
ATOM      3  C   UNL     1       3.365   2.020   3.151  0.00  0.00    +0.000 A 
ATOM      4  C   UNL     1       3.870   0.990   3.948  0.00  0.00    +0.000 A 
ATOM      5  C   UNL     1       3.858  -0.326   3.488  0.00  0.00    +0.000 A 
ATOM      6  N   UNL     1       3.425  -0.646   2.244  0.00  0.00    +0.000 NA
ENDROOT
BRANCH   3   7
ATOM      7  N   UNL     1       3.302   3.308   3.636  0.00  0.00    +0.000 N 
ATOM      8  C   UNL     1       2.246   4.241   3.221  0.00  0.00    +0.000 C 
ATOM      9  C   UNL     1       2.842   5.493   2.548  0.00  0.00    +0.000 C 
ATOM     10  N   UNL     1       3.897   6.148   3.351  0.00  0.00    +0.000 NA
ATOM     11  C   UNL     1       4.954   5.154   3.643  0.00  0.00    +0.000 C 
ATOM     12  C   UNL     1       4.437   3.888   4.365  0.00  0.00    +0.000 C 
ATOM     13  H   UNL     1       3.482   6.432   4.240  0.00  0.00    +0.000 HD
ENDBRANCH   3   7
BRANCH   1  15
ATOM     14  C   UNL     1       3.671  -0.646  -0.740  0.00  0.00    +0.000 C 
ATOM     15  C   UNL     1       2.514  -0.031   0.050  0.00  0.00    +0.000 C 
ATOM     16  C   UNL     1       1.310  -0.978   0.067  0.00  0.00    +0.000 C 
ENDBRANCH   1  15
BRANCH   5  17
ATOM     17  C   UNL     1       4.309  -1.457   4.393  0.00  0.00    +0.000 C 
BRANCH  17  18
ATOM     18  O   UNL     1       5.706  -1.676   4.200  0.00  0.00    +0.000 OA
BRANCH  18  19
ATOM     19  C   UNL     1       6.328  -2.670   4.904  0.00  0.00    +0.000 A 
ATOM     20  C   UNL     1       5.756  -3.533   5.834  0.00  0.00    +0.000 A 
ATOM     21  C   UNL     1       6.549  -4.522   6.449  0.00  0.00    +0.000 A 
ATOM     22  C   UNL     1       7.908  -4.662   6.126  0.00  0.00    +0.000 A 
ATOM     23  C   UNL     1       8.476  -3.796   5.191  0.00  0.00    +0.000 A 
ATOM     24  C   UNL     1       7.685  -2.805   4.596  0.00  0.00    +0.000 A 
BRANCH  22  25
ATOM     25  C   UNL     1       8.694  -5.723   6.824  0.00  0.00    +0.000 C 
ATOM     26  N   UNL     1       9.757  -6.282   6.160  0.00  0.00    +0.000 N 
ATOM     27  O   UNL     1       8.397  -6.100   7.942  0.00  0.00    +0.000 OA
ATOM     28  H   UNL     1      10.067  -6.023   5.239  0.00  0.00    +0.000 HD
ATOM     29  H   UNL     1      10.270  -7.000   6.662  0.00  0.00    +0.000 HD
ENDBRANCH  22  25
ENDBRANCH  18  19
ENDBRANCH  17  18
ENDBRANCH   5  17
TORSDOF 6
