REMARK  Name = 
REMARK  12 active torsions:
REMARK  status: ('A' for Active; 'I' for Inactive)
REMARK    1  A    between atoms: C_1  and  C_2
REMARK    2  A    between atoms: C_2  and  C_3
REMARK    3  A    between atoms: C_2  and  C_4
REMARK    4  A    between atoms: C_2  and  O_5
REMARK    5  A    between atoms: O_5  and  C_6
REMARK    6  A    between atoms: C_6  and  C_7
REMARK    7  A    between atoms: C_7  and  N_8
REMARK    8  A    between atoms: N_8  and  C_9
REMARK    9  A    between atoms: C_9  and  C_10
REMARK   10  A    between atoms: C_14  and  C_15
REMARK   11  A    between atoms: C_15  and  N_16
REMARK   12  A    between atoms: C_21  and  C_22
REMARK                            x       y       z     vdW  Elec       q    Type
REMARK                         _______ _______ _______ _____ _____    ______ ____
ROOT
ATOM      1  C   UNL     1       8.456  -3.423   2.159  0.00  0.00    +0.000 A 
ATOM      2  C   UNL     1       9.208  -4.604   2.101  0.00  0.00    +0.000 A 
ATOM      3  C   UNL     1      10.593  -4.558   1.931  0.00  0.00    +0.000 A 
ATOM      4  C   UNL     1      11.242  -3.332   1.794  0.00  0.00    +0.000 A 
ATOM      5  C   UNL     1      10.511  -2.138   1.824  0.00  0.00    +0.000 A 
ATOM      6  C   UNL     1       9.124  -2.193   2.048  0.00  0.00    +0.000 A 
ENDROOT
BRANCH   1   7
ATOM      7  C   UNL     1       6.947  -3.471   2.281  0.00  0.00    +0.000 C 
BRANCH   7   8
ATOM      8  N   UNL     1       6.235  -2.807   1.183  0.00  0.00    +0.000 NA
ATOM      9  H   UNL     1       5.233  -2.938   1.331  0.00  0.00    +0.000 HD
BRANCH   8  10
ATOM     10  C   UNL     1       6.538  -3.369  -0.142  0.00  0.00    +0.000 C 
BRANCH  10  11
ATOM     11  C   UNL     1       6.156  -4.836  -0.353  0.00  0.00    +0.000 C 
BRANCH  11  12
ATOM     12  O   UNL     1       4.772  -5.023  -0.059  0.00  0.00    +0.000 OA
BRANCH  12  14
ATOM     13  C   UNL     1       4.964  -7.151   1.127  0.00  0.00    +0.000 C 
ATOM     14  C   UNL     1       4.318  -6.386  -0.036  0.00  0.00    +0.000 C 
ATOM     15  C   UNL     1       4.562  -7.096  -1.373  0.00  0.00    +0.000 C 
ATOM     16  C   UNL     1       2.805  -6.312   0.214  0.00  0.00    +0.000 C 
ENDBRANCH  12  14
ENDBRANCH  11  12
ENDBRANCH  10  11
ENDBRANCH   8  10
ENDBRANCH   7   8
ENDBRANCH   1   7
BRANCH   5  17
ATOM     17  C   UNL     1      11.196  -0.823   1.553  0.00  0.00    +0.000 C 
BRANCH  17  18
ATOM     18  N   UNL     1      10.804  -0.169   0.304  0.00  0.00    +0.000 N 
ATOM     19  C   UNL     1      10.853   1.198   0.166  0.00  0.00    +0.000 A 
ATOM     20  N   UNL     1      10.074   1.617  -0.801  0.00  0.00    +0.000 NA
ATOM     21  C   UNL     1       9.553   0.477  -1.351  0.00  0.00    +0.000 A 
ATOM     22  C   UNL     1       8.535   0.352  -2.297  0.00  0.00    +0.000 A 
ATOM     23  C   UNL     1       8.120  -0.934  -2.654  0.00  0.00    +0.000 A 
ATOM     24  C   UNL     1       8.847  -2.058  -2.248  0.00  0.00    +0.000 A 
ATOM     25  C   UNL     1       9.872  -1.951  -1.296  0.00  0.00    +0.000 A 
ATOM     26  C   UNL     1      10.129  -0.667  -0.790  0.00  0.00    +0.000 A 
BRANCH  23  27
ATOM     27  C   UNL     1       6.825  -1.135  -3.352  0.00  0.00    +0.000 C 
ATOM     28  N   UNL     1       5.849  -0.214  -3.077  0.00  0.00    +0.000 N 
ATOM     29  O   UNL     1       6.604  -2.117  -4.047  0.00  0.00    +0.000 OA
ATOM     30  H   UNL     1       5.917   0.399  -2.275  0.00  0.00    +0.000 HD
ATOM     31  H   UNL     1       4.913  -0.444  -3.391  0.00  0.00    +0.000 HD
ENDBRANCH  23  27
ENDBRANCH  17  18
ENDBRANCH   5  17
TORSDOF 9
