REMARK  Name = 
REMARK  6 active torsions:
REMARK  status: ('A' for Active; 'I' for Inactive)
REMARK    1  A    between atoms: C_1  and  O_2
REMARK    2  A    between atoms: O_2  and  C_3
REMARK    3  A    between atoms: C_6  and  C_7
REMARK    4  A    between atoms: C_11  and  C_12
REMARK    5  A    between atoms: C_12  and  N_13
REMARK    6  A    between atoms: C_17  and  C_18
REMARK                            x       y       z     vdW  Elec       q    Type
REMARK                         _______ _______ _______ _____ _____    ______ ____
ROOT
ATOM      1  C   UNL     1       5.528   6.367  -4.929  0.00  0.00    +0.000 C 
ATOM      2  C   UNL     1       4.605   7.504  -5.333  0.00  0.00    +0.000 C 
ATOM      3  C   UNL     1       4.185   6.102  -5.611  0.00  0.00    +0.000 C 
ENDROOT
BRANCH   1   4
ATOM      4  N   UNL     1       6.689   5.921  -5.723  0.00  0.00    +0.000 N 
ATOM      5  C   UNL     1       7.877   6.642  -5.858  0.00  0.00    +0.000 A 
ATOM      6  C   UNL     1       7.915   8.016  -6.056  0.00  0.00    +0.000 A 
ATOM      7  C   UNL     1       9.137   8.636  -6.331  0.00  0.00    +0.000 A 
ATOM      8  C   UNL     1      10.296   7.868  -6.398  0.00  0.00    +0.000 A 
ATOM      9  C   UNL     1      10.179   6.513  -6.142  0.00  0.00    +0.000 A 
ATOM     10  N   UNL     1       9.000   5.891  -5.889  0.00  0.00    +0.000 NA
ATOM     11  H   UNL     1       6.967   4.956  -5.545  0.00  0.00    +0.000 HD
BRANCH   8  12
ATOM     12  C   UNL     1      11.586   8.511  -6.722  0.00  0.00    +0.000 C 
ATOM     13  N   UNL     1      12.560   7.742  -7.297  0.00  0.00    +0.000 N 
ATOM     14  O   UNL     1      11.765   9.706  -6.522  0.00  0.00    +0.000 OA
ATOM     15  H   UNL     1      12.401   6.821  -7.680  0.00  0.00    +0.000 HD
ATOM     16  H   UNL     1      13.392   8.233  -7.604  0.00  0.00    +0.000 HD
ENDBRANCH   8  12
ENDBRANCH   1   4
BRANCH   1  21
ATOM     17  C   UNL     1       5.067   4.594  -1.670  0.00  0.00    +0.000 A 
ATOM     18  C   UNL     1       5.653   5.448  -0.738  0.00  0.00    +0.000 A 
ATOM     19  C   UNL     1       6.246   6.624  -1.180  0.00  0.00    +0.000 A 
ATOM     20  C   UNL     1       6.226   6.922  -2.536  0.00  0.00    +0.000 A 
ATOM     21  C   UNL     1       5.624   6.038  -3.434  0.00  0.00    +0.000 A 
ATOM     22  N   UNL     1       5.077   4.871  -2.997  0.00  0.00    +0.000 NA
BRANCH  17  26
ATOM     23  C   UNL     1       2.754   1.239  -0.539  0.00  0.00    +0.000 A 
ATOM     24  C   UNL     1       3.467   1.156  -1.719  0.00  0.00    +0.000 A 
ATOM     25  C   UNL     1       4.260   2.245  -2.095  0.00  0.00    +0.000 A 
ATOM     26  C   UNL     1       4.318   3.390  -1.287  0.00  0.00    +0.000 A 
ATOM     27  C   UNL     1       3.566   3.345  -0.114  0.00  0.00    +0.000 A 
ATOM     28  N   UNL     1       2.802   2.309   0.282  0.00  0.00    +0.000 NA
BRANCH  23  30
ATOM     29  C   UNL     1       1.232   0.404   1.008  0.00  0.00    +0.000 C 
ATOM     30  O   UNL     1       1.934   0.180  -0.213  0.00  0.00    +0.000 OA
ENDBRANCH  23  30
ENDBRANCH  17  26
ENDBRANCH   1  21
TORSDOF 5
