REMARK  Name = 
REMARK  6 active torsions:
REMARK  status: ('A' for Active; 'I' for Inactive)
REMARK    1  A    between atoms: C_2  and  C_25
REMARK    2  A    between atoms: N_3  and  C_4
REMARK    3  A    between atoms: C_4  and  C_5
REMARK    4  A    between atoms: C_8  and  C_9
REMARK    5  A    between atoms: C_9  and  N_10
REMARK    6  A    between atoms: C_11  and  C_13
REMARK                            x       y       z     vdW  Elec       q    Type
REMARK                         _______ _______ _______ _____ _____    ______ ____
ROOT
ATOM      1  C   UNL     1       3.180  -1.968  -3.037  0.00  0.00    +0.000 A 
ATOM      2  C   UNL     1       4.112  -1.189  -3.735  0.00  0.00    +0.000 A 
ATOM      3  C   UNL     1       4.985  -1.776  -4.658  0.00  0.00    +0.000 A 
ATOM      4  C   UNL     1       4.930  -3.152  -4.917  0.00  0.00    +0.000 A 
ATOM      5  C   UNL     1       4.004  -3.932  -4.210  0.00  0.00    +0.000 A 
ATOM      6  C   UNL     1       3.131  -3.345  -3.289  0.00  0.00    +0.000 A 
ENDROOT
BRANCH   1   7
ATOM      7  C   UNL     1       2.225  -1.332  -2.060  0.00  0.00    +0.000 C 
BRANCH   7  10
ATOM      8  O   UNL     1       0.018  -0.174  -0.799  0.00  0.00    +0.000 OA
ATOM      9  C   UNL     1      -0.017  -0.331  -2.016  0.00  0.00    +0.000 C 
ATOM     10  N   UNL     1       1.017  -0.901  -2.718  0.00  0.00    +0.000 N 
ATOM     11  H   UNL     1       1.002  -0.889  -3.727  0.00  0.00    +0.000 HD
BRANCH   9  12
ATOM     12  C   UNL     1      -1.139   0.084  -2.813  0.00  0.00    +0.000 A 
ATOM     13  C   UNL     1      -1.470  -0.087  -4.144  0.00  0.00    +0.000 A 
ATOM     14  C   UNL     1      -2.710   0.559  -4.303  0.00  0.00    +0.000 A 
ATOM     15  N   UNL     1      -3.146   1.100  -3.165  0.00  0.00    +0.000 NA
ATOM     16  N   UNL     1      -2.187   0.790  -2.277  0.00  0.00    +0.000 N 
ATOM     17  H   UNL     1      -2.292   1.089  -1.313  0.00  0.00    +0.000 HD
ENDBRANCH   9  12
ENDBRANCH   7  10
ENDBRANCH   1   7
BRANCH   4  18
ATOM     18  C   UNL     1       5.879  -3.797  -5.896  0.00  0.00    +0.000 C 
BRANCH  18  19
ATOM     19  N   UNL     1       7.084  -4.230  -5.235  0.00  0.00    +0.000 N 
ATOM     20  C   UNL     1       8.132  -4.775  -5.930  0.00  0.00    +0.000 C 
ATOM     21  O   UNL     1       8.123  -4.874  -7.155  0.00  0.00    +0.000 OA
ATOM     22  H   UNL     1       7.021  -4.380  -4.234  0.00  0.00    +0.000 HD
BRANCH  20  23
ATOM     23  C   UNL     1       9.300  -5.174  -5.134  0.00  0.00    +0.000 A 
ATOM     24  C   UNL     1      10.548  -5.270  -5.735  0.00  0.00    +0.000 A 
ATOM     25  S   UNL     1      11.803  -5.663  -4.648  0.00  0.00    +0.000 S 
ATOM     26  C   UNL     1      10.714  -5.776  -3.345  0.00  0.00    +0.000 A 
ATOM     27  N   UNL     1      11.147  -6.100  -2.097  0.00  0.00    +0.000 NA
ATOM     28  C   UNL     1      10.210  -6.183  -1.212  0.00  0.00    +0.000 A 
ATOM     29  N   UNL     1       8.879  -5.971  -1.463  0.00  0.00    +0.000 N 
ATOM     30  C   UNL     1       8.400  -5.619  -2.701  0.00  0.00    +0.000 A 
ATOM     31  O   UNL     1       7.205  -5.409  -2.884  0.00  0.00    +0.000 OA
ATOM     32  C   UNL     1       9.413  -5.511  -3.733  0.00  0.00    +0.000 A 
ATOM     33  H   UNL     1       8.194  -6.052  -0.726  0.00  0.00    +0.000 HD
ENDBRANCH  20  23
ENDBRANCH  18  19
ENDBRANCH   4  18
TORSDOF 6
