REMARK  Name = 
REMARK  11 active torsions:
REMARK  status: ('A' for Active; 'I' for Inactive)
REMARK    1  A    between atoms: N_1  and  C_2
REMARK    2  A    between atoms: C_2  and  C_3
REMARK    3  A    between atoms: C_3  and  N_4
REMARK    4  A    between atoms: N_4  and  C_5
REMARK    5  A    between atoms: C_5  and  C_6
REMARK    6  A    between atoms: C_5  and  C_21
REMARK    7  A    between atoms: C_6  and  C_7
REMARK    8  A    between atoms: C_10  and  C_11
REMARK    9  A    between atoms: C_11  and  O_12
REMARK   10  A    between atoms: O_12  and  C_13
REMARK   11  A    between atoms: C_21  and  C_23
REMARK                            x       y       z     vdW  Elec       q    Type
REMARK                         _______ _______ _______ _____ _____    ______ ____
ROOT
ATOM      1  C   UNL     1       4.887   0.752   2.497  0.00  0.00    +0.000 C 
ENDROOT
BRANCH   1   2
ATOM      2  N   UNL     1       4.454   0.391   1.112  0.00  0.00    +0.000 NA
ATOM      3  H   UNL     1       4.918   1.038   0.469  0.00  0.00    +0.000 HD
BRANCH   2   4
ATOM      4  C   UNL     1       3.008   0.471   0.882  0.00  0.00    +0.000 C 
BRANCH   4   5
ATOM      5  C   UNL     1       2.397   1.878   1.024  0.00  0.00    +0.000 C 
BRANCH   5   6
ATOM      6  N   UNL     1       3.040   2.844   0.129  0.00  0.00    +0.000 NA
ATOM      7  H   UNL     1       2.542   3.732   0.191  0.00  0.00    +0.000 HD
ATOM      8  H   UNL     1       2.929   2.526  -0.835  0.00  0.00    +0.000 HD
ENDBRANCH   5   6
ENDBRANCH   4   5
ENDBRANCH   2   4
ENDBRANCH   1   2
BRANCH   1   9
ATOM      9  C   UNL     1       6.429   0.659   2.617  0.00  0.00    +0.000 C 
ATOM     10  O   UNL     1       7.096   0.155   1.705  0.00  0.00    +0.000 OA
BRANCH   9  11
ATOM     11  C   UNL     1       7.166   1.192   3.790  0.00  0.00    +0.000 A 
ATOM     12  C   UNL     1       8.369   0.594   4.142  0.00  0.00    +0.000 A 
ATOM     13  S   UNL     1       9.212   1.409   5.377  0.00  0.00    +0.000 S 
ATOM     14  C   UNL     1       8.018   2.616   5.459  0.00  0.00    +0.000 A 
ATOM     15  N   UNL     1       8.193   3.707   6.254  0.00  0.00    +0.000 NA
ATOM     16  C   UNL     1       7.255   4.589   6.163  0.00  0.00    +0.000 A 
ATOM     17  N   UNL     1       6.130   4.449   5.396  0.00  0.00    +0.000 N 
ATOM     18  C   UNL     1       5.830   3.283   4.732  0.00  0.00    +0.000 A 
ATOM     19  O   UNL     1       4.691   3.071   4.335  0.00  0.00    +0.000 OA
ATOM     20  C   UNL     1       6.930   2.338   4.643  0.00  0.00    +0.000 A 
ATOM     21  H   UNL     1       5.384   5.126   5.457  0.00  0.00    +0.000 HD
ENDBRANCH   9  11
ENDBRANCH   1   9
BRANCH   1  22
ATOM     22  C   UNL     1       4.211  -0.050   3.635  0.00  0.00    +0.000 C 
BRANCH  22  23
ATOM     23  C   UNL     1       4.486  -1.538   3.744  0.00  0.00    +0.000 A 
ATOM     24  C   UNL     1       4.454  -2.140   5.012  0.00  0.00    +0.000 A 
ATOM     25  C   UNL     1       4.739  -3.498   5.172  0.00  0.00    +0.000 A 
ATOM     26  C   UNL     1       5.057  -4.286   4.064  0.00  0.00    +0.000 A 
ATOM     27  C   UNL     1       5.003  -3.716   2.790  0.00  0.00    +0.000 A 
ATOM     28  C   UNL     1       4.721  -2.358   2.634  0.00  0.00    +0.000 A 
BRANCH  26  29
ATOM     29  C   UNL     1       5.522  -5.712   4.232  0.00  0.00    +0.000 C 
BRANCH  29  30
ATOM     30  O   UNL     1       4.413  -6.611   4.223  0.00  0.00    +0.000 OA
BRANCH  30  31
ATOM     31  C   UNL     1       4.840  -7.924   4.301  0.00  0.00    +0.000 A 
ATOM     32  C   UNL     1       3.882  -8.927   4.329  0.00  0.00    +0.000 A 
ATOM     33  N   UNL     1       4.206 -10.243   4.399  0.00  0.00    +0.000 NA
ATOM     34  C   UNL     1       5.532 -10.507   4.443  0.00  0.00    +0.000 A 
ATOM     35  C   UNL     1       6.489  -9.507   4.419  0.00  0.00    +0.000 A 
ATOM     36  N   UNL     1       6.166  -8.198   4.354  0.00  0.00    +0.000 NA
ENDBRANCH  30  31
ENDBRANCH  29  30
ENDBRANCH  26  29
ENDBRANCH  22  23
ENDBRANCH   1  22
TORSDOF 11
