REMARK  Name = 
REMARK  5 active torsions:
REMARK  status: ('A' for Active; 'I' for Inactive)
REMARK    1  A    between atoms: C_2  and  C_18
REMARK    2  A    between atoms: N_3  and  C_4
REMARK    3  A    between atoms: C_4  and  C_5
REMARK    4  A    between atoms: C_8  and  C_9
REMARK    5  A    between atoms: C_9  and  C_10
REMARK                            x       y       z     vdW  Elec       q    Type
REMARK                         _______ _______ _______ _____ _____    ______ ____
ROOT
ATOM      1  O   UNL     1       0.665  -2.326   2.880  0.00  0.00    +0.000 OA
ATOM      2  C   UNL     1       0.268  -1.191   3.129  0.00  0.00    +0.000 C 
ATOM      3  N   UNL     1       1.033  -0.078   2.893  0.00  0.00    +0.000 N 
ATOM      4  H   UNL     1       0.742   0.812   3.283  0.00  0.00    +0.000 HD
ENDROOT
BRANCH   2   5
ATOM      5  C   UNL     1      -1.084  -0.949   3.653  0.00  0.00    +0.000 A 
ATOM      6  C   UNL     1      -2.084  -1.884   3.437  0.00  0.00    +0.000 A 
ATOM      7  S   UNL     1      -3.588  -1.440   4.113  0.00  0.00    +0.000 S 
ATOM      8  C   UNL     1      -2.937  -0.004   4.754  0.00  0.00    +0.000 A 
ATOM      9  N   UNL     1      -3.702   0.841   5.495  0.00  0.00    +0.000 NA
ATOM     10  C   UNL     1      -3.070   1.868   5.955  0.00  0.00    +0.000 A 
ATOM     11  N   UNL     1      -1.747   2.139   5.723  0.00  0.00    +0.000 N 
ATOM     12  C   UNL     1      -0.959   1.360   4.911  0.00  0.00    +0.000 A 
ATOM     13  O   UNL     1       0.175   1.711   4.598  0.00  0.00    +0.000 OA
ATOM     14  C   UNL     1      -1.605   0.155   4.423  0.00  0.00    +0.000 A 
ATOM     15  H   UNL     1      -1.322   2.981   6.081  0.00  0.00    +0.000 HD
ENDBRANCH   2   5
BRANCH   3  16
ATOM     16  C   UNL     1       2.401  -0.162   2.450  0.00  0.00    +0.000 C 
BRANCH  16  17
ATOM     17  C   UNL     1       3.353  -0.125   3.608  0.00  0.00    +0.000 A 
ATOM     18  C   UNL     1       3.841   1.078   4.125  0.00  0.00    +0.000 A 
ATOM     19  C   UNL     1       4.707   1.061   5.216  0.00  0.00    +0.000 A 
ATOM     20  C   UNL     1       5.067  -0.165   5.771  0.00  0.00    +0.000 A 
ATOM     21  N   UNL     1       4.597  -1.344   5.290  0.00  0.00    +0.000 NA
ATOM     22  C   UNL     1       3.750  -1.297   4.237  0.00  0.00    +0.000 A 
BRANCH  20  23
ATOM     23  C   UNL     1       5.947  -0.229   7.000  0.00  0.00    +0.000 C 
BRANCH  23  24
ATOM     24  C   UNL     1       5.165  -0.126   8.290  0.00  0.00    +0.000 A 
ATOM     25  C   UNL     1       4.215  -1.099   8.622  0.00  0.00    +0.000 A 
ATOM     26  C   UNL     1       3.475  -0.941   9.782  0.00  0.00    +0.000 A 
ATOM     27  N   UNL     1       3.626   0.095  10.633  0.00  0.00    +0.000 NA
ATOM     28  C   UNL     1       4.567   1.008  10.310  0.00  0.00    +0.000 A 
ATOM     29  C   UNL     1       5.353   0.943   9.169  0.00  0.00    +0.000 A 
ENDBRANCH  23  24
ENDBRANCH  20  23
ENDBRANCH  16  17
ENDBRANCH   3  16
TORSDOF 5
