REMARK  Name = 
REMARK  8 active torsions:
REMARK  status: ('A' for Active; 'I' for Inactive)
REMARK    1  A    between atoms: C_1  and  C_2
REMARK    2  A    between atoms: C_2  and  C_3
REMARK    3  A    between atoms: C_2  and  C_25
REMARK    4  A    between atoms: C_3  and  N_4
REMARK    5  A    between atoms: N_7  and  C_8
REMARK    6  A    between atoms: C_8  and  C_9
REMARK    7  A    between atoms: C_9  and  N_10
REMARK    8  A    between atoms: C_11  and  C_13
REMARK                            x       y       z     vdW  Elec       q    Type
REMARK                         _______ _______ _______ _____ _____    ______ ____
ROOT
ATOM      1  C   UNL     1       1.590   4.768  -0.506  0.00  0.00    +0.000 C 
ENDROOT
BRANCH   1   5
ATOM      2  N   UNL     1       2.414   1.674   1.644  0.00  0.00    +0.000 NA
ATOM      3  C   UNL     1       1.471   1.867   0.515  0.00  0.00    +0.000 C 
ATOM      4  C   UNL     1       2.153   2.434  -0.756  0.00  0.00    +0.000 C 
ATOM      5  N   UNL     1       2.697   3.796  -0.570  0.00  0.00    +0.000 NA
ATOM      6  C   UNL     1       3.575   3.783   0.623  0.00  0.00    +0.000 C 
ATOM      7  C   UNL     1       3.098   2.969   1.865  0.00  0.00    +0.000 C 
BRANCH   2   8
ATOM      8  C   UNL     1       3.269   0.492   1.354  0.00  0.00    +0.000 C 
BRANCH   8  10
ATOM      9  C   UNL     1       5.373   0.654   2.851  0.00  0.00    +0.000 C 
ATOM     10  C   UNL     1       4.123  -0.146   2.479  0.00  0.00    +0.000 C 
BRANCH  10  11
ATOM     11  C   UNL     1       4.638  -1.523   2.042  0.00  0.00    +0.000 A 
ATOM     12  C   UNL     1       4.653  -2.580   2.952  0.00  0.00    +0.000 A 
ATOM     13  C   UNL     1       5.370  -3.732   2.634  0.00  0.00    +0.000 A 
ATOM     14  C   UNL     1       6.038  -3.808   1.419  0.00  0.00    +0.000 A 
ATOM     15  C   UNL     1       5.934  -2.735   0.551  0.00  0.00    +0.000 A 
ATOM     16  N   UNL     1       5.254  -1.603   0.835  0.00  0.00    +0.000 NA
ENDBRANCH  10  11
ENDBRANCH   8  10
ENDBRANCH   2   8
ENDBRANCH   1   5
BRANCH   1  17
ATOM     17  C   UNL     1       2.003   6.247  -0.559  0.00  0.00    +0.000 C 
BRANCH  17  18
ATOM     18  N   UNL     1       0.839   7.117  -0.607  0.00  0.00    +0.000 N 
ATOM     19  C   UNL     1       0.194   7.537   0.530  0.00  0.00    +0.000 C 
ATOM     20  O   UNL     1       0.594   7.251   1.655  0.00  0.00    +0.000 OA
ATOM     21  H   UNL     1       0.358   7.188  -1.498  0.00  0.00    +0.000 HD
BRANCH  19  22
ATOM     22  C   UNL     1      -0.971   8.407   0.330  0.00  0.00    +0.000 A 
ATOM     23  C   UNL     1      -1.327   9.319   1.314  0.00  0.00    +0.000 A 
ATOM     24  S   UNL     1      -2.676  10.277   0.901  0.00  0.00    +0.000 S 
ATOM     25  C   UNL     1      -2.865   9.469  -0.583  0.00  0.00    +0.000 A 
ATOM     26  N   UNL     1      -3.878   9.788  -1.431  0.00  0.00    +0.000 NA
ATOM     27  C   UNL     1      -3.925   9.067  -2.500  0.00  0.00    +0.000 A 
ATOM     28  N   UNL     1      -3.048   8.060  -2.809  0.00  0.00    +0.000 N 
ATOM     29  C   UNL     1      -1.975   7.738  -2.002  0.00  0.00    +0.000 A 
ATOM     30  O   UNL     1      -1.156   6.886  -2.341  0.00  0.00    +0.000 OA
ATOM     31  C   UNL     1      -1.894   8.497  -0.772  0.00  0.00    +0.000 A 
ATOM     32  H   UNL     1      -3.130   7.546  -3.668  0.00  0.00    +0.000 HD
ENDBRANCH  19  22
ENDBRANCH  17  18
ENDBRANCH   1  17
TORSDOF 7
