REMARK  Name = 
REMARK  9 active torsions:
REMARK  status: ('A' for Active; 'I' for Inactive)
REMARK    1  A    between atoms: C_1  and  O_2
REMARK    2  A    between atoms: O_2  and  C_3
REMARK    3  A    between atoms: C_10  and  C_11
REMARK    4  A    between atoms: N_13  and  C_14
REMARK    5  A    between atoms: C_14  and  C_15
REMARK    6  A    between atoms: C_18  and  C_19
REMARK    7  A    between atoms: C_19  and  N_20
REMARK    8  A    between atoms: N_20  and  C_21
REMARK    9  A    between atoms: C_21  and  C_22
REMARK                            x       y       z     vdW  Elec       q    Type
REMARK                         _______ _______ _______ _____ _____    ______ ____
ROOT
ATOM      1  C   UNL     1       2.912  -0.870  -3.255  0.00  0.00    +0.000 C 
ENDROOT
BRANCH   1   2
ATOM      2  C   UNL     1       1.713  -1.687  -2.843  0.00  0.00    +0.000 A 
ATOM      3  C   UNL     1       1.775  -3.086  -2.801  0.00  0.00    +0.000 A 
ATOM      4  C   UNL     1       0.676  -3.836  -2.362  0.00  0.00    +0.000 A 
ATOM      5  C   UNL     1      -0.509  -3.205  -1.954  0.00  0.00    +0.000 A 
ATOM      6  C   UNL     1      -0.584  -1.809  -2.049  0.00  0.00    +0.000 A 
ATOM      7  C   UNL     1       0.510  -1.059  -2.497  0.00  0.00    +0.000 A 
BRANCH   5   8
ATOM      8  C   UNL     1      -1.679  -4.006  -1.415  0.00  0.00    +0.000 C 
BRANCH   8   9
ATOM      9  N   UNL     1      -1.302  -4.740  -0.208  0.00  0.00    +0.000 NA
ATOM     10  H   UNL     1      -0.970  -4.079   0.493  0.00  0.00    +0.000 HD
BRANCH   9  11
ATOM     11  C   UNL     1      -2.419  -5.500   0.357  0.00  0.00    +0.000 C 
BRANCH  11  12
ATOM     12  C   UNL     1      -1.985  -6.274   1.587  0.00  0.00    +0.000 A 
ATOM     13  C   UNL     1      -2.590  -6.063   2.836  0.00  0.00    +0.000 A 
ATOM     14  C   UNL     1      -2.195  -6.810   3.952  0.00  0.00    +0.000 A 
ATOM     15  C   UNL     1      -1.193  -7.772   3.833  0.00  0.00    +0.000 A 
ATOM     16  C   UNL     1      -0.580  -7.983   2.601  0.00  0.00    +0.000 A 
ATOM     17  C   UNL     1      -0.975  -7.242   1.486  0.00  0.00    +0.000 A 
ENDBRANCH  11  12
ENDBRANCH   9  11
ENDBRANCH   8   9
ENDBRANCH   5   8
ENDBRANCH   1   2
BRANCH   1  20
ATOM     18  C   UNL     1       3.978   0.012  -5.283  0.00  0.00    +0.000 C 
ATOM     19  O   UNL     1       4.898   0.498  -4.622  0.00  0.00    +0.000 OA
ATOM     20  N   UNL     1       2.957  -0.667  -4.682  0.00  0.00    +0.000 N 
ATOM     21  H   UNL     1       2.163  -0.981  -5.225  0.00  0.00    +0.000 HD
BRANCH  18  29
ATOM     22  C   UNL     1       1.809  -1.122  -7.713  0.00  0.00    +0.000 A 
ATOM     23  N   UNL     1       1.196  -1.502  -8.853  0.00  0.00    +0.000 NA
ATOM     24  C   UNL     1       1.736  -1.138 -10.017  0.00  0.00    +0.000 A 
ATOM     25  N   UNL     1       2.840  -0.421 -10.191  0.00  0.00    +0.000 NA
ATOM     26  C   UNL     1       3.434  -0.078  -9.035  0.00  0.00    +0.000 A 
ATOM     27  S   UNL     1       4.855   0.849  -9.075  0.00  0.00    +0.000 S 
ATOM     28  C   UNL     1       4.968   0.835  -7.380  0.00  0.00    +0.000 A 
ATOM     29  C   UNL     1       3.947   0.132  -6.751  0.00  0.00    +0.000 A 
ATOM     30  C   UNL     1       3.011  -0.391  -7.747  0.00  0.00    +0.000 A 
BRANCH  22  32
ATOM     31  C   UNL     1      -0.037  -2.127  -6.674  0.00  0.00    +0.000 C 
ATOM     32  O   UNL     1       1.203  -1.439  -6.513  0.00  0.00    +0.000 OA
ENDBRANCH  22  32
ENDBRANCH  18  29
ENDBRANCH   1  20
TORSDOF 8
