REMARK  Name = 
REMARK  7 active torsions:
REMARK  status: ('A' for Active; 'I' for Inactive)
REMARK    1  A    between atoms: N_1  and  C_2
REMARK    2  A    between atoms: C_2  and  C_3
REMARK    3  A    between atoms: C_6  and  O_7
REMARK    4  A    between atoms: O_7  and  C_8
REMARK    5  A    between atoms: C_8  and  C_9
REMARK    6  A    between atoms: C_9  and  C_12
REMARK    7  A    between atoms: C_16  and  C_17
REMARK                            x       y       z     vdW  Elec       q    Type
REMARK                         _______ _______ _______ _____ _____    ______ ____
ROOT
ATOM      1  C   UNL     1       4.012   4.833   6.039  0.00  0.00    +0.000 C 
ATOM      2  F   UNL     1       3.093   4.383   6.943  0.00  0.00    +0.000 F 
ATOM      3  F   UNL     1       5.204   4.290   6.422  0.00  0.00    +0.000 F 
ENDROOT
BRANCH   1   4
ATOM      4  C   UNL     1       4.067   6.351   6.010  0.00  0.00    +0.000 A 
ATOM      5  C   UNL     1       5.269   7.012   5.718  0.00  0.00    +0.000 A 
ATOM      6  C   UNL     1       5.308   8.402   5.640  0.00  0.00    +0.000 A 
ATOM      7  C   UNL     1       4.143   9.144   5.838  0.00  0.00    +0.000 A 
ATOM      8  C   UNL     1       2.927   8.507   6.125  0.00  0.00    +0.000 A 
ATOM      9  C   UNL     1       2.900   7.109   6.225  0.00  0.00    +0.000 A 
BRANCH   8  10
ATOM     10  C   UNL     1       1.713   9.363   6.273  0.00  0.00    +0.000 C 
ATOM     11  N   UNL     1       0.510   8.763   6.518  0.00  0.00    +0.000 N 
ATOM     12  O   UNL     1       1.774  10.582   6.158  0.00  0.00    +0.000 OA
ATOM     13  H   UNL     1       0.357   7.777   6.654  0.00  0.00    +0.000 HD
ATOM     14  H   UNL     1      -0.290   9.377   6.598  0.00  0.00    +0.000 HD
ENDBRANCH   8  10
ENDBRANCH   1   4
BRANCH   1  15
ATOM     15  C   UNL     1       3.638   4.303   4.644  0.00  0.00    +0.000 C 
BRANCH  15  16
ATOM     16  O   UNL     1       3.637   2.870   4.634  0.00  0.00    +0.000 OA
BRANCH  16  20
ATOM     17  C   UNL     1       2.568   0.771   1.178  0.00  0.00    +0.000 A 
ATOM     18  C   UNL     1       2.593   2.172   1.141  0.00  0.00    +0.000 A 
ATOM     19  C   UNL     1       2.953   2.915   2.269  0.00  0.00    +0.000 A 
ATOM     20  C   UNL     1       3.289   2.266   3.457  0.00  0.00    +0.000 A 
ATOM     21  C   UNL     1       3.278   0.871   3.498  0.00  0.00    +0.000 A 
ATOM     22  C   UNL     1       2.920   0.126   2.370  0.00  0.00    +0.000 A 
BRANCH  17  23
ATOM     23  C   UNL     1       2.135  -0.019  -0.030  0.00  0.00    +0.000 C 
BRANCH  23  24
ATOM     24  N   UNL     1       2.959   0.280  -1.195  0.00  0.00    +0.000 NA
ATOM     25  H   UNL     1       2.708  -0.356  -1.950  0.00  0.00    +0.000 HD
ATOM     26  H   UNL     1       3.933   0.083  -0.965  0.00  0.00    +0.000 HD
ENDBRANCH  23  24
ENDBRANCH  17  23
ENDBRANCH  16  20
ENDBRANCH  15  16
ENDBRANCH   1  15
TORSDOF 7
