REMARK  Name = 
REMARK  7 active torsions:
REMARK  status: ('A' for Active; 'I' for Inactive)
REMARK    1  A    between atoms: C_2  and  C_4
REMARK    2  A    between atoms: C_7  and  N_8
REMARK    3  A    between atoms: N_8  and  C_9
REMARK    4  A    between atoms: C_9  and  C_10
REMARK    5  A    between atoms: C_10  and  C_11
REMARK    6  A    between atoms: C_15  and  O_16
REMARK    7  A    between atoms: O_16  and  C_17
REMARK                            x       y       z     vdW  Elec       q    Type
REMARK                         _______ _______ _______ _____ _____    ______ ____
ROOT
ATOM      1  N   UNL     1       5.160  -3.855  -3.072  0.00  0.00    +0.000 N 
ATOM      2  H   UNL     1       6.165  -3.739  -2.956  0.00  0.00    +0.000 HD
ENDROOT
BRANCH   1   6
ATOM      3  C   UNL     1       3.061  -1.047  -0.821  0.00  0.00    +0.000 A 
ATOM      4  C   UNL     1       2.390  -1.665  -1.866  0.00  0.00    +0.000 A 
ATOM      5  C   UNL     1       3.089  -2.583  -2.652  0.00  0.00    +0.000 A 
ATOM      6  C   UNL     1       4.434  -2.862  -2.403  0.00  0.00    +0.000 A 
ATOM      7  C   UNL     1       4.997  -2.189  -1.308  0.00  0.00    +0.000 A 
ATOM      8  N   UNL     1       4.366  -1.279  -0.524  0.00  0.00    +0.000 NA
BRANCH   3  10
ATOM      9  N   UNL     1       3.083   0.530   1.022  0.00  0.00    +0.000 N 
ATOM     10  C   UNL     1       2.326  -0.084   0.060  0.00  0.00    +0.000 C 
ATOM     11  O   UNL     1       1.130   0.147  -0.062  0.00  0.00    +0.000 OA
ATOM     12  H   UNL     1       2.649   1.188   1.651  0.00  0.00    +0.000 HD
ATOM     13  H   UNL     1       4.073   0.322   1.088  0.00  0.00    +0.000 HD
ENDBRANCH   3  10
ENDBRANCH   1   6
BRANCH   1  14
ATOM     14  C   UNL     1       4.788  -4.210  -4.447  0.00  0.00    +0.000 C 
BRANCH  14  15
ATOM     15  C   UNL     1       5.711  -5.317  -4.978  0.00  0.00    +0.000 C 
BRANCH  15  16
ATOM     16  C   UNL     1       5.345  -5.725  -6.384  0.00  0.00    +0.000 A 
ATOM     17  C   UNL     1       4.400  -6.732  -6.611  0.00  0.00    +0.000 A 
ATOM     18  C   UNL     1       4.030  -7.075  -7.913  0.00  0.00    +0.000 A 
ATOM     19  C   UNL     1       4.602  -6.417  -9.007  0.00  0.00    +0.000 A 
ATOM     20  C   UNL     1       5.549  -5.420  -8.793  0.00  0.00    +0.000 A 
ATOM     21  C   UNL     1       5.912  -5.071  -7.489  0.00  0.00    +0.000 A 
BRANCH  20  22
ATOM     22  O   UNL     1       6.154  -4.685  -9.783  0.00  0.00    +0.000 OA
BRANCH  22  23
ATOM     23  C   UNL     1       6.228  -5.217 -11.123  0.00  0.00    +0.000 C 
ATOM     24  C   UNL     1       7.164  -6.430 -11.350  0.00  0.00    +0.000 C 
ATOM     25  C   UNL     1       7.769  -5.712 -12.564  0.00  0.00    +0.000 C 
ATOM     26  C   UNL     1       7.149  -4.403 -12.064  0.00  0.00    +0.000 C 
ENDBRANCH  22  23
ENDBRANCH  20  22
ENDBRANCH  15  16
ENDBRANCH  14  15
ENDBRANCH   1  14
TORSDOF 7
