REMARK  Name = 
REMARK  8 active torsions:
REMARK  status: ('A' for Active; 'I' for Inactive)
REMARK    1  A    between atoms: C_1  and  N_2
REMARK    2  A    between atoms: N_5  and  C_6
REMARK    3  A    between atoms: C_8  and  C_9
REMARK    4  A    between atoms: C_9  and  C_10
REMARK    5  A    between atoms: C_10  and  N_11
REMARK    6  A    between atoms: N_11  and  C_12
REMARK    7  A    between atoms: C_15  and  C_16
REMARK    8  A    between atoms: C_22  and  C_23
REMARK                            x       y       z     vdW  Elec       q    Type
REMARK                         _______ _______ _______ _____ _____    ______ ____
ROOT
ATOM      1  C   UNL     1      -3.061   0.040   0.729  0.00  0.00    +0.000 A 
ATOM      2  C   UNL     1      -3.224  -0.593   1.974  0.00  0.00    +0.000 A 
ATOM      3  C   UNL     1      -4.414  -0.495   2.721  0.00  0.00    +0.000 A 
ATOM      4  C   UNL     1      -5.472   0.251   2.184  0.00  0.00    +0.000 A 
ATOM      5  C   UNL     1      -5.347   0.909   0.959  0.00  0.00    +0.000 A 
ATOM      6  C   UNL     1      -4.147   0.787   0.249  0.00  0.00    +0.000 A 
ENDROOT
BRANCH   1  11
ATOM      7  C   UNL     1       0.622  -0.947  -3.333  0.00  0.00    +0.000 C 
ATOM      8  N   UNL     1       0.164  -0.501  -2.020  0.00  0.00    +0.000 NA
ATOM      9  C   UNL     1      -0.843   0.576  -2.157  0.00  0.00    +0.000 C 
ATOM     10  C   UNL     1      -1.364   1.056  -0.784  0.00  0.00    +0.000 C 
ATOM     11  N   UNL     1      -1.921  -0.088  -0.037  0.00  0.00    +0.000 N 
ATOM     12  C   UNL     1      -0.974  -1.201   0.126  0.00  0.00    +0.000 C 
ATOM     13  C   UNL     1      -0.434  -1.626  -1.264  0.00  0.00    +0.000 C 
ENDBRANCH   1  11
BRANCH   5  14
ATOM     14  C   UNL     1      -6.468   1.745   0.406  0.00  0.00    +0.000 C 
ATOM     15  F   UNL     1      -7.563   1.791   1.218  0.00  0.00    +0.000 F 
ATOM     16  F   UNL     1      -6.100   3.042   0.209  0.00  0.00    +0.000 F 
ATOM     17  F   UNL     1      -6.918   1.296  -0.798  0.00  0.00    +0.000 F 
ENDBRANCH   5  14
BRANCH   3  18
ATOM     18  C   UNL     1      -4.499  -1.175   4.080  0.00  0.00    +0.000 C 
BRANCH  18  19
ATOM     19  C   UNL     1      -5.858  -0.998   4.768  0.00  0.00    +0.000 C 
BRANCH  19  20
ATOM     20  N   UNL     1      -5.921  -1.598   6.102  0.00  0.00    +0.000 N 
ATOM     21  H   UNL     1      -5.140  -1.311   6.690  0.00  0.00    +0.000 HD
BRANCH  20  22
ATOM     22  C   UNL     1      -7.153  -1.432   6.773  0.00  0.00    +0.000 A 
ATOM     23  C   UNL     1      -8.386  -1.374   6.110  0.00  0.00    +0.000 A 
ATOM     24  C   UNL     1      -9.579  -1.284   6.824  0.00  0.00    +0.000 A 
ATOM     25  C   UNL     1      -9.518  -1.286   8.207  0.00  0.00    +0.000 A 
ATOM     26  N   UNL     1      -8.354  -1.376   8.910  0.00  0.00    +0.000 NA
ATOM     27  C   UNL     1      -7.217  -1.463   8.170  0.00  0.00    +0.000 A 
BRANCH  25  28
ATOM     28  C   UNL     1     -10.785  -1.211   9.000  0.00  0.00    +0.000 C 
ATOM     29  N   UNL     1     -10.628  -1.232  10.356  0.00  0.00    +0.000 N 
ATOM     30  O   UNL     1     -11.892  -1.139   8.480  0.00  0.00    +0.000 OA
ATOM     31  H   UNL     1      -9.694  -1.320  10.749  0.00  0.00    +0.000 HD
ATOM     32  H   UNL     1     -11.437  -1.219  10.955  0.00  0.00    +0.000 HD
ENDBRANCH  25  28
ENDBRANCH  20  22
ENDBRANCH  19  20
ENDBRANCH  18  19
ENDBRANCH   3  18
TORSDOF 7
