REMARK  Name = 
REMARK  7 active torsions:
REMARK  status: ('A' for Active; 'I' for Inactive)
REMARK    1  A    between atoms: C_1  and  C_2
REMARK    2  A    between atoms: C_2  and  C_3
REMARK    3  A    between atoms: C_6  and  C_7
REMARK    4  A    between atoms: C_7  and  C_8
REMARK    5  A    between atoms: C_7  and  N_9
REMARK    6  A    between atoms: N_9  and  C_10
REMARK    7  A    between atoms: C_13  and  C_14
REMARK                            x       y       z     vdW  Elec       q    Type
REMARK                         _______ _______ _______ _____ _____    ______ ____
ROOT
ATOM      1  N   UNL     1       4.781  -2.699  -5.633  0.00  0.00    +0.000 N 
ATOM      2  H   UNL     1       5.353  -1.950  -5.250  0.00  0.00    +0.000 HD
ENDROOT
BRANCH   1   3
ATOM      3  C   UNL     1       5.485  -3.458  -6.573  0.00  0.00    +0.000 A 
ATOM      4  C   UNL     1       5.066  -4.708  -7.029  0.00  0.00    +0.000 A 
ATOM      5  C   UNL     1       5.754  -5.359  -8.056  0.00  0.00    +0.000 A 
ATOM      6  C   UNL     1       6.853  -4.728  -8.621  0.00  0.00    +0.000 A 
ATOM      7  N   UNL     1       7.305  -3.509  -8.228  0.00  0.00    +0.000 NA
ATOM      8  C   UNL     1       6.597  -2.912  -7.235  0.00  0.00    +0.000 A 
BRANCH   6   9
ATOM      9  C   UNL     1       7.586  -5.391  -9.748  0.00  0.00    +0.000 C 
ATOM     10  N   UNL     1       8.651  -4.698 -10.252  0.00  0.00    +0.000 N 
ATOM     11  O   UNL     1       7.258  -6.483 -10.199  0.00  0.00    +0.000 OA
ATOM     12  H   UNL     1       8.884  -3.787  -9.866  0.00  0.00    +0.000 HD
ATOM     13  H   UNL     1       9.174  -5.081 -11.027  0.00  0.00    +0.000 HD
ENDBRANCH   6   9
ENDBRANCH   1   3
BRANCH   1  14
ATOM     14  C   UNL     1       3.960  -3.351  -4.601  0.00  0.00    +0.000 C 
ATOM     15  C   UNL     1       3.903  -2.429  -3.372  0.00  0.00    +0.000 C 
BRANCH  14  19
ATOM     16  C   UNL     1      -0.249  -3.896  -5.502  0.00  0.00    +0.000 A 
ATOM     17  C   UNL     1       0.424  -4.784  -4.657  0.00  0.00    +0.000 A 
ATOM     18  C   UNL     1       1.797  -4.646  -4.433  0.00  0.00    +0.000 A 
ATOM     19  C   UNL     1       2.526  -3.611  -5.042  0.00  0.00    +0.000 A 
ATOM     20  C   UNL     1       1.856  -2.762  -5.935  0.00  0.00    +0.000 A 
ATOM     21  C   UNL     1       0.484  -2.903  -6.162  0.00  0.00    +0.000 A 
BRANCH  16  23
ATOM     22  C   UNL     1      -2.441  -3.091  -4.593  0.00  0.00    +0.000 C 
ATOM     23  C   UNL     1      -1.749  -3.958  -5.639  0.00  0.00    +0.000 C 
ENDBRANCH  16  23
ENDBRANCH  14  19
ENDBRANCH   1  14
TORSDOF 5
