REMARK  Name = 
REMARK  10 active torsions:
REMARK  status: ('A' for Active; 'I' for Inactive)
REMARK    1  A    between atoms: C_1  and  C_2
REMARK    2  A    between atoms: C_2  and  C_3
REMARK    3  A    between atoms: C_2  and  C_4
REMARK    4  A    between atoms: C_2  and  C_5
REMARK    5  A    between atoms: N_7  and  C_8
REMARK    6  A    between atoms: C_8  and  C_9
REMARK    7  A    between atoms: C_12  and  C_13
REMARK    8  A    between atoms: N_15  and  C_16
REMARK    9  A    between atoms: C_16  and  C_17
REMARK   10  A    between atoms: C_17  and  N_18
REMARK                            x       y       z     vdW  Elec       q    Type
REMARK                         _______ _______ _______ _____ _____    ______ ____
ROOT
ATOM      1  C   UNL     1       4.123   5.265   1.476  0.00  0.00    +0.000 A 
ATOM      2  C   UNL     1       4.162   5.736   0.162  0.00  0.00    +0.000 A 
ATOM      3  N   UNL     1       5.256   6.315  -0.397  0.00  0.00    +0.000 NA
ATOM      4  C   UNL     1       6.335   6.412   0.432  0.00  0.00    +0.000 A 
ATOM      5  C   UNL     1       6.282   6.021   1.762  0.00  0.00    +0.000 A 
ATOM      6  N   UNL     1       5.177   5.453   2.313  0.00  0.00    +0.000 NA
ENDROOT
BRANCH   4   7
ATOM      7  C   UNL     1       7.630   6.868  -0.152  0.00  0.00    +0.000 C 
ATOM      8  O   UNL     1       8.640   6.933   0.545  0.00  0.00    +0.000 OA
ATOM      9  N   UNL     1       7.618   7.171  -1.498  0.00  0.00    +0.000 N 
ATOM     10  H   UNL     1       6.748   7.046  -2.007  0.00  0.00    +0.000 HD
BRANCH   9  11
ATOM     11  C   UNL     1       8.818   7.578  -2.213  0.00  0.00    +0.000 C 
BRANCH  11  12
ATOM     12  C   UNL     1       9.620   6.397  -2.781  0.00  0.00    +0.000 C 
BRANCH  12  13
ATOM     13  N   UNL     1       8.850   5.627  -3.771  0.00  0.00    +0.000 NA
ATOM     14  H   UNL     1       8.034   5.232  -3.302  0.00  0.00    +0.000 HD
ATOM     15  H   UNL     1       9.409   4.833  -4.075  0.00  0.00    +0.000 HD
ENDBRANCH  12  13
ENDBRANCH  11  12
ENDBRANCH   9  11
ENDBRANCH   4   7
BRANCH   1  16
ATOM     16  C   UNL     1       2.958   4.451   1.973  0.00  0.00    +0.000 C 
BRANCH  16  19
ATOM     17  C   UNL     1       2.989   0.973   0.854  0.00  0.00    +0.000 A 
ATOM     18  C   UNL     1       2.791   2.332   0.651  0.00  0.00    +0.000 A 
ATOM     19  N   UNL     1       3.187   3.020   1.769  0.00  0.00    +0.000 N 
ATOM     20  C   UNL     1       3.753   2.150   2.676  0.00  0.00    +0.000 A 
ATOM     21  C   UNL     1       4.330   2.390   3.937  0.00  0.00    +0.000 A 
ATOM     22  C   UNL     1       4.849   1.310   4.652  0.00  0.00    +0.000 A 
ATOM     23  C   UNL     1       4.812   0.030   4.124  0.00  0.00    +0.000 A 
ATOM     24  C   UNL     1       4.239  -0.201   2.868  0.00  0.00    +0.000 A 
ATOM     25  C   UNL     1       3.677   0.865   2.122  0.00  0.00    +0.000 A 
BRANCH  17  27
ATOM     26  C   UNL     1       3.700  -0.400  -1.134  0.00  0.00    +0.000 C 
ATOM     27  C   UNL     1       2.565  -0.128  -0.130  0.00  0.00    +0.000 C 
ATOM     28  C   UNL     1       1.309   0.298  -0.931  0.00  0.00    +0.000 C 
ATOM     29  C   UNL     1       2.188  -1.444   0.578  0.00  0.00    +0.000 C 
ENDBRANCH  17  27
ENDBRANCH  16  19
ENDBRANCH   1  16
TORSDOF 7
