REMARK  Name = 
REMARK  8 active torsions:
REMARK  status: ('A' for Active; 'I' for Inactive)
REMARK    1  A    between atoms: C_1  and  C_2
REMARK    2  A    between atoms: C_2  and  N_3
REMARK    3  A    between atoms: N_3  and  C_4
REMARK    4  A    between atoms: C_4  and  C_5
REMARK    5  A    between atoms: C_8  and  C_9
REMARK    6  A    between atoms: C_9  and  N_10
REMARK    7  A    between atoms: N_10  and  C_11
REMARK    8  A    between atoms: C_18  and  C_20
REMARK                            x       y       z     vdW  Elec       q    Type
REMARK                         _______ _______ _______ _____ _____    ______ ____
ROOT
ATOM      1  N   UNL     1      -7.125  -2.844  -8.334  0.00  0.00    +0.000 N 
ATOM      2  C   UNL     1      -7.875  -2.760  -9.523  0.00  0.00    +0.000 C 
ATOM      3  O   UNL     1      -7.497  -3.291 -10.566  0.00  0.00    +0.000 OA
ENDROOT
BRANCH   2   4
ATOM      4  C   UNL     1      -9.126  -1.978  -9.534  0.00  0.00    +0.000 A 
ATOM      5  C   UNL     1      -9.244  -0.666  -9.097  0.00  0.00    +0.000 A 
ATOM      6  S   UNL     1     -10.804  -0.006  -9.321  0.00  0.00    +0.000 S 
ATOM      7  C   UNL     1     -11.326  -1.394 -10.147  0.00  0.00    +0.000 A 
ATOM      8  N   UNL     1     -12.559  -1.449 -10.725  0.00  0.00    +0.000 NA
ATOM      9  C   UNL     1     -12.785  -2.540 -11.383  0.00  0.00    +0.000 A 
ATOM     10  N   UNL     1     -11.914  -3.597 -11.468  0.00  0.00    +0.000 N 
ATOM     11  C   UNL     1     -10.718  -3.642 -10.784  0.00  0.00    +0.000 A 
ATOM     12  O   UNL     1     -10.076  -4.681 -10.691  0.00  0.00    +0.000 OA
ATOM     13  C   UNL     1     -10.363  -2.387 -10.149  0.00  0.00    +0.000 A 
ATOM     14  H   UNL     1     -12.180  -4.446 -11.943  0.00  0.00    +0.000 HD
ENDBRANCH   2   4
BRANCH   1  16
ATOM     15  C   UNL     1      -5.895  -4.989  -8.503  0.00  0.00    +0.000 C 
ATOM     16  C   UNL     1      -5.806  -3.471  -8.426  0.00  0.00    +0.000 C 
ENDBRANCH   1  16
BRANCH   1  17
ATOM     17  C   UNL     1      -7.532  -2.175  -7.101  0.00  0.00    +0.000 C 
BRANCH  17  18
ATOM     18  C   UNL     1      -6.892  -2.530  -5.783  0.00  0.00    +0.000 A 
ATOM     19  C   UNL     1      -5.968  -1.646  -5.203  0.00  0.00    +0.000 A 
ATOM     20  C   UNL     1      -5.584  -1.793  -3.871  0.00  0.00    +0.000 A 
ATOM     21  C   UNL     1      -6.110  -2.831  -3.092  0.00  0.00    +0.000 A 
ATOM     22  C   UNL     1      -6.950  -3.774  -3.703  0.00  0.00    +0.000 A 
ATOM     23  C   UNL     1      -7.335  -3.629  -5.040  0.00  0.00    +0.000 A 
BRANCH  21  24
ATOM     24  C   UNL     1      -5.775  -2.924  -1.620  0.00  0.00    +0.000 C 
BRANCH  24  25
ATOM     25  N   UNL     1      -6.152  -1.696  -0.908  0.00  0.00    +0.000 NA
ATOM     26  H   UNL     1      -7.150  -1.555  -1.047  0.00  0.00    +0.000 HD
BRANCH  25  27
ATOM     27  C   UNL     1      -5.896  -1.793   0.516  0.00  0.00    +0.000 C 
ATOM     28  C   UNL     1      -4.428  -1.869   0.915  0.00  0.00    +0.000 C 
ATOM     29  C   UNL     1      -3.929  -0.455   0.696  0.00  0.00    +0.000 C 
ATOM     30  C   UNL     1      -5.154   0.404   0.972  0.00  0.00    +0.000 C 
ATOM     31  N   UNL     1      -6.293  -0.516   1.086  0.00  0.00    +0.000 NA
ATOM     32  H   UNL     1      -7.095  -0.140   0.592  0.00  0.00    +0.000 HD
ENDBRANCH  25  27
ENDBRANCH  24  25
ENDBRANCH  21  24
ENDBRANCH  17  18
ENDBRANCH   1  17
TORSDOF 7
