REMARK  Name = 
REMARK  8 active torsions:
REMARK  status: ('A' for Active; 'I' for Inactive)
REMARK    1  A    between atoms: C_1  and  C_2
REMARK    2  A    between atoms: C_5  and  C_6
REMARK    3  A    between atoms: C_6  and  N_7
REMARK    4  A    between atoms: N_7  and  C_8
REMARK    5  A    between atoms: C_8  and  C_9
REMARK    6  A    between atoms: C_12  and  C_13
REMARK    7  A    between atoms: C_13  and  N_14
REMARK    8  A    between atoms: C_15  and  C_17
REMARK                            x       y       z     vdW  Elec       q    Type
REMARK                         _______ _______ _______ _____ _____    ______ ____
ROOT
ATOM      1  C   UNL     1       5.754   2.838   0.163  0.00  0.00    +0.000 A 
ATOM      2  C   UNL     1       4.887   3.877  -0.203  0.00  0.00    +0.000 A 
ATOM      3  C   UNL     1       5.314   5.207  -0.166  0.00  0.00    +0.000 A 
ATOM      4  C   UNL     1       6.618   5.521   0.236  0.00  0.00    +0.000 A 
ATOM      5  C   UNL     1       7.472   4.485   0.637  0.00  0.00    +0.000 A 
ATOM      6  C   UNL     1       7.046   3.157   0.597  0.00  0.00    +0.000 A 
ENDROOT
BRANCH   1   7
ATOM      7  C   UNL     1       5.313   1.397   0.064  0.00  0.00    +0.000 C 
BRANCH   7   8
ATOM      8  N   UNL     1       4.903   1.007  -1.289  0.00  0.00    +0.000 NA
ATOM      9  H   UNL     1       4.570   0.044  -1.258  0.00  0.00    +0.000 HD
BRANCH   8  10
ATOM     10  C   UNL     1       6.004   1.097  -2.251  0.00  0.00    +0.000 C 
BRANCH  10  15
ATOM     11  C   UNL     1       4.312  -0.525  -7.454  0.00  0.00    +0.000 C 
ATOM     12  C   UNL     1       4.764  -0.082  -6.099  0.00  0.00    +0.000 A 
ATOM     13  N   UNL     1       4.122   0.952  -5.526  0.00  0.00    +0.000 NA
ATOM     14  C   UNL     1       4.540   1.306  -4.294  0.00  0.00    +0.000 A 
ATOM     15  C   UNL     1       5.561   0.673  -3.616  0.00  0.00    +0.000 A 
ATOM     16  C   UNL     1       6.160  -0.358  -4.306  0.00  0.00    +0.000 A 
ATOM     17  N   UNL     1       5.784  -0.758  -5.537  0.00  0.00    +0.000 NA
ENDBRANCH  10  15
ENDBRANCH   8  10
ENDBRANCH   7   8
ENDBRANCH   1   7
BRANCH   4  18
ATOM     18  C   UNL     1       7.088   6.950   0.278  0.00  0.00    +0.000 C 
BRANCH  18  19
ATOM     19  N   UNL     1       6.821   7.544   1.562  0.00  0.00    +0.000 N 
ATOM     20  C   UNL     1       7.086   8.867   1.797  0.00  0.00    +0.000 C 
ATOM     21  O   UNL     1       7.524   9.607   0.919  0.00  0.00    +0.000 OA
ATOM     22  H   UNL     1       6.671   6.913   2.344  0.00  0.00    +0.000 HD
BRANCH  20  23
ATOM     23  C   UNL     1       6.761   9.377   3.134  0.00  0.00    +0.000 A 
ATOM     24  C   UNL     1       6.537  10.735   3.312  0.00  0.00    +0.000 A 
ATOM     25  S   UNL     1       6.119  11.156   4.910  0.00  0.00    +0.000 S 
ATOM     26  C   UNL     1       6.273   9.544   5.433  0.00  0.00    +0.000 A 
ATOM     27  N   UNL     1       6.068   9.210   6.735  0.00  0.00    +0.000 NA
ATOM     28  C   UNL     1       6.250   7.959   6.999  0.00  0.00    +0.000 A 
ATOM     29  N   UNL     1       6.615   7.011   6.079  0.00  0.00    +0.000 N 
ATOM     30  C   UNL     1       6.805   7.297   4.747  0.00  0.00    +0.000 A 
ATOM     31  O   UNL     1       7.092   6.417   3.942  0.00  0.00    +0.000 OA
ATOM     32  C   UNL     1       6.622   8.693   4.398  0.00  0.00    +0.000 A 
ATOM     33  H   UNL     1       6.734   6.047   6.350  0.00  0.00    +0.000 HD
ENDBRANCH  20  23
ENDBRANCH  18  19
ENDBRANCH   4  18
TORSDOF 7
