REMARK  Name = 
REMARK  10 active torsions:
REMARK  status: ('A' for Active; 'I' for Inactive)
REMARK    1  A    between atoms: C_1  and  O_2
REMARK    2  A    between atoms: O_2  and  C_3
REMARK    3  A    between atoms: C_10  and  C_11
REMARK    4  A    between atoms: N_13  and  C_14
REMARK    5  A    between atoms: C_14  and  C_15
REMARK    6  A    between atoms: C_18  and  O_19
REMARK    7  A    between atoms: O_19  and  C_20
REMARK    8  A    between atoms: C_20  and  C_21
REMARK    9  A    between atoms: C_21  and  O_22
REMARK   10  A    between atoms: C_21  and  C_23
REMARK                            x       y       z     vdW  Elec       q    Type
REMARK                         _______ _______ _______ _____ _____    ______ ____
ROOT
ATOM      1  C   UNL     1       1.746  -2.925  -1.604  0.00  0.00    +0.000 A 
ATOM      2  C   UNL     1       1.767  -4.291  -1.293  0.00  0.00    +0.000 A 
ATOM      3  C   UNL     1       0.781  -4.854  -0.477  0.00  0.00    +0.000 A 
ATOM      4  C   UNL     1      -0.248  -4.064   0.033  0.00  0.00    +0.000 A 
ATOM      5  C   UNL     1      -0.308  -2.715  -0.325  0.00  0.00    +0.000 A 
ATOM      6  C   UNL     1       0.673  -2.151  -1.150  0.00  0.00    +0.000 A 
ENDROOT
BRANCH   1   7
ATOM      7  C   UNL     1       2.866  -2.302  -2.395  0.00  0.00    +0.000 C 
BRANCH   7  10
ATOM      8  C   UNL     1       3.564  -1.860  -4.697  0.00  0.00    +0.000 C 
ATOM      9  O   UNL     1       4.609  -1.353  -4.305  0.00  0.00    +0.000 OA
ATOM     10  N   UNL     1       2.636  -2.351  -3.815  0.00  0.00    +0.000 N 
ATOM     11  H   UNL     1       1.768  -2.753  -4.143  0.00  0.00    +0.000 HD
BRANCH   8  19
ATOM     12  C   UNL     1       0.911  -3.157  -6.490  0.00  0.00    +0.000 A 
ATOM     13  N   UNL     1       0.054  -3.622  -7.422  0.00  0.00    +0.000 NA
ATOM     14  C   UNL     1       0.368  -3.443  -8.708  0.00  0.00    +0.000 A 
ATOM     15  N   UNL     1       1.451  -2.843  -9.191  0.00  0.00    +0.000 NA
ATOM     16  C   UNL     1       2.287  -2.413  -8.229  0.00  0.00    +0.000 A 
ATOM     17  S   UNL     1       3.721  -1.618  -8.667  0.00  0.00    +0.000 S 
ATOM     18  C   UNL     1       4.169  -1.431  -7.039  0.00  0.00    +0.000 A 
ATOM     19  C   UNL     1       3.252  -1.957  -6.136  0.00  0.00    +0.000 A 
ATOM     20  C   UNL     1       2.117  -2.534  -6.853  0.00  0.00    +0.000 A 
BRANCH  12  22
ATOM     21  C   UNL     1      -0.844  -3.373  -4.972  0.00  0.00    +0.000 C 
ATOM     22  O   UNL     1       0.569  -3.322  -5.162  0.00  0.00    +0.000 OA
ENDBRANCH  12  22
ENDBRANCH   8  19
ENDBRANCH   7  10
ENDBRANCH   1   7
BRANCH   4  23
ATOM     23  O   UNL     1      -1.235  -4.486   0.884  0.00  0.00    +0.000 OA
BRANCH  23  24
ATOM     24  C   UNL     1      -1.170  -5.855   1.312  0.00  0.00    +0.000 C 
BRANCH  24  25
ATOM     25  C   UNL     1      -2.277  -6.190   2.326  0.00  0.00    +0.000 C 
BRANCH  25  26
ATOM     26  C   UNL     1      -3.671  -6.026   1.746  0.00  0.00    +0.000 A 
ATOM     27  C   UNL     1      -4.274  -7.068   1.044  0.00  0.00    +0.000 A 
ATOM     28  C   UNL     1      -5.554  -6.879   0.530  0.00  0.00    +0.000 A 
ATOM     29  C   UNL     1      -6.193  -5.660   0.724  0.00  0.00    +0.000 A 
ATOM     30  C   UNL     1      -5.526  -4.677   1.435  0.00  0.00    +0.000 A 
ATOM     31  N   UNL     1      -4.288  -4.832   1.955  0.00  0.00    +0.000 NA
ENDBRANCH  25  26
BRANCH  25  32
ATOM     32  O   UNL     1      -2.124  -5.373   3.494  0.00  0.00    +0.000 OA
ATOM     33  H   UNL     1      -2.743  -4.628   3.346  0.00  0.00    +0.000 HD
ENDBRANCH  25  32
ENDBRANCH  24  25
ENDBRANCH  23  24
ENDBRANCH   4  23
TORSDOF 9
