REMARK  Name = 
REMARK  7 active torsions:
REMARK  status: ('A' for Active; 'I' for Inactive)
REMARK    1  A    between atoms: C_2  and  C_20
REMARK    2  A    between atoms: N_3  and  C_4
REMARK    3  A    between atoms: C_4  and  C_5
REMARK    4  A    between atoms: C_8  and  C_9
REMARK    5  A    between atoms: C_9  and  N_10
REMARK    6  A    between atoms: N_10  and  C_11
REMARK    7  A    between atoms: C_11  and  C_12
REMARK                            x       y       z     vdW  Elec       q    Type
REMARK                         _______ _______ _______ _____ _____    ______ ____
ROOT
ATOM      1  C   UNL     1       3.083  -2.547  -2.625  0.00  0.00    +0.000 A 
ATOM      2  C   UNL     1       4.118  -1.998  -3.388  0.00  0.00    +0.000 A 
ATOM      3  C   UNL     1       4.953  -2.833  -4.132  0.00  0.00    +0.000 A 
ATOM      4  C   UNL     1       4.733  -4.209  -4.101  0.00  0.00    +0.000 A 
ATOM      5  N   UNL     1       3.760  -4.757  -3.328  0.00  0.00    +0.000 NA
ATOM      6  C   UNL     1       2.971  -3.929  -2.611  0.00  0.00    +0.000 A 
ENDROOT
BRANCH   1   7
ATOM      7  C   UNL     1       2.137  -1.702  -1.828  0.00  0.00    +0.000 C 
BRANCH   7  10
ATOM      8  O   UNL     1       1.473  -3.111   0.511  0.00  0.00    +0.000 OA
ATOM      9  C   UNL     1       2.306  -2.213   0.580  0.00  0.00    +0.000 C 
ATOM     10  N   UNL     1       2.645  -1.445  -0.506  0.00  0.00    +0.000 N 
ATOM     11  H   UNL     1       3.456  -0.840  -0.448  0.00  0.00    +0.000 HD
BRANCH   9  12
ATOM     12  C   UNL     1       2.957  -1.862   1.848  0.00  0.00    +0.000 A 
ATOM     13  C   UNL     1       2.367  -2.227   3.050  0.00  0.00    +0.000 A 
ATOM     14  S   UNL     1       3.240  -1.717   4.423  0.00  0.00    +0.000 S 
ATOM     15  C   UNL     1       4.464  -1.032   3.459  0.00  0.00    +0.000 A 
ATOM     16  N   UNL     1       5.550  -0.440   4.025  0.00  0.00    +0.000 NA
ATOM     17  C   UNL     1       6.420  -0.003   3.178  0.00  0.00    +0.000 A 
ATOM     18  N   UNL     1       6.299  -0.093   1.816  0.00  0.00    +0.000 N 
ATOM     19  C   UNL     1       5.188  -0.616   1.200  0.00  0.00    +0.000 A 
ATOM     20  O   UNL     1       5.056  -0.563  -0.019  0.00  0.00    +0.000 OA
ATOM     21  C   UNL     1       4.198  -1.166   2.108  0.00  0.00    +0.000 A 
ATOM     22  H   UNL     1       7.005   0.294   1.207  0.00  0.00    +0.000 HD
ENDBRANCH   9  12
ENDBRANCH   7  10
ENDBRANCH   1   7
BRANCH   4  23
ATOM     23  C   UNL     1       5.608  -5.152  -4.922  0.00  0.00    +0.000 C 
BRANCH  23  24
ATOM     24  N   UNL     1       4.878  -6.352  -5.330  0.00  0.00    +0.000 NA
ATOM     25  H   UNL     1       4.016  -6.084  -5.799  0.00  0.00    +0.000 HD
BRANCH  24  26
ATOM     26  C   UNL     1       5.653  -7.310  -6.105  0.00  0.00    +0.000 C 
BRANCH  26  27
ATOM     27  C   UNL     1       4.775  -8.548  -6.411  0.00  0.00    +0.000 C 
ATOM     28  C   UNL     1       4.286  -9.265  -5.138  0.00  0.00    +0.000 C 
ATOM     29  C   UNL     1       5.424 -10.016  -4.452  0.00  0.00    +0.000 C 
ATOM     30  C   UNL     1       6.129 -10.953  -5.429  0.00  0.00    +0.000 C 
ATOM     31  N   UNL     1       6.599 -10.253  -6.628  0.00  0.00    +0.000 NA
ATOM     32  C   UNL     1       5.501  -9.563  -7.310  0.00  0.00    +0.000 C 
ATOM     33  H   UNL     1       7.008 -10.936  -7.265  0.00  0.00    +0.000 HD
ENDBRANCH  26  27
ENDBRANCH  24  26
ENDBRANCH  23  24
ENDBRANCH   4  23
TORSDOF 7
