REMARK  Name = 
REMARK  5 active torsions:
REMARK  status: ('A' for Active; 'I' for Inactive)
REMARK    1  A    between atoms: N_1  and  C_2
REMARK    2  A    between atoms: C_2  and  C_3
REMARK    3  A    between atoms: C_6  and  C_7
REMARK    4  A    between atoms: C_7  and  N_8
REMARK    5  A    between atoms: C_13  and  C_14
REMARK                            x       y       z     vdW  Elec       q    Type
REMARK                         _______ _______ _______ _____ _____    ______ ____
ROOT
ATOM      1  N   UNL     1       3.198   5.603  -3.195  0.00  0.00    +0.000 N 
ATOM      2  C   UNL     1       3.405   6.722  -3.978  0.00  0.00    +0.000 A 
ATOM      3  N   UNL     1       3.452   7.883  -3.309  0.00  0.00    +0.000 NA
ATOM      4  C   UNL     1       3.557   9.019  -4.023  0.00  0.00    +0.000 A 
ATOM      5  C   UNL     1       3.620   9.045  -5.386  0.00  0.00    +0.000 A 
ATOM      6  C   UNL     1       3.581   7.806  -5.982  0.00  0.00    +0.000 A 
ATOM      7  N   UNL     1       3.482   6.628  -5.311  0.00  0.00    +0.000 NA
ATOM      8  H   UNL     1       3.446   5.858  -2.243  0.00  0.00    +0.000 HD
ENDROOT
BRANCH   6   9
ATOM      9  C   UNL     1       3.633   7.729  -7.476  0.00  0.00    +0.000 C 
ATOM     10  N   UNL     1       3.607   6.468  -8.006  0.00  0.00    +0.000 N 
ATOM     11  O   UNL     1       3.690   8.724  -8.186  0.00  0.00    +0.000 OA
ATOM     12  H   UNL     1       3.528   5.663  -7.396  0.00  0.00    +0.000 HD
ATOM     13  H   UNL     1       3.604   6.354  -9.010  0.00  0.00    +0.000 HD
ENDBRANCH   6   9
BRANCH   1  14
ATOM     14  C   UNL     1       3.834   4.377  -3.640  0.00  0.00    +0.000 C 
BRANCH  14  18
ATOM     15  C   UNL     1       2.963   1.201  -0.887  0.00  0.00    +0.000 A 
ATOM     16  C   UNL     1       2.090   1.449  -1.947  0.00  0.00    +0.000 A 
ATOM     17  C   UNL     1       2.359   2.486  -2.842  0.00  0.00    +0.000 A 
ATOM     18  C   UNL     1       3.511   3.250  -2.670  0.00  0.00    +0.000 A 
ATOM     19  N   UNL     1       4.363   3.047  -1.631  0.00  0.00    +0.000 NA
ATOM     20  C   UNL     1       4.069   2.038  -0.772  0.00  0.00    +0.000 A 
BRANCH  15  21
ATOM     21  C   UNL     1       2.742   0.063   0.067  0.00  0.00    +0.000 C 
BRANCH  21  22
ATOM     22  N   UNL     1       2.567   0.519   1.438  0.00  0.00    +0.000 NA
ATOM     23  H   UNL     1       2.345  -0.279   2.031  0.00  0.00    +0.000 HD
ATOM     24  H   UNL     1       1.756   1.138   1.483  0.00  0.00    +0.000 HD
ENDBRANCH  21  22
ENDBRANCH  15  21
ENDBRANCH  14  18
ENDBRANCH   1  14
TORSDOF 5
