REMARK  Name = 
REMARK  4 active torsions:
REMARK  status: ('A' for Active; 'I' for Inactive)
REMARK    1  A    between atoms: C_2  and  C_4
REMARK    2  A    between atoms: N_8  and  C_9
REMARK    3  A    between atoms: C_9  and  C_10
REMARK    4  A    between atoms: C_15  and  C_16
REMARK                            x       y       z     vdW  Elec       q    Type
REMARK                         _______ _______ _______ _____ _____    ______ ____
ROOT
ATOM      1  C   UNL     1       4.859  -2.513  -5.557  0.00  0.00    +0.000 C 
ENDROOT
BRANCH   1   6
ATOM      2  C   UNL     1       7.694  -1.012  -1.528  0.00  0.00    +0.000 A 
ATOM      3  C   UNL     1       7.287  -0.275  -2.635  0.00  0.00    +0.000 A 
ATOM      4  C   UNL     1       6.405  -0.851  -3.552  0.00  0.00    +0.000 A 
ATOM      5  C   UNL     1       5.956  -2.153  -3.356  0.00  0.00    +0.000 A 
ATOM      6  N   UNL     1       5.008  -2.764  -4.141  0.00  0.00    +0.000 N 
ATOM      7  N   UNL     1       6.368  -2.883  -2.299  0.00  0.00    +0.000 NA
ATOM      8  C   UNL     1       7.229  -2.311  -1.416  0.00  0.00    +0.000 A 
ATOM      9  H   UNL     1       4.929  -3.733  -3.849  0.00  0.00    +0.000 HD
BRANCH   2  11
ATOM     10  N   UNL     1       8.567   0.889  -0.297  0.00  0.00    +0.000 N 
ATOM     11  C   UNL     1       8.580  -0.468  -0.479  0.00  0.00    +0.000 C 
ATOM     12  O   UNL     1       9.269  -1.196   0.223  0.00  0.00    +0.000 OA
ATOM     13  H   UNL     1       9.087   1.239   0.498  0.00  0.00    +0.000 HD
ATOM     14  H   UNL     1       7.836   1.479  -0.667  0.00  0.00    +0.000 HD
ENDBRANCH   2  11
ENDBRANCH   1   6
BRANCH   1  15
ATOM     15  C   UNL     1       5.767  -3.377  -6.399  0.00  0.00    +0.000 A 
ATOM     16  C   UNL     1       6.769  -2.791  -7.183  0.00  0.00    +0.000 A 
ATOM     17  C   UNL     1       7.547  -3.584  -8.017  0.00  0.00    +0.000 A 
ATOM     18  F   UNL     1       8.486  -3.010  -8.783  0.00  0.00    +0.000 F 
ATOM     19  C   UNL     1       7.359  -4.958  -8.084  0.00  0.00    +0.000 A 
ATOM     20  C   UNL     1       6.379  -5.577  -7.296  0.00  0.00    +0.000 A 
ATOM     21  C   UNL     1       5.588  -4.773  -6.456  0.00  0.00    +0.000 A 
BRANCH  20  22
ATOM     22  C   UNL     1       6.217  -7.083  -7.366  0.00  0.00    +0.000 C 
ATOM     23  C   UNL     1       4.818  -7.530  -7.814  0.00  0.00    +0.000 C 
ATOM     24  C   UNL     1       4.763  -9.053  -7.868  0.00  0.00    +0.000 C 
ATOM     25  O   UNL     1       5.107  -9.618  -6.602  0.00  0.00    +0.000 OA
ATOM     26  C   UNL     1       6.431  -9.278  -6.190  0.00  0.00    +0.000 C 
ATOM     27  C   UNL     1       6.576  -7.769  -6.040  0.00  0.00    +0.000 C 
ENDBRANCH  20  22
ENDBRANCH   1  15
TORSDOF 4
