REMARK  Name = 
REMARK  13 active torsions:
REMARK  status: ('A' for Active; 'I' for Inactive)
REMARK    1  A    between atoms: C_1  and  N_2
REMARK    2  A    between atoms: N_2  and  C_3
REMARK    3  A    between atoms: N_2  and  C_4
REMARK    4  A    between atoms: C_4  and  C_5
REMARK    5  A    between atoms: C_5  and  O_6
REMARK    6  A    between atoms: O_6  and  C_7
REMARK    7  A    between atoms: C_10  and  C_11
REMARK    8  A    between atoms: C_11  and  C_12
REMARK    9  A    between atoms: C_11  and  C_13
REMARK   10  A    between atoms: C_11  and  C_14
REMARK   11  A    between atoms: C_14  and  O_15
REMARK   12  A    between atoms: O_15  and  C_16
REMARK   13  A    between atoms: C_20  and  C_21
REMARK                            x       y       z     vdW  Elec       q    Type
REMARK                         _______ _______ _______ _____ _____    ______ ____
ROOT
ATOM      1  C   UNL     1      10.554   1.835  -3.515  0.00  0.00    +0.000 C 
ATOM      2  C   UNL     1      10.794   2.163  -5.005  0.00  0.00    +0.000 C 
ATOM      3  C   UNL     1      11.132   2.976  -2.645  0.00  0.00    +0.000 C 
ENDROOT
BRANCH   1   7
ATOM      4  C   UNL     1       6.263   1.556  -2.672  0.00  0.00    +0.000 A 
ATOM      5  C   UNL     1       7.099   0.465  -2.458  0.00  0.00    +0.000 A 
ATOM      6  C   UNL     1       8.465   0.550  -2.731  0.00  0.00    +0.000 A 
ATOM      7  C   UNL     1       9.042   1.721  -3.238  0.00  0.00    +0.000 A 
ATOM      8  C   UNL     1       8.180   2.811  -3.468  0.00  0.00    +0.000 A 
ATOM      9  C   UNL     1       6.810   2.730  -3.184  0.00  0.00    +0.000 A 
BRANCH   4  10
ATOM     10  O   UNL     1       4.917   1.585  -2.411  0.00  0.00    +0.000 OA
BRANCH  10  11
ATOM     11  C   UNL     1       4.372   0.349  -1.934  0.00  0.00    +0.000 C 
BRANCH  11  12
ATOM     12  C   UNL     1       2.861   0.492  -1.723  0.00  0.00    +0.000 C 
BRANCH  12  14
ATOM     13  C   UNL     1       0.787  -0.480  -0.993  0.00  0.00    +0.000 C 
ATOM     14  N   UNL     1       2.215  -0.730  -1.199  0.00  0.00    +0.000 NA
ATOM     15  C   UNL     1       2.392  -1.881  -2.086  0.00  0.00    +0.000 C 
ENDBRANCH  12  14
ENDBRANCH  11  12
ENDBRANCH  10  11
ENDBRANCH   4  10
ENDBRANCH   1   7
BRANCH   1  16
ATOM     16  C   UNL     1      11.366   0.551  -3.163  0.00  0.00    +0.000 C 
BRANCH  16  17
ATOM     17  O   UNL     1      10.992  -0.538  -4.019  0.00  0.00    +0.000 OA
BRANCH  17  18
ATOM     18  C   UNL     1      11.474  -1.777  -3.695  0.00  0.00    +0.000 A 
ATOM     19  C   UNL     1      12.489  -2.031  -2.774  0.00  0.00    +0.000 A 
ATOM     20  C   UNL     1      12.914  -3.339  -2.548  0.00  0.00    +0.000 A 
ATOM     21  C   UNL     1      12.315  -4.397  -3.232  0.00  0.00    +0.000 A 
ATOM     22  C   UNL     1      11.280  -4.159  -4.147  0.00  0.00    +0.000 A 
ATOM     23  C   UNL     1      10.873  -2.840  -4.382  0.00  0.00    +0.000 A 
BRANCH  22  24
ATOM     24  C   UNL     1      10.658  -5.342  -4.809  0.00  0.00    +0.000 C 
ATOM     25  N   UNL     1       9.626  -5.145  -5.681  0.00  0.00    +0.000 N 
ATOM     26  O   UNL     1      11.048  -6.483  -4.577  0.00  0.00    +0.000 OA
ATOM     27  H   UNL     1       9.233  -4.250  -5.928  0.00  0.00    +0.000 HD
ATOM     28  H   UNL     1       9.220  -5.972  -6.098  0.00  0.00    +0.000 HD
ENDBRANCH  22  24
ENDBRANCH  17  18
ENDBRANCH  16  17
ENDBRANCH   1  16
TORSDOF 9
