REMARK  Name = 
REMARK  10 active torsions:
REMARK  status: ('A' for Active; 'I' for Inactive)
REMARK    1  A    between atoms: C_1  and  C_2
REMARK    2  A    between atoms: C_2  and  C_3
REMARK    3  A    between atoms: C_2  and  C_4
REMARK    4  A    between atoms: C_2  and  C_16
REMARK    5  A    between atoms: C_4  and  N_5
REMARK    6  A    between atoms: N_5  and  C_6
REMARK    7  A    between atoms: C_9  and  C_10
REMARK    8  A    between atoms: N_21  and  C_22
REMARK    9  A    between atoms: C_24  and  C_25
REMARK   10  A    between atoms: C_24  and  C_26
REMARK                            x       y       z     vdW  Elec       q    Type
REMARK                         _______ _______ _______ _____ _____    ______ ____
ROOT
ATOM      1  C   UNL     1       1.040   0.040  -0.029  0.00  0.00    +0.000 C 
ATOM      2  C   UNL     1       2.585  -0.003  -0.049  0.00  0.00    +0.000 C 
ATOM      3  C   UNL     1       3.082   0.443   1.347  0.00  0.00    +0.000 C 
ENDROOT
BRANCH   2   4
ATOM      4  C   UNL     1       3.197   0.940  -1.107  0.00  0.00    +0.000 A 
ATOM      5  C   UNL     1       2.445   1.731  -1.978  0.00  0.00    +0.000 A 
ATOM      6  C   UNL     1       3.109   2.571  -2.861  0.00  0.00    +0.000 A 
ATOM      7  N   UNL     1       4.454   2.675  -2.949  0.00  0.00    +0.000 NA
ATOM      8  C   UNL     1       5.188   1.903  -2.130  0.00  0.00    +0.000 A 
ATOM      9  N   UNL     1       6.579   2.030  -2.215  0.00  0.00    +0.000 N 
ATOM     10  C   UNL     1       4.596   1.043  -1.213  0.00  0.00    +0.000 A 
ATOM     11  H   UNL     1       6.788   2.656  -2.990  0.00  0.00    +0.000 HD
BRANCH   9  12
ATOM     12  C   UNL     1       7.484   0.921  -1.915  0.00  0.00    +0.000 C 
ATOM     13  C   UNL     1       8.967   1.171  -1.967  0.00  0.00    +0.000 C 
ATOM     14  C   UNL     1       8.313   0.861  -0.642  0.00  0.00    +0.000 C 
ATOM     15  C   UNL     1       8.156   1.967   0.369  0.00  0.00    +0.000 C 
ATOM     16  C   UNL     1       8.647  -0.475  -0.030  0.00  0.00    +0.000 C 
ENDBRANCH   9  12
ENDBRANCH   2   4
BRANCH   2  17
ATOM     17  C   UNL     1       3.068  -1.457  -0.356  0.00  0.00    +0.000 C 
BRANCH  17  18
ATOM     18  N   UNL     1       2.639  -2.431   0.656  0.00  0.00    +0.000 N 
ATOM     19  H   UNL     1       1.643  -2.377   0.854  0.00  0.00    +0.000 HD
BRANCH  18  20
ATOM     20  C   UNL     1       3.039  -3.764   0.489  0.00  0.00    +0.000 A 
ATOM     21  C   UNL     1       4.259  -4.135  -0.095  0.00  0.00    +0.000 A 
ATOM     22  C   UNL     1       4.636  -5.477  -0.200  0.00  0.00    +0.000 A 
ATOM     23  C   UNL     1       3.812  -6.485   0.307  0.00  0.00    +0.000 A 
ATOM     24  C   UNL     1       2.625  -6.118   0.939  0.00  0.00    +0.000 A 
ATOM     25  F   UNL     1       1.802  -7.040   1.464  0.00  0.00    +0.000 F 
ATOM     26  C   UNL     1       2.250  -4.777   1.046  0.00  0.00    +0.000 A 
BRANCH  23  27
ATOM     27  C   UNL     1       4.251  -7.894   0.152  0.00  0.00    +0.000 C 
ATOM     28  N   UNL     1       3.441  -8.876   0.641  0.00  0.00    +0.000 N 
ATOM     29  O   UNL     1       5.306  -8.176  -0.403  0.00  0.00    +0.000 OA
ATOM     30  H   UNL     1       2.565  -8.685   1.111  0.00  0.00    +0.000 HD
ATOM     31  H   UNL     1       3.742  -9.835   0.536  0.00  0.00    +0.000 HD
ENDBRANCH  23  27
ENDBRANCH  18  20
ENDBRANCH  17  18
ENDBRANCH   2  17
TORSDOF 6
