REMARK  Name = 
REMARK  11 active torsions:
REMARK  status: ('A' for Active; 'I' for Inactive)
REMARK    1  A    between atoms: C_1  and  C_2
REMARK    2  A    between atoms: C_2  and  O_3
REMARK    3  A    between atoms: C_5  and  C_6
REMARK    4  A    between atoms: C_6  and  O_7
REMARK    5  A    between atoms: N_9  and  C_10
REMARK    6  A    between atoms: C_12  and  C_13
REMARK    7  A    between atoms: C_13  and  C_14
REMARK    8  A    between atoms: C_14  and  N_15
REMARK    9  A    between atoms: N_15  and  C_16
REMARK   10  A    between atoms: C_19  and  C_20
REMARK   11  A    between atoms: C_26  and  C_27
REMARK                            x       y       z     vdW  Elec       q    Type
REMARK                         _______ _______ _______ _____ _____    ______ ____
ROOT
ATOM      1  C   UNL     1       1.794  -2.684  -1.979  0.00  0.00    +0.000 A 
ATOM      2  C   UNL     1       2.257  -3.653  -2.887  0.00  0.00    +0.000 A 
ATOM      3  C   UNL     1       1.569  -4.856  -3.123  0.00  0.00    +0.000 A 
ATOM      4  C   UNL     1       0.363  -5.070  -2.442  0.00  0.00    +0.000 A 
ATOM      5  C   UNL     1      -0.133  -4.134  -1.531  0.00  0.00    +0.000 A 
ATOM      6  C   UNL     1       0.585  -2.950  -1.322  0.00  0.00    +0.000 A 
ENDROOT
BRANCH   1  12
ATOM      7  C   UNL     1       5.375   0.374  -3.353  0.00  0.00    +0.000 C 
ATOM      8  C   UNL     1       4.701  -0.582  -2.366  0.00  0.00    +0.000 C 
ATOM      9  C   UNL     1       4.816  -0.037  -0.926  0.00  0.00    +0.000 C 
ATOM     10  C   UNL     1       3.927  -0.752   0.122  0.00  0.00    +0.000 C 
ATOM     11  C   UNL     1       2.491  -0.891  -0.400  0.00  0.00    +0.000 C 
ATOM     12  N   UNL     1       2.531  -1.549  -1.706  0.00  0.00    +0.000 N 
ATOM     13  C   UNL     1       3.221  -0.797  -2.767  0.00  0.00    +0.000 C 
BRANCH   8  14
ATOM     14  O   UNL     1       5.413  -1.819  -2.472  0.00  0.00    +0.000 OA
ATOM     15  H   UNL     1       4.863  -2.493  -2.039  0.00  0.00    +0.000 HD
ENDBRANCH   8  14
BRANCH  10  16
ATOM     16  C   UNL     1       4.446  -2.117   0.601  0.00  0.00    +0.000 C 
BRANCH  16  17
ATOM     17  O   UNL     1       5.773  -2.019   1.097  0.00  0.00    +0.000 OA
ATOM     18  H   UNL     1       5.755  -1.446   1.881  0.00  0.00    +0.000 HD
ENDBRANCH  16  17
ENDBRANCH  10  16
ENDBRANCH   1  12
BRANCH   5  19
ATOM     19  C   UNL     1      -1.404  -4.396  -0.764  0.00  0.00    +0.000 C 
ATOM     20  F   UNL     1      -1.974  -5.600  -1.057  0.00  0.00    +0.000 F 
ATOM     21  F   UNL     1      -1.202  -4.400   0.582  0.00  0.00    +0.000 F 
ATOM     22  F   UNL     1      -2.365  -3.461  -0.998  0.00  0.00    +0.000 F 
ENDBRANCH   5  19
BRANCH   3  23
ATOM     23  C   UNL     1       2.181  -5.885  -4.064  0.00  0.00    +0.000 C 
BRANCH  23  24
ATOM     24  C   UNL     1       1.300  -7.123  -4.255  0.00  0.00    +0.000 C 
BRANCH  24  25
ATOM     25  N   UNL     1       1.891  -8.147  -5.119  0.00  0.00    +0.000 N 
ATOM     26  H   UNL     1       2.841  -8.390  -4.839  0.00  0.00    +0.000 HD
BRANCH  25  27
ATOM     27  C   UNL     1       1.092  -9.301  -5.279  0.00  0.00    +0.000 A 
ATOM     28  C   UNL     1      -0.309  -9.267  -5.283  0.00  0.00    +0.000 A 
ATOM     29  C   UNL     1      -1.055 -10.420  -5.508  0.00  0.00    +0.000 A 
ATOM     30  C   UNL     1      -0.375 -11.597  -5.765  0.00  0.00    +0.000 A 
ATOM     31  N   UNL     1       0.983 -11.692  -5.811  0.00  0.00    +0.000 NA
ATOM     32  C   UNL     1       1.668 -10.541  -5.584  0.00  0.00    +0.000 A 
BRANCH  30  33
ATOM     33  C   UNL     1      -1.157 -12.843  -6.038  0.00  0.00    +0.000 C 
ATOM     34  N   UNL     1      -0.412 -13.958  -6.307  0.00  0.00    +0.000 N 
ATOM     35  O   UNL     1      -2.381 -12.872  -6.032  0.00  0.00    +0.000 OA
ATOM     36  H   UNL     1       0.599 -13.887  -6.333  0.00  0.00    +0.000 HD
ATOM     37  H   UNL     1      -0.878 -14.823  -6.535  0.00  0.00    +0.000 HD
ENDBRANCH  30  33
ENDBRANCH  25  27
ENDBRANCH  24  25
ENDBRANCH  23  24
ENDBRANCH   3  23
TORSDOF 10
