REMARK  Name = 
REMARK  4 active torsions:
REMARK  status: ('A' for Active; 'I' for Inactive)
REMARK    1  A    between atoms: C_2  and  C_4
REMARK    2  A    between atoms: C_7  and  N_8
REMARK    3  A    between atoms: N_8  and  C_9
REMARK    4  A    between atoms: C_9  and  C_10
REMARK                            x       y       z     vdW  Elec       q    Type
REMARK                         _______ _______ _______ _____ _____    ______ ____
ROOT
ATOM      1  C   UNL     1       5.196  -2.363  -0.193  0.00  0.00    +0.000 A 
ATOM      2  C   UNL     1       4.147  -3.073   0.369  0.00  0.00    +0.000 A 
ATOM      3  N   UNL     1       4.087  -3.370   1.696  0.00  0.00    +0.000 NA
ATOM      4  C   UNL     1       5.112  -2.929   2.453  0.00  0.00    +0.000 A 
ATOM      5  C   UNL     1       6.141  -2.171   1.875  0.00  0.00    +0.000 A 
ATOM      6  N   UNL     1       6.230  -1.880   0.549  0.00  0.00    +0.000 NA
ENDROOT
BRANCH   1   8
ATOM      7  N   UNL     1       6.347  -1.521  -2.162  0.00  0.00    +0.000 N 
ATOM      8  C   UNL     1       5.232  -2.138  -1.664  0.00  0.00    +0.000 C 
ATOM      9  O   UNL     1       4.320  -2.502  -2.399  0.00  0.00    +0.000 OA
ATOM     10  H   UNL     1       6.432  -1.399  -3.160  0.00  0.00    +0.000 HD
ATOM     11  H   UNL     1       7.132  -1.313  -1.554  0.00  0.00    +0.000 HD
ENDBRANCH   1   8
BRANCH   4  12
ATOM     12  N   UNL     1       5.174  -3.235   3.817  0.00  0.00    +0.000 N 
ATOM     13  H   UNL     1       4.877  -2.438   4.371  0.00  0.00    +0.000 HD
BRANCH  12  14
ATOM     14  C   UNL     1       4.530  -4.491   4.200  0.00  0.00    +0.000 C 
BRANCH  14  15
ATOM     15  C   UNL     1       5.262  -5.084   5.425  0.00  0.00    +0.000 C 
ATOM     16  C   UNL     1       6.751  -5.328   5.103  0.00  0.00    +0.000 C 
ATOM     17  C   UNL     1       7.494  -6.000   6.252  0.00  0.00    +0.000 C 
ATOM     18  C   UNL     1       6.816  -7.298   6.671  0.00  0.00    +0.000 C 
ATOM     19  C   UNL     1       5.352  -7.063   7.026  0.00  0.00    +0.000 C 
ATOM     20  C   UNL     1       4.593  -6.394   5.879  0.00  0.00    +0.000 C 
ENDBRANCH  14  15
ENDBRANCH  12  14
ENDBRANCH   4  12
TORSDOF 4
