REMARK  Name = 
REMARK  7 active torsions:
REMARK  status: ('A' for Active; 'I' for Inactive)
REMARK    1  A    between atoms: C_1  and  C_2
REMARK    2  A    between atoms: C_2  and  C_3
REMARK    3  A    between atoms: N_5  and  C_6
REMARK    4  A    between atoms: C_10  and  C_11
REMARK    5  A    between atoms: C_11  and  N_12
REMARK    6  A    between atoms: N_12  and  C_13
REMARK    7  A    between atoms: C_16  and  C_17
REMARK                            x       y       z     vdW  Elec       q    Type
REMARK                         _______ _______ _______ _____ _____    ______ ____
ROOT
ATOM      1  C   UNL     1       1.895   1.348  -3.205  0.00  0.00    +0.000 A 
ATOM      2  C   UNL     1       2.294   2.646  -3.557  0.00  0.00    +0.000 A 
ATOM      3  C   UNL     1       1.519   3.442  -4.406  0.00  0.00    +0.000 A 
ATOM      4  C   UNL     1       0.326   2.952  -4.941  0.00  0.00    +0.000 A 
ATOM      5  C   UNL     1      -0.104   1.661  -4.624  0.00  0.00    +0.000 A 
ATOM      6  C   UNL     1       0.689   0.887  -3.757  0.00  0.00    +0.000 A 
ENDROOT
BRANCH   1  11
ATOM      7  C   UNL     1       2.094  -2.386  -3.165  0.00  0.00    +0.000 C 
ATOM      8  C   UNL     1       2.644  -1.875  -1.820  0.00  0.00    +0.000 C 
ATOM      9  C   UNL     1       2.190  -2.854  -0.721  0.00  0.00    +0.000 C 
ATOM     10  C   UNL     1       2.073  -0.460  -1.489  0.00  0.00    +0.000 C 
ATOM     11  N   UNL     1       2.659   0.578  -2.349  0.00  0.00    +0.000 N 
ATOM     12  C   UNL     1       4.127   0.581  -2.432  0.00  0.00    +0.000 C 
ATOM     13  C   UNL     1       4.666  -0.840  -2.720  0.00  0.00    +0.000 C 
ATOM     14  N   UNL     1       4.134  -1.889  -1.825  0.00  0.00    +0.000 NA
ATOM     15  H   UNL     1       4.449  -1.666  -0.880  0.00  0.00    +0.000 HD
ENDBRANCH   1  11
BRANCH   5  16
ATOM     16  C   UNL     1      -1.387   1.078  -5.192  0.00  0.00    +0.000 C 
BRANCH  16  17
ATOM     17  N   UNL     1      -1.130   0.402  -6.456  0.00  0.00    +0.000 N 
ATOM     18  H   UNL     1      -0.368   0.800  -6.997  0.00  0.00    +0.000 HD
BRANCH  17  19
ATOM     19  C   UNL     1      -2.127  -0.202  -7.213  0.00  0.00    +0.000 A 
ATOM     20  C   UNL     1      -3.464  -0.317  -6.823  0.00  0.00    +0.000 A 
ATOM     21  C   UNL     1      -4.392  -1.039  -7.592  0.00  0.00    +0.000 A 
ATOM     22  C   UNL     1      -3.999  -1.695  -8.760  0.00  0.00    +0.000 A 
ATOM     23  C   UNL     1      -2.662  -1.603  -9.165  0.00  0.00    +0.000 A 
ATOM     24  C   UNL     1      -1.748  -0.870  -8.389  0.00  0.00    +0.000 A 
BRANCH  22  25
ATOM     25  C   UNL     1      -5.001  -2.504  -9.498  0.00  0.00    +0.000 C 
ATOM     26  N   UNL     1      -4.812  -2.693 -10.839  0.00  0.00    +0.000 N 
ATOM     27  O   UNL     1      -5.975  -2.983  -8.931  0.00  0.00    +0.000 OA
ATOM     28  H   UNL     1      -4.089  -2.244 -11.378  0.00  0.00    +0.000 HD
ATOM     29  H   UNL     1      -5.527  -3.212 -11.330  0.00  0.00    +0.000 HD
ENDBRANCH  22  25
ENDBRANCH  17  19
ENDBRANCH  16  17
ENDBRANCH   5  16
TORSDOF 5
