REMARK  Name = 
REMARK  4 active torsions:
REMARK  status: ('A' for Active; 'I' for Inactive)
REMARK    1  A    between atoms: C_2  and  C_4
REMARK    2  A    between atoms: N_8  and  C_9
REMARK    3  A    between atoms: C_9  and  C_10
REMARK    4  A    between atoms: C_15  and  C_16
REMARK                            x       y       z     vdW  Elec       q    Type
REMARK                         _______ _______ _______ _____ _____    ______ ____
ROOT
ATOM      1  C   UNL     1       5.143  -5.496  -2.287  0.00  0.00    +0.000 C 
ATOM      2  C   UNL     1       5.242  -5.307  -3.796  0.00  0.00    +0.000 C 
ATOM      3  C   UNL     1       3.939  -5.702  -3.187  0.00  0.00    +0.000 C 
ENDROOT
BRANCH   1   8
ATOM      4  C   UNL     1       3.250  -2.913   1.820  0.00  0.00    +0.000 A 
ATOM      5  C   UNL     1       2.545  -3.586   0.824  0.00  0.00    +0.000 A 
ATOM      6  C   UNL     1       3.236  -4.087  -0.282  0.00  0.00    +0.000 A 
ATOM      7  C   UNL     1       4.610  -3.899  -0.381  0.00  0.00    +0.000 A 
ATOM      8  N   UNL     1       5.360  -4.269  -1.501  0.00  0.00    +0.000 N 
ATOM      9  N   UNL     1       5.303  -3.250   0.579  0.00  0.00    +0.000 NA
ATOM     10  C   UNL     1       4.617  -2.770   1.649  0.00  0.00    +0.000 A 
ATOM     11  H   UNL     1       6.328  -4.066  -1.254  0.00  0.00    +0.000 HD
BRANCH   4  13
ATOM     12  N   UNL     1       1.410  -2.843   3.409  0.00  0.00    +0.000 N 
ATOM     13  C   UNL     1       2.608  -2.317   3.007  0.00  0.00    +0.000 C 
ATOM     14  O   UNL     1       3.135  -1.405   3.632  0.00  0.00    +0.000 OA
ATOM     15  H   UNL     1       1.028  -2.485   4.276  0.00  0.00    +0.000 HD
ATOM     16  H   UNL     1       1.066  -3.734   3.081  0.00  0.00    +0.000 HD
ENDBRANCH   4  13
ENDBRANCH   1   8
BRANCH   1  17
ATOM     17  C   UNL     1       5.784  -6.733  -1.660  0.00  0.00    +0.000 A 
ATOM     18  C   UNL     1       7.089  -7.137  -1.978  0.00  0.00    +0.000 A 
ATOM     19  C   UNL     1       7.677  -8.233  -1.347  0.00  0.00    +0.000 A 
ATOM     20  C   UNL     1       6.969  -8.938  -0.376  0.00  0.00    +0.000 A 
ATOM     21  F   UNL     1       7.586  -9.978   0.206  0.00  0.00    +0.000 F 
ATOM     22  C   UNL     1       5.664  -8.582  -0.005  0.00  0.00    +0.000 A 
ATOM     23  C   UNL     1       5.097  -7.478  -0.678  0.00  0.00    +0.000 A 
BRANCH  22  24
ATOM     24  C   UNL     1       4.917  -9.281   1.064  0.00  0.00    +0.000 A 
ATOM     25  C   UNL     1       5.541  -9.774   2.218  0.00  0.00    +0.000 A 
ATOM     26  C   UNL     1       4.798 -10.386   3.228  0.00  0.00    +0.000 A 
ATOM     27  C   UNL     1       3.429 -10.487   3.067  0.00  0.00    +0.000 A 
ATOM     28  N   UNL     1       2.773 -10.036   1.979  0.00  0.00    +0.000 NA
ATOM     29  C   UNL     1       3.531  -9.459   1.012  0.00  0.00    +0.000 A 
ENDBRANCH  22  24
ENDBRANCH   1  17
TORSDOF 4
