REMARK  Name = 
REMARK  3 active torsions:
REMARK  status: ('A' for Active; 'I' for Inactive)
REMARK    1  A    between atoms: C_2  and  C_4
REMARK    2  A    between atoms: N_8  and  C_9
REMARK    3  A    between atoms: C_9  and  C_10
REMARK                            x       y       z     vdW  Elec       q    Type
REMARK                         _______ _______ _______ _____ _____    ______ ____
ROOT
ATOM      1  C   UNL     1       8.353   2.664  -1.105  0.00  0.00    +0.000 A 
ATOM      2  C   UNL     1       8.502   3.395  -2.276  0.00  0.00    +0.000 A 
ATOM      3  C   UNL     1       7.462   3.399  -3.204  0.00  0.00    +0.000 A 
ATOM      4  C   UNL     1       6.291   2.690  -2.954  0.00  0.00    +0.000 A 
ATOM      5  N   UNL     1       5.214   2.664  -3.846  0.00  0.00    +0.000 N 
ATOM      6  N   UNL     1       6.148   1.959  -1.826  0.00  0.00    +0.000 NA
ATOM      7  C   UNL     1       7.176   1.950  -0.938  0.00  0.00    +0.000 A 
ATOM      8  H   UNL     1       4.441   2.176  -3.403  0.00  0.00    +0.000 HD
ENDROOT
BRANCH   1  10
ATOM      9  N   UNL     1      10.231   3.692   0.035  0.00  0.00    +0.000 N 
ATOM     10  C   UNL     1       9.398   2.614  -0.066  0.00  0.00    +0.000 C 
ATOM     11  O   UNL     1       9.493   1.661   0.700  0.00  0.00    +0.000 OA
ATOM     12  H   UNL     1      10.880   3.689   0.813  0.00  0.00    +0.000 HD
ATOM     13  H   UNL     1      10.024   4.583  -0.395  0.00  0.00    +0.000 HD
ENDBRANCH   1  10
BRANCH   5  14
ATOM     14  C   UNL     1       4.954   3.700  -4.855  0.00  0.00    +0.000 C 
ATOM     15  C   UNL     1       4.746   5.136  -4.402  0.00  0.00    +0.000 C 
ATOM     16  C   UNL     1       3.574   4.351  -4.888  0.00  0.00    +0.000 C 
BRANCH  14  17
ATOM     17  C   UNL     1       5.577   3.440  -6.227  0.00  0.00    +0.000 A 
ATOM     18  C   UNL     1       5.009   2.521  -7.129  0.00  0.00    +0.000 A 
ATOM     19  C   UNL     1       5.506   2.372  -8.431  0.00  0.00    +0.000 A 
ATOM     20  C   UNL     1       6.602   3.124  -8.841  0.00  0.00    +0.000 A 
ATOM     21 CL   UNL     1       7.179   3.001 -10.456  0.00  0.00    +0.000 Cl
ATOM     22  C   UNL     1       7.220   4.000  -7.957  0.00  0.00    +0.000 A 
ATOM     23  C   UNL     1       6.703   4.158  -6.672  0.00  0.00    +0.000 A 
ENDBRANCH  14  17
ENDBRANCH   5  14
TORSDOF 3
