REMARK  Name = 
REMARK  6 active torsions:
REMARK  status: ('A' for Active; 'I' for Inactive)
REMARK    1  A    between atoms: C_2  and  C_19
REMARK    2  A    between atoms: N_3  and  C_4
REMARK    3  A    between atoms: C_4  and  C_5
REMARK    4  A    between atoms: C_8  and  C_9
REMARK    5  A    between atoms: C_9  and  O_10
REMARK    6  A    between atoms: O_10  and  C_11
REMARK                            x       y       z     vdW  Elec       q    Type
REMARK                         _______ _______ _______ _____ _____    ______ ____
ROOT
ATOM      1  O   UNL     1       0.743  -0.723  -1.889  0.00  0.00    +0.000 OA
ATOM      2  C   UNL     1       0.826   0.044  -2.837  0.00  0.00    +0.000 C 
ATOM      3  N   UNL     1       1.505   1.238  -2.831  0.00  0.00    +0.000 N 
ATOM      4  H   UNL     1       1.614   1.728  -3.705  0.00  0.00    +0.000 HD
ENDROOT
BRANCH   2   5
ATOM      5  C   UNL     1       0.383  -0.289  -4.186  0.00  0.00    +0.000 A 
ATOM      6  C   UNL     1       0.585  -1.535  -4.752  0.00  0.00    +0.000 A 
ATOM      7  S   UNL     1       0.505  -1.469  -6.467  0.00  0.00    +0.000 S 
ATOM      8  C   UNL     1       0.075   0.182  -6.443  0.00  0.00    +0.000 A 
ATOM      9  N   UNL     1      -0.003   0.938  -7.571  0.00  0.00    +0.000 NA
ATOM     10  C   UNL     1      -0.374   2.160  -7.364  0.00  0.00    +0.000 A 
ATOM     11  N   UNL     1      -0.732   2.680  -6.143  0.00  0.00    +0.000 N 
ATOM     12  C   UNL     1      -0.698   1.946  -4.983  0.00  0.00    +0.000 A 
ATOM     13  O   UNL     1      -1.108   2.393  -3.919  0.00  0.00    +0.000 OA
ATOM     14  C   UNL     1      -0.149   0.619  -5.157  0.00  0.00    +0.000 A 
ATOM     15  H   UNL     1      -1.099   3.617  -6.064  0.00  0.00    +0.000 HD
ENDBRANCH   2   5
BRANCH   3  16
ATOM     16  C   UNL     1       2.381   1.673  -1.778  0.00  0.00    +0.000 C 
BRANCH  16  17
ATOM     17  C   UNL     1       3.336   2.693  -2.357  0.00  0.00    +0.000 A 
ATOM     18  C   UNL     1       3.023   4.059  -2.353  0.00  0.00    +0.000 A 
ATOM     19  C   UNL     1       3.867   4.984  -2.977  0.00  0.00    +0.000 A 
ATOM     20  C   UNL     1       5.022   4.560  -3.646  0.00  0.00    +0.000 A 
ATOM     21  C   UNL     1       5.335   3.194  -3.652  0.00  0.00    +0.000 A 
ATOM     22  C   UNL     1       4.495   2.270  -3.024  0.00  0.00    +0.000 A 
BRANCH  20  23
ATOM     23  C   UNL     1       5.925   5.551  -4.348  0.00  0.00    +0.000 C 
BRANCH  23  24
ATOM     24  O   UNL     1       6.893   6.034  -3.424  0.00  0.00    +0.000 OA
BRANCH  24  25
ATOM     25  C   UNL     1       7.661   7.032  -3.985  0.00  0.00    +0.000 A 
ATOM     26  N   UNL     1       8.188   7.902  -3.112  0.00  0.00    +0.000 NA
ATOM     27  C   UNL     1       8.932   8.892  -3.642  0.00  0.00    +0.000 A 
ATOM     28  C   UNL     1       9.170   9.028  -4.993  0.00  0.00    +0.000 A 
ATOM     29  C   UNL     1       8.598   8.068  -5.789  0.00  0.00    +0.000 A 
ATOM     30  N   UNL     1       7.837   7.062  -5.318  0.00  0.00    +0.000 NA
ENDBRANCH  24  25
ENDBRANCH  23  24
ENDBRANCH  20  23
ENDBRANCH  16  17
ENDBRANCH   3  16
TORSDOF 6
