REMARK  Name = 
REMARK  6 active torsions:
REMARK  status: ('A' for Active; 'I' for Inactive)
REMARK    1  A    between atoms: C_1  and  C_2
REMARK    2  A    between atoms: C_2  and  N_3
REMARK    3  A    between atoms: C_2  and  C_16
REMARK    4  A    between atoms: C_4  and  C_6
REMARK    5  A    between atoms: C_19  and  O_20
REMARK    6  A    between atoms: O_20  and  C_21
REMARK                            x       y       z     vdW  Elec       q    Type
REMARK                         _______ _______ _______ _____ _____    ______ ____
ROOT
ATOM      1  C   UNL     1       2.904  -1.392  -0.579  0.00  0.00    +0.000 C 
ATOM      2  C   UNL     1       2.478  -0.070   0.064  0.00  0.00    +0.000 C 
ENDROOT
BRANCH   2   3
ATOM      3  C   UNL     1       2.931   1.179  -0.673  0.00  0.00    +0.000 A 
ATOM      4  C   UNL     1       3.110   2.357   0.069  0.00  0.00    +0.000 A 
ATOM      5  C   UNL     1       3.512   3.542  -0.547  0.00  0.00    +0.000 A 
ATOM      6  C   UNL     1       3.778   3.564  -1.917  0.00  0.00    +0.000 A 
ATOM      7  C   UNL     1       3.546   2.420  -2.679  0.00  0.00    +0.000 A 
ATOM      8  C   UNL     1       3.121   1.236  -2.063  0.00  0.00    +0.000 A 
BRANCH   6   9
ATOM      9  O   UNL     1       4.190   4.692  -2.590  0.00  0.00    +0.000 OA
BRANCH   9  10
ATOM     10  C   UNL     1       5.101   5.526  -1.955  0.00  0.00    +0.000 A 
ATOM     11  C   UNL     1       5.097   6.869  -2.303  0.00  0.00    +0.000 A 
ATOM     12  N   UNL     1       5.924   7.777  -1.724  0.00  0.00    +0.000 NA
ATOM     13  C   UNL     1       6.761   7.274  -0.787  0.00  0.00    +0.000 A 
ATOM     14  C   UNL     1       6.785   5.929  -0.457  0.00  0.00    +0.000 A 
ATOM     15  N   UNL     1       5.969   5.025  -1.042  0.00  0.00    +0.000 NA
ENDBRANCH   9  10
ENDBRANCH   6   9
ENDBRANCH   2   3
BRANCH   2  16
ATOM     16  N   UNL     1       1.038  -0.021   0.219  0.00  0.00    +0.000 N 
ATOM     17  C   UNL     1       0.386  -0.612   1.268  0.00  0.00    +0.000 C 
ATOM     18  O   UNL     1       0.979  -1.139   2.205  0.00  0.00    +0.000 OA
ATOM     19  H   UNL     1       0.512   0.271  -0.596  0.00  0.00    +0.000 HD
BRANCH  17  20
ATOM     20  C   UNL     1      -1.077  -0.530   1.239  0.00  0.00    +0.000 A 
ATOM     21  C   UNL     1      -1.798  -0.546   2.424  0.00  0.00    +0.000 A 
ATOM     22  S   UNL     1      -3.484  -0.427   2.197  0.00  0.00    +0.000 S 
ATOM     23  C   UNL     1      -3.310  -0.405   0.504  0.00  0.00    +0.000 A 
ATOM     24  N   UNL     1      -4.397  -0.354  -0.311  0.00  0.00    +0.000 NA
ATOM     25  C   UNL     1      -4.122  -0.388  -1.572  0.00  0.00    +0.000 A 
ATOM     26  N   UNL     1      -2.853  -0.454  -2.092  0.00  0.00    +0.000 N 
ATOM     27  C   UNL     1      -1.723  -0.449  -1.309  0.00  0.00    +0.000 A 
ATOM     28  O   UNL     1      -0.604  -0.410  -1.811  0.00  0.00    +0.000 OA
ATOM     29  C   UNL     1      -1.982  -0.454   0.118  0.00  0.00    +0.000 A 
ATOM     30  H   UNL     1      -2.703  -0.454  -3.091  0.00  0.00    +0.000 HD
ENDBRANCH  17  20
ENDBRANCH   2  16
TORSDOF 5
