REMARK  Name = 
REMARK  9 active torsions:
REMARK  status: ('A' for Active; 'I' for Inactive)
REMARK    1  A    between atoms: C_1  and  C_2
REMARK    2  A    between atoms: C_2  and  N_3
REMARK    3  A    between atoms: C_2  and  C_21
REMARK    4  A    between atoms: N_3  and  C_4
REMARK    5  A    between atoms: C_4  and  C_5
REMARK    6  A    between atoms: C_8  and  C_9
REMARK    7  A    between atoms: C_9  and  N_10
REMARK    8  A    between atoms: N_10  and  C_11
REMARK    9  A    between atoms: C_11  and  C_12
REMARK                            x       y       z     vdW  Elec       q    Type
REMARK                         _______ _______ _______ _____ _____    ______ ____
ROOT
ATOM      1  C   UNL     1      -1.046  -0.918  -1.074  0.00  0.00    +0.000 A 
ATOM      2  C   UNL     1      -1.678  -1.607  -2.119  0.00  0.00    +0.000 A 
ATOM      3  C   UNL     1      -3.045  -1.872  -2.066  0.00  0.00    +0.000 A 
ATOM      4  C   UNL     1      -3.805  -1.466  -0.960  0.00  0.00    +0.000 A 
ATOM      5  C   UNL     1      -3.173  -0.774   0.082  0.00  0.00    +0.000 A 
ATOM      6  C   UNL     1      -1.805  -0.502   0.025  0.00  0.00    +0.000 A 
ENDROOT
BRANCH   1   7
ATOM      7  C   UNL     1       0.455  -0.776  -1.061  0.00  0.00    +0.000 C 
BRANCH   7   8
ATOM      8  N   UNL     1       0.985  -0.130  -2.266  0.00  0.00    +0.000 NA
ATOM      9  H   UNL     1       0.620   0.821  -2.308  0.00  0.00    +0.000 HD
BRANCH   8  11
ATOM     10  C   UNL     1       3.045  -1.498  -2.166  0.00  0.00    +0.000 C 
ATOM     11  C   UNL     1       2.459  -0.072  -2.272  0.00  0.00    +0.000 C 
BRANCH  11  12
ATOM     12  C   UNL     1       2.894   0.611  -3.572  0.00  0.00    +0.000 A 
ATOM     13  C   UNL     1       2.615   0.088  -4.828  0.00  0.00    +0.000 A 
ATOM     14  S   UNL     1       3.340   0.938  -6.113  0.00  0.00    +0.000 S 
ATOM     15  C   UNL     1       3.967   2.115  -5.057  0.00  0.00    +0.000 A 
ATOM     16  N   UNL     1       4.688   3.165  -5.541  0.00  0.00    +0.000 NA
ATOM     17  C   UNL     1       5.051   4.017  -4.643  0.00  0.00    +0.000 A 
ATOM     18  N   UNL     1       4.765   3.912  -3.310  0.00  0.00    +0.000 N 
ATOM     19  C   UNL     1       4.034   2.871  -2.773  0.00  0.00    +0.000 A 
ATOM     20  O   UNL     1       3.740   2.842  -1.576  0.00  0.00    +0.000 OA
ATOM     21  C   UNL     1       3.622   1.863  -3.738  0.00  0.00    +0.000 A 
ATOM     22  H   UNL     1       5.047   4.640  -2.666  0.00  0.00    +0.000 HD
ENDBRANCH  11  12
ENDBRANCH   8  11
ENDBRANCH   7   8
ENDBRANCH   1   7
BRANCH   4  23
ATOM     23  C   UNL     1      -5.283  -1.762  -0.896  0.00  0.00    +0.000 C 
BRANCH  23  24
ATOM     24  N   UNL     1      -5.539  -3.203  -0.953  0.00  0.00    +0.000 NA
ATOM     25  H   UNL     1      -5.058  -3.647  -0.171  0.00  0.00    +0.000 HD
BRANCH  24  26
ATOM     26  C   UNL     1      -6.968  -3.480  -0.870  0.00  0.00    +0.000 C 
BRANCH  26  27
ATOM     27  C   UNL     1      -7.239  -4.968  -0.899  0.00  0.00    +0.000 A 
ATOM     28  C   UNL     1      -7.879  -5.589   0.178  0.00  0.00    +0.000 A 
ATOM     29  C   UNL     1      -8.140  -6.959   0.138  0.00  0.00    +0.000 A 
ATOM     30  N   UNL     1      -7.778  -7.733  -0.949  0.00  0.00    +0.000 N 
ATOM     31  O   UNL     1      -8.024  -8.977  -0.968  0.00  0.00    +0.000 OA
ATOM     32  C   UNL     1      -7.145  -7.117  -2.013  0.00  0.00    +0.000 A 
ATOM     33  C   UNL     1      -6.874  -5.747  -2.004  0.00  0.00    +0.000 A 
ENDBRANCH  26  27
ENDBRANCH  24  26
ENDBRANCH  23  24
ENDBRANCH   4  23
TORSDOF 8
