REMARK  Name = 
REMARK  11 active torsions:
REMARK  status: ('A' for Active; 'I' for Inactive)
REMARK    1  A    between atoms: C_1  and  O_2
REMARK    2  A    between atoms: O_2  and  C_3
REMARK    3  A    between atoms: C_8  and  C_9
REMARK    4  A    between atoms: C_9  and  N_10
REMARK    5  A    between atoms: N_10  and  C_11
REMARK    6  A    between atoms: C_11  and  C_12
REMARK    7  A    between atoms: C_15  and  C_16
REMARK    8  A    between atoms: C_16  and  N_17
REMARK    9  A    between atoms: C_18  and  C_20
REMARK   10  A    between atoms: C_27  and  O_28
REMARK   11  A    between atoms: O_28  and  C_29
REMARK                            x       y       z     vdW  Elec       q    Type
REMARK                         _______ _______ _______ _____ _____    ______ ____
ROOT
ATOM      1  C   UNL     1       2.570   4.067   1.299  0.00  0.00    +0.000 A 
ATOM      2  C   UNL     1       1.317   3.515   0.985  0.00  0.00    +0.000 A 
ATOM      3  C   UNL     1       0.261   4.322   0.552  0.00  0.00    +0.000 A 
ATOM      4  C   UNL     1       0.429   5.707   0.429  0.00  0.00    +0.000 A 
ATOM      5  C   UNL     1       1.661   6.269   0.790  0.00  0.00    +0.000 A 
ATOM      6  C   UNL     1       2.721   5.458   1.217  0.00  0.00    +0.000 A 
ENDROOT
BRANCH   1   7
ATOM      7  C   UNL     1       3.729   3.177   1.704  0.00  0.00    +0.000 C 
BRANCH   7   8
ATOM      8  N   UNL     1       4.089   2.270   0.616  0.00  0.00    +0.000 NA
ATOM      9  H   UNL     1       3.279   1.708   0.360  0.00  0.00    +0.000 HD
BRANCH   8  10
ATOM     10  C   UNL     1       5.168   1.349   0.985  0.00  0.00    +0.000 C 
BRANCH  10  16
ATOM     11  C   UNL     1       5.527  -0.956  -0.092  0.00  0.00    +0.000 A 
ATOM     12  C   UNL     1       5.915  -1.720  -1.203  0.00  0.00    +0.000 A 
ATOM     13  C   UNL     1       6.300  -1.103  -2.396  0.00  0.00    +0.000 A 
ATOM     14  C   UNL     1       6.299   0.283  -2.495  0.00  0.00    +0.000 A 
ATOM     15  C   UNL     1       5.922   1.052  -1.396  0.00  0.00    +0.000 A 
ATOM     16  C   UNL     1       5.530   0.449  -0.183  0.00  0.00    +0.000 A 
BRANCH  11  18
ATOM     17  C   UNL     1       5.395  -2.867   1.328  0.00  0.00    +0.000 C 
ATOM     18  O   UNL     1       5.098  -1.495   1.093  0.00  0.00    +0.000 OA
ENDBRANCH  11  18
ENDBRANCH  10  16
ENDBRANCH   8  10
ENDBRANCH   7   8
ENDBRANCH   1   7
BRANCH   4  19
ATOM     19  C   UNL     1      -0.704   6.575  -0.056  0.00  0.00    +0.000 C 
BRANCH  19  20
ATOM     20  N   UNL     1      -1.550   6.983   1.037  0.00  0.00    +0.000 N 
ATOM     21  C   UNL     1      -2.666   7.755   0.838  0.00  0.00    +0.000 C 
ATOM     22  O   UNL     1      -3.061   8.058  -0.285  0.00  0.00    +0.000 OA
ATOM     23  H   UNL     1      -1.179   6.881   1.971  0.00  0.00    +0.000 HD
BRANCH  21  24
ATOM     24  C   UNL     1      -3.406   8.148   2.045  0.00  0.00    +0.000 A 
ATOM     25  C   UNL     1      -4.760   8.441   1.954  0.00  0.00    +0.000 A 
ATOM     26  S   UNL     1      -5.480   8.794   3.456  0.00  0.00    +0.000 S 
ATOM     27  C   UNL     1      -3.995   8.625   4.264  0.00  0.00    +0.000 A 
ATOM     28  N   UNL     1      -3.930   8.811   5.593  0.00  0.00    +0.000 NA
ATOM     29  C   UNL     1      -2.694   8.673   6.073  0.00  0.00    +0.000 A 
ATOM     30  N   UNL     1      -1.583   8.390   5.383  0.00  0.00    +0.000 NA
ATOM     31  C   UNL     1      -1.696   8.214   4.053  0.00  0.00    +0.000 A 
ATOM     32  C   UNL     1      -2.944   8.305   3.415  0.00  0.00    +0.000 A 
BRANCH  31  33
ATOM     33  O   UNL     1      -0.563   7.950   3.312  0.00  0.00    +0.000 OA
ATOM     34  C   UNL     1       0.625   7.841   4.089  0.00  0.00    +0.000 C 
ENDBRANCH  31  33
ENDBRANCH  21  24
ENDBRANCH  19  20
ENDBRANCH   4  19
TORSDOF 9
