REMARK  Name = 
REMARK  9 active torsions:
REMARK  status: ('A' for Active; 'I' for Inactive)
REMARK    1  A    between atoms: C_1  and  C_2
REMARK    2  A    between atoms: C_2  and  C_3
REMARK    3  A    between atoms: C_2  and  N_4
REMARK    4  A    between atoms: N_4  and  C_5
REMARK    5  A    between atoms: C_5  and  C_6
REMARK    6  A    between atoms: C_9  and  C_10
REMARK    7  A    between atoms: C_10  and  O_11
REMARK    8  A    between atoms: O_11  and  C_12
REMARK    9  A    between atoms: C_15  and  C_16
REMARK                            x       y       z     vdW  Elec       q    Type
REMARK                         _______ _______ _______ _____ _____    ______ ____
ROOT
ATOM      1  C   UNL     1       5.960   4.576  -5.370  0.00  0.00    +0.000 C 
ENDROOT
BRANCH   1   5
ATOM      2  C   UNL     1       4.868   1.857  -2.201  0.00  0.00    +0.000 A 
ATOM      3  C   UNL     1       4.475   3.203  -2.152  0.00  0.00    +0.000 A 
ATOM      4  C   UNL     1       4.849   4.087  -3.162  0.00  0.00    +0.000 A 
ATOM      5  C   UNL     1       5.630   3.645  -4.236  0.00  0.00    +0.000 A 
ATOM      6  C   UNL     1       6.072   2.317  -4.259  0.00  0.00    +0.000 A 
ATOM      7  C   UNL     1       5.686   1.429  -3.255  0.00  0.00    +0.000 A 
BRANCH   2   8
ATOM      8  C   UNL     1       4.417   0.881  -1.140  0.00  0.00    +0.000 C 
BRANCH   8   9
ATOM      9  N   UNL     1       2.959   0.741  -1.136  0.00  0.00    +0.000 NA
ATOM     10  H   UNL     1       2.542   1.658  -0.990  0.00  0.00    +0.000 HD
BRANCH   9  12
ATOM     11  C   UNL     1       0.930  -0.173  -0.169  0.00  0.00    +0.000 C 
ATOM     12  C   UNL     1       2.461  -0.181  -0.110  0.00  0.00    +0.000 C 
ATOM     13  C   UNL     1       2.973  -1.607  -0.316  0.00  0.00    +0.000 C 
ENDBRANCH   9  12
ENDBRANCH   8   9
ENDBRANCH   2   8
ENDBRANCH   1   5
BRANCH   1  14
ATOM     14  O   UNL     1       7.159   5.292  -5.080  0.00  0.00    +0.000 OA
BRANCH  14  15
ATOM     15  C   UNL     1       7.552   6.186  -6.038  0.00  0.00    +0.000 A 
ATOM     16  C   UNL     1       6.911   6.416  -7.254  0.00  0.00    +0.000 A 
ATOM     17  C   UNL     1       7.425   7.361  -8.139  0.00  0.00    +0.000 A 
ATOM     18  C   UNL     1       8.574   8.049  -7.777  0.00  0.00    +0.000 A 
ATOM     19  N   UNL     1       9.233   7.856  -6.601  0.00  0.00    +0.000 NA
ATOM     20  C   UNL     1       8.701   6.928  -5.766  0.00  0.00    +0.000 A 
BRANCH  18  21
ATOM     21  C   UNL     1       9.138   9.066  -8.715  0.00  0.00    +0.000 C 
ATOM     22  N   UNL     1      10.271   9.698  -8.281  0.00  0.00    +0.000 N 
ATOM     23  O   UNL     1       8.633   9.324  -9.802  0.00  0.00    +0.000 OA
ATOM     24  H   UNL     1      10.664   9.458  -7.377  0.00  0.00    +0.000 HD
ATOM     25  H   UNL     1      10.709  10.397  -8.864  0.00  0.00    +0.000 HD
ENDBRANCH  18  21
ENDBRANCH  14  15
ENDBRANCH   1  14
TORSDOF 7
