REMARK  Name = 
REMARK  6 active torsions:
REMARK  status: ('A' for Active; 'I' for Inactive)
REMARK    1  A    between atoms: C_2  and  C_4
REMARK    2  A    between atoms: C_7  and  O_8
REMARK    3  A    between atoms: O_8  and  C_9
REMARK    4  A    between atoms: C_9  and  C_10
REMARK    5  A    between atoms: C_12  and  C_13
REMARK    6  A    between atoms: C_20  and  N_21
REMARK                            x       y       z     vdW  Elec       q    Type
REMARK                         _______ _______ _______ _____ _____    ______ ____
ROOT
ATOM      1  C   UNL     1       6.063   3.532   5.972  0.00  0.00    +0.000 A 
ATOM      2  C   UNL     1       5.992   4.935   6.002  0.00  0.00    +0.000 A 
ATOM      3  C   UNL     1       6.724   5.709   6.927  0.00  0.00    +0.000 A 
ATOM      4  C   UNL     1       7.557   5.023   7.829  0.00  0.00    +0.000 A 
ATOM      5  C   UNL     1       7.644   3.623   7.804  0.00  0.00    +0.000 A 
ATOM      6  C   UNL     1       6.900   2.877   6.884  0.00  0.00    +0.000 A 
ENDROOT
BRANCH   3   7
ATOM      7  C   UNL     1       6.590   7.181   6.968  0.00  0.00    +0.000 A 
ATOM      8  C   UNL     1       7.654   8.026   7.317  0.00  0.00    +0.000 A 
ATOM      9  C   UNL     1       7.480   9.410   7.361  0.00  0.00    +0.000 A 
ATOM     10  C   UNL     1       6.239   9.928   7.040  0.00  0.00    +0.000 A 
ATOM     11  N   UNL     1       5.184   9.167   6.694  0.00  0.00    +0.000 NA
ATOM     12  C   UNL     1       5.383   7.826   6.674  0.00  0.00    +0.000 A 
ENDBRANCH   3   7
BRANCH   5  13
ATOM     13  N   UNL     1       8.497   2.932   8.780  0.00  0.00    +0.000 N 
ATOM     14  O   UNL     1       9.089   3.623   9.620  0.00  0.00    +0.000 OA
ATOM     15  O   UNL     1       8.575   1.697   8.706  0.00  0.00    +0.000 OA
ENDBRANCH   5  13
BRANCH   1  16
ATOM     16  C   UNL     1       5.159   2.713   5.073  0.00  0.00    +0.000 C 
BRANCH  16  17
ATOM     17  O   UNL     1       4.807   3.424   3.881  0.00  0.00    +0.000 OA
BRANCH  17  21
ATOM     18  C   UNL     1       2.111   1.348   1.557  0.00  0.00    +0.000 A 
ATOM     19  C   UNL     1       2.541   2.612   1.149  0.00  0.00    +0.000 A 
ATOM     20  C   UNL     1       3.454   3.310   1.944  0.00  0.00    +0.000 A 
ATOM     21  C   UNL     1       3.904   2.713   3.114  0.00  0.00    +0.000 A 
ATOM     22  N   UNL     1       3.503   1.494   3.530  0.00  0.00    +0.000 NA
ATOM     23  C   UNL     1       2.606   0.843   2.752  0.00  0.00    +0.000 A 
BRANCH  18  25
ATOM     24  N   UNL     1       1.066   0.720  -0.547  0.00  0.00    +0.000 N 
ATOM     25  C   UNL     1       1.142   0.528   0.805  0.00  0.00    +0.000 C 
ATOM     26  O   UNL     1       0.458  -0.321   1.361  0.00  0.00    +0.000 OA
ATOM     27  H   UNL     1       0.480   0.068  -1.054  0.00  0.00    +0.000 HD
ATOM     28  H   UNL     1       1.779   1.208  -1.069  0.00  0.00    +0.000 HD
ENDBRANCH  18  25
ENDBRANCH  17  21
ENDBRANCH  16  17
ENDBRANCH   1  16
TORSDOF 6
