REMARK  Name = 
REMARK  7 active torsions:
REMARK  status: ('A' for Active; 'I' for Inactive)
REMARK    1  A    between atoms: C_2  and  C_3
REMARK    2  A    between atoms: C_7  and  S_8
REMARK    3  A    between atoms: S_8  and  C_9
REMARK    4  A    between atoms: C_9  and  C_10
REMARK    5  A    between atoms: C_10  and  C_11
REMARK    6  A    between atoms: C_15  and  O_16
REMARK    7  A    between atoms: O_16  and  C_17
REMARK                            x       y       z     vdW  Elec       q    Type
REMARK                         _______ _______ _______ _____ _____    ______ ____
ROOT
ATOM      1  C   UNL     1      -1.973   5.441   0.154  0.00  0.00    +0.000 C 
ENDROOT
BRANCH   1   2
ATOM      2  C   UNL     1      -1.047   6.638   0.219  0.00  0.00    +0.000 A 
ATOM      3  C   UNL     1      -1.571   7.923   0.059  0.00  0.00    +0.000 A 
ATOM      4  C   UNL     1      -0.753   9.045   0.213  0.00  0.00    +0.000 A 
ATOM      5  C   UNL     1       0.603   8.896   0.530  0.00  0.00    +0.000 A 
ATOM      6  C   UNL     1       1.144   7.621   0.670  0.00  0.00    +0.000 A 
ATOM      7  C   UNL     1       0.319   6.498   0.514  0.00  0.00    +0.000 A 
BRANCH   6   8
ATOM      8  O   UNL     1       2.445   7.336   1.016  0.00  0.00    +0.000 OA
BRANCH   8   9
ATOM      9  C   UNL     1       3.484   8.312   0.783  0.00  0.00    +0.000 C 
ATOM     10  C   UNL     1       3.883   8.587  -0.687  0.00  0.00    +0.000 C 
ATOM     11  C   UNL     1       5.360   8.545  -0.261  0.00  0.00    +0.000 C 
ATOM     12  C   UNL     1       4.929   7.777   0.997  0.00  0.00    +0.000 C 
ENDBRANCH   8   9
ENDBRANCH   6   8
ENDBRANCH   1   2
BRANCH   1  13
ATOM     13  C   UNL     1      -1.649   4.466  -0.976  0.00  0.00    +0.000 C 
BRANCH  13  14
ATOM     14  S   UNL     1      -2.868   3.099  -0.969  0.00  0.00    +0.000 S 
BRANCH  14  19
ATOM     15  C   UNL     1      -0.930   1.435  -4.184  0.00  0.00    +0.000 A 
ATOM     16  C   UNL     1      -1.722   0.309  -4.358  0.00  0.00    +0.000 A 
ATOM     17  N   UNL     1      -2.789   0.025  -3.580  0.00  0.00    +0.000 NA
ATOM     18  C   UNL     1      -3.071   0.907  -2.588  0.00  0.00    +0.000 A 
ATOM     19  C   UNL     1      -2.340   2.067  -2.322  0.00  0.00    +0.000 A 
ATOM     20  C   UNL     1      -1.246   2.320  -3.153  0.00  0.00    +0.000 A 
BRANCH  15  22
ATOM     21  N   UNL     1       1.087   1.878  -5.745  0.00  0.00    +0.000 NA
ATOM     22  C   UNL     1       0.181   1.675  -5.046  0.00  0.00    +0.000 C 
ENDBRANCH  15  22
ENDBRANCH  14  19
ENDBRANCH  13  14
ENDBRANCH   1  13
TORSDOF 7
