REMARK  Name = 
REMARK  8 active torsions:
REMARK  status: ('A' for Active; 'I' for Inactive)
REMARK    1  A    between atoms: C_1  and  C_2
REMARK    2  A    between atoms: C_2  and  C_3
REMARK    3  A    between atoms: C_7  and  C_8
REMARK    4  A    between atoms: C_8  and  C_9
REMARK    5  A    between atoms: C_9  and  N_10
REMARK    6  A    between atoms: N_10  and  C_11
REMARK    7  A    between atoms: C_14  and  C_15
REMARK    8  A    between atoms: C_23  and  O_24
REMARK                            x       y       z     vdW  Elec       q    Type
REMARK                         _______ _______ _______ _____ _____    ______ ____
ROOT
ATOM      1  C   UNL     1       2.956   0.424   1.325  0.00  0.00    +0.000 A 
ATOM      2  C   UNL     1       2.684   1.699   1.851  0.00  0.00    +0.000 A 
ATOM      3  C   UNL     1       2.986   2.022   3.167  0.00  0.00    +0.000 A 
ATOM      4  C   UNL     1       3.559   1.069   4.008  0.00  0.00    +0.000 A 
ATOM      5  C   UNL     1       3.835  -0.219   3.528  0.00  0.00    +0.000 A 
ATOM      6  C   UNL     1       3.572  -0.498   2.178  0.00  0.00    +0.000 A 
ENDROOT
BRANCH   1   8
ATOM      7  C   UNL     1       0.927   0.162  -0.068  0.00  0.00    +0.000 C 
ATOM      8  C   UNL     1       2.472   0.042  -0.086  0.00  0.00    +0.000 C 
ATOM      9  C   UNL     1       3.076   1.017  -1.136  0.00  0.00    +0.000 C 
ATOM     10  C   UNL     1       2.748   0.643  -2.586  0.00  0.00    +0.000 C 
ATOM     11  C   UNL     1       3.116  -0.799  -2.922  0.00  0.00    +0.000 C 
ATOM     12  C   UNL     1       2.513  -1.783  -1.924  0.00  0.00    +0.000 C 
ATOM     13  C   UNL     1       2.854  -1.416  -0.481  0.00  0.00    +0.000 C 
BRANCH  11  14
ATOM     14  O   UNL     1       4.534  -0.948  -2.957  0.00  0.00    +0.000 OA
ATOM     15  H   UNL     1       4.904  -0.680  -2.099  0.00  0.00    +0.000 HD
ENDBRANCH  11  14
ENDBRANCH   1   8
BRANCH   5  16
ATOM     16  C   UNL     1       4.332  -1.326   4.441  0.00  0.00    +0.000 C 
BRANCH  16  17
ATOM     17  C   UNL     1       4.565  -2.658   3.714  0.00  0.00    +0.000 C 
BRANCH  17  18
ATOM     18  N   UNL     1       5.031  -3.713   4.610  0.00  0.00    +0.000 N 
ATOM     19  H   UNL     1       4.462  -3.796   5.449  0.00  0.00    +0.000 HD
BRANCH  18  20
ATOM     20  C   UNL     1       5.254  -4.953   3.982  0.00  0.00    +0.000 A 
ATOM     21  C   UNL     1       5.689  -5.051   2.655  0.00  0.00    +0.000 A 
ATOM     22  C   UNL     1       5.983  -6.288   2.089  0.00  0.00    +0.000 A 
ATOM     23  C   UNL     1       5.865  -7.413   2.888  0.00  0.00    +0.000 A 
ATOM     24  N   UNL     1       5.451  -7.382   4.183  0.00  0.00    +0.000 NA
ATOM     25  C   UNL     1       5.174  -6.154   4.691  0.00  0.00    +0.000 A 
BRANCH  23  26
ATOM     26  C   UNL     1       6.243  -8.747   2.316  0.00  0.00    +0.000 C 
ATOM     27  N   UNL     1       6.105  -9.806   3.177  0.00  0.00    +0.000 N 
ATOM     28  O   UNL     1       6.652  -8.890   1.182  0.00  0.00    +0.000 OA
ATOM     29  H   UNL     1       5.796  -9.645   4.127  0.00  0.00    +0.000 HD
ATOM     30  H   UNL     1       6.396 -10.724   2.875  0.00  0.00    +0.000 HD
ENDBRANCH  23  26
ENDBRANCH  18  20
ENDBRANCH  17  18
ENDBRANCH  16  17
ENDBRANCH   5  16
TORSDOF 7
