REMARK  Name = 
REMARK  4 active torsions:
REMARK  status: ('A' for Active; 'I' for Inactive)
REMARK    1  A    between atoms: C_2  and  C_4
REMARK    2  A    between atoms: C_7  and  O_8
REMARK    3  A    between atoms: O_8  and  C_9
REMARK    4  A    between atoms: C_9  and  C_10
REMARK                            x       y       z     vdW  Elec       q    Type
REMARK                         _______ _______ _______ _____ _____    ______ ____
ROOT
ATOM      1  C   UNL     1       3.210  -1.028  -0.625  0.00  0.00    +0.000 A 
ATOM      2  C   UNL     1       2.879  -1.408  -1.933  0.00  0.00    +0.000 A 
ATOM      3  C   UNL     1       3.651  -2.369  -2.592  0.00  0.00    +0.000 A 
ATOM      4  C   UNL     1       4.755  -2.943  -1.955  0.00  0.00    +0.000 A 
ATOM      5  C   UNL     1       5.053  -2.592  -0.637  0.00  0.00    +0.000 A 
ATOM      6  C   UNL     1       4.299  -1.621   0.017  0.00  0.00    +0.000 A 
ENDROOT
BRANCH   1   8
ATOM      7  N   UNL     1       1.134   0.155  -0.181  0.00  0.00    +0.000 N 
ATOM      8  C   UNL     1       2.458   0.009   0.119  0.00  0.00    +0.000 C 
ATOM      9  O   UNL     1       2.979   0.677   1.005  0.00  0.00    +0.000 OA
ATOM     10  H   UNL     1       0.608   0.763   0.432  0.00  0.00    +0.000 HD
ATOM     11  H   UNL     1       0.622  -0.549  -0.694  0.00  0.00    +0.000 HD
ENDBRANCH   1   8
BRANCH   4  12
ATOM     12  O   UNL     1       5.490  -3.824  -2.705  0.00  0.00    +0.000 OA
BRANCH  12  13
ATOM     13  C   UNL     1       6.842  -3.982  -2.268  0.00  0.00    +0.000 C 
BRANCH  13  14
ATOM     14  C   UNL     1       7.684  -4.513  -3.397  0.00  0.00    +0.000 A 
ATOM     15  C   UNL     1       8.720  -3.731  -3.929  0.00  0.00    +0.000 A 
ATOM     16  C   UNL     1       9.517  -4.224  -4.960  0.00  0.00    +0.000 A 
ATOM     17  C   UNL     1       9.287  -5.501  -5.466  0.00  0.00    +0.000 A 
ATOM     18  C   UNL     1       8.260  -6.286  -4.945  0.00  0.00    +0.000 A 
ATOM     19  C   UNL     1       7.459  -5.796  -3.913  0.00  0.00    +0.000 A 
ENDBRANCH  13  14
ENDBRANCH  12  13
ENDBRANCH   4  12
TORSDOF 4
