REMARK  Name = 
REMARK  6 active torsions:
REMARK  status: ('A' for Active; 'I' for Inactive)
REMARK    1  A    between atoms: C_1  and  C_2
REMARK    2  A    between atoms: C_4  and  C_5
REMARK    3  A    between atoms: N_12  and  C_13
REMARK    4  A    between atoms: C_13  and  C_14
REMARK    5  A    between atoms: C_17  and  C_18
REMARK    6  A    between atoms: C_18  and  C_19
REMARK                            x       y       z     vdW  Elec       q    Type
REMARK                         _______ _______ _______ _____ _____    ______ ____
ROOT
ATOM      1  C   UNL     1       1.237  -0.356  -0.335  0.00  0.00    +0.000 C 
ATOM      2  C   UNL     1       2.715  -0.122  -0.196  0.00  0.00    +0.000 A 
ATOM      3  C   UNL     1       3.549  -1.266  -0.113  0.00  0.00    +0.000 A 
ATOM      4  C   UNL     1       4.942  -1.196   0.021  0.00  0.00    +0.000 A 
ATOM      5  C   UNL     1       5.552   0.055   0.074  0.00  0.00    +0.000 A 
ATOM      6  C   UNL     1       4.756   1.221   0.013  0.00  0.00    +0.000 A 
ATOM      7  C   UNL     1       5.039   2.601   0.047  0.00  0.00    +0.000 A 
ATOM      8  N   UNL     1       3.946   3.353  -0.011  0.00  0.00    +0.000 NA
ATOM      9  N   UNL     1       2.930   2.457  -0.089  0.00  0.00    +0.000 N 
ATOM     10  C   UNL     1       3.361   1.135  -0.105  0.00  0.00    +0.000 A 
ENDROOT
BRANCH   4  11
ATOM     11  C   UNL     1       5.694  -2.487   0.100  0.00  0.00    +0.000 C 
ATOM     12  N   UNL     1       7.057  -2.454   0.197  0.00  0.00    +0.000 N 
ATOM     13  O   UNL     1       5.113  -3.568   0.083  0.00  0.00    +0.000 OA
ATOM     14  H   UNL     1       7.628  -1.626   0.200  0.00  0.00    +0.000 HD
ATOM     15  H   UNL     1       7.526  -3.350   0.248  0.00  0.00    +0.000 HD
ENDBRANCH   4  11
BRANCH   9  16
ATOM     16  C   UNL     1       1.570   3.004  -0.061  0.00  0.00    +0.000 C 
BRANCH  16  17
ATOM     17  C   UNL     1       0.980   3.264  -1.431  0.00  0.00    +0.000 A 
ATOM     18  C   UNL     1       1.766   3.595  -2.545  0.00  0.00    +0.000 A 
ATOM     19  C   UNL     1       1.213   3.617  -3.828  0.00  0.00    +0.000 A 
ATOM     20  C   UNL     1      -0.145   3.337  -4.013  0.00  0.00    +0.000 A 
ATOM     21  C   UNL     1      -0.956   3.201  -2.887  0.00  0.00    +0.000 A 
ATOM     22  F   UNL     1      -2.275   3.016  -3.030  0.00  0.00    +0.000 F 
ATOM     23  C   UNL     1      -0.410   3.178  -1.606  0.00  0.00    +0.000 A 
BRANCH  20  24
ATOM     24  C   UNL     1      -0.684   3.038  -5.388  0.00  0.00    +0.000 C 
BRANCH  24  25
ATOM     25  C   UNL     1      -0.708   1.555  -5.748  0.00  0.00    +0.000 C 
ATOM     26  N   UNL     1       0.128   0.706  -5.082  0.00  0.00    +0.000 N 
ATOM     27  O   UNL     1      -1.399   1.118  -6.666  0.00  0.00    +0.000 OA
ATOM     28  H   UNL     1       0.614   0.958  -4.233  0.00  0.00    +0.000 HD
ATOM     29  H   UNL     1       0.067  -0.274  -5.325  0.00  0.00    +0.000 HD
ENDBRANCH  24  25
ENDBRANCH  20  24
ENDBRANCH  16  17
ENDBRANCH   9  16
TORSDOF 5
