REMARK  Name = 
REMARK  7 active torsions:
REMARK  status: ('A' for Active; 'I' for Inactive)
REMARK    1  A    between atoms: C_2  and  C_21
REMARK    2  A    between atoms: N_3  and  C_4
REMARK    3  A    between atoms: C_4  and  C_5
REMARK    4  A    between atoms: C_8  and  C_9
REMARK    5  A    between atoms: C_9  and  O_10
REMARK    6  A    between atoms: C_9  and  C_11
REMARK    7  A    between atoms: C_16  and  O_17
REMARK                            x       y       z     vdW  Elec       q    Type
REMARK                         _______ _______ _______ _____ _____    ______ ____
ROOT
ATOM      1  C   UNL     1       4.704  -1.010 -10.109  0.00  0.00    +0.000 A 
ATOM      2  C   UNL     1       5.131   0.304 -10.316  0.00  0.00    +0.000 A 
ATOM      3  C   UNL     1       5.472   1.115  -9.238  0.00  0.00    +0.000 A 
ATOM      4  C   UNL     1       5.409   0.633  -7.920  0.00  0.00    +0.000 A 
ATOM      5  C   UNL     1       4.943  -0.672  -7.707  0.00  0.00    +0.000 A 
ATOM      6  C   UNL     1       4.592  -1.486  -8.794  0.00  0.00    +0.000 A 
ENDROOT
BRANCH   1   7
ATOM      7  C   UNL     1       4.482  -1.901 -11.301  0.00  0.00    +0.000 C 
BRANCH   7  10
ATOM      8  O   UNL     1       6.417  -0.933 -13.174  0.00  0.00    +0.000 OA
ATOM      9  C   UNL     1       6.565  -2.031 -12.648  0.00  0.00    +0.000 C 
ATOM     10  N   UNL     1       5.711  -2.538 -11.702  0.00  0.00    +0.000 N 
ATOM     11  H   UNL     1       5.870  -3.467 -11.340  0.00  0.00    +0.000 HD
BRANCH   9  12
ATOM     12  C   UNL     1       7.713  -2.890 -12.960  0.00  0.00    +0.000 A 
ATOM     13  C   UNL     1       8.932  -2.349 -13.337  0.00  0.00    +0.000 A 
ATOM     14  S   UNL     1      10.142  -3.529 -13.592  0.00  0.00    +0.000 S 
ATOM     15  C   UNL     1       9.059  -4.800 -13.257  0.00  0.00    +0.000 A 
ATOM     16  N   UNL     1       9.461  -6.097 -13.287  0.00  0.00    +0.000 NA
ATOM     17  C   UNL     1       8.523  -6.952 -13.036  0.00  0.00    +0.000 A 
ATOM     18  N   UNL     1       7.218  -6.626 -12.771  0.00  0.00    +0.000 N 
ATOM     19  C   UNL     1       6.770  -5.330 -12.712  0.00  0.00    +0.000 A 
ATOM     20  O   UNL     1       5.603  -5.077 -12.433  0.00  0.00    +0.000 OA
ATOM     21  C   UNL     1       7.791  -4.330 -12.962  0.00  0.00    +0.000 A 
ATOM     22  H   UNL     1       6.530  -7.340 -12.587  0.00  0.00    +0.000 HD
ENDBRANCH   9  12
ENDBRANCH   7  10
ENDBRANCH   1   7
BRANCH   4  23
ATOM     23  C   UNL     1       6.034   1.485  -6.838  0.00  0.00    +0.000 C 
BRANCH  23  24
ATOM     24  C   UNL     1       5.507   1.293  -5.402  0.00  0.00    +0.000 C 
ATOM     25  O   UNL     1       6.051   0.484  -4.641  0.00  0.00    +0.000 OA
ATOM     26  N   UNL     1       4.487   2.113  -4.966  0.00  0.00    +0.000 N 
ATOM     27  C   UNL     1       4.167   2.219  -3.553  0.00  0.00    +0.000 C 
ATOM     28  C   UNL     1       2.935   3.107  -3.473  0.00  0.00    +0.000 C 
ATOM     29  C   UNL     1       2.941   3.887  -4.785  0.00  0.00    +0.000 C 
ATOM     30  C   UNL     1       3.599   2.928  -5.776  0.00  0.00    +0.000 C 
BRANCH  29  31
ATOM     31  O   UNL     1       1.628   4.255  -5.172  0.00  0.00    +0.000 OA
ATOM     32  H   UNL     1       1.082   3.450  -5.220  0.00  0.00    +0.000 HD
ENDBRANCH  29  31
ENDBRANCH  23  24
BRANCH  23  33
ATOM     33  O   UNL     1       7.437   1.194  -6.870  0.00  0.00    +0.000 OA
ATOM     34  H   UNL     1       7.527   0.322  -6.441  0.00  0.00    +0.000 HD
ENDBRANCH  23  33
ENDBRANCH   4  23
TORSDOF 7
