REMARK  Name = 
REMARK  7 active torsions:
REMARK  status: ('A' for Active; 'I' for Inactive)
REMARK    1  A    between atoms: C_1  and  C_2
REMARK    2  A    between atoms: C_2  and  N_3
REMARK    3  A    between atoms: C_2  and  C_16
REMARK    4  A    between atoms: C_4  and  C_6
REMARK    5  A    between atoms: C_19  and  C_20
REMARK    6  A    between atoms: C_20  and  N_21
REMARK    7  A    between atoms: C_22  and  C_24
REMARK                            x       y       z     vdW  Elec       q    Type
REMARK                         _______ _______ _______ _____ _____    ______ ____
ROOT
ATOM      1  C   UNL     1       3.003   1.148  -0.798  0.00  0.00    +0.000 A 
ATOM      2  C   UNL     1       2.690   2.462  -0.411  0.00  0.00    +0.000 A 
ATOM      3  C   UNL     1       3.024   3.551  -1.225  0.00  0.00    +0.000 A 
ATOM      4  C   UNL     1       3.674   3.353  -2.449  0.00  0.00    +0.000 A 
ATOM      5  C   UNL     1       4.033   2.053  -2.804  0.00  0.00    +0.000 A 
ATOM      6  F   UNL     1       4.688   1.834  -3.954  0.00  0.00    +0.000 F 
ATOM      7  C   UNL     1       3.696   0.960  -2.004  0.00  0.00    +0.000 A 
ENDROOT
BRANCH   1   9
ATOM      8  C   UNL     1       1.101  -0.413  -0.513  0.00  0.00    +0.000 C 
ATOM      9  C   UNL     1       2.482  -0.023   0.032  0.00  0.00    +0.000 C 
BRANCH   9  10
ATOM     10  N   UNL     1       3.410  -1.142   0.031  0.00  0.00    +0.000 N 
ATOM     11  C   UNL     1       3.182  -2.290   0.754  0.00  0.00    +0.000 C 
ATOM     12  O   UNL     1       2.171  -2.461   1.430  0.00  0.00    +0.000 OA
ATOM     13  H   UNL     1       4.377  -0.923  -0.190  0.00  0.00    +0.000 HD
BRANCH  11  14
ATOM     14  C   UNL     1       4.187  -3.351   0.620  0.00  0.00    +0.000 A 
ATOM     15  C   UNL     1       3.809  -4.678   0.787  0.00  0.00    +0.000 A 
ATOM     16  S   UNL     1       5.089  -5.784   0.570  0.00  0.00    +0.000 S 
ATOM     17  C   UNL     1       6.200  -4.525   0.289  0.00  0.00    +0.000 A 
ATOM     18  N   UNL     1       7.515  -4.788   0.063  0.00  0.00    +0.000 NA
ATOM     19  C   UNL     1       8.248  -3.737  -0.099  0.00  0.00    +0.000 A 
ATOM     20  N   UNL     1       7.784  -2.448  -0.068  0.00  0.00    +0.000 N 
ATOM     21  C   UNL     1       6.458  -2.137   0.111  0.00  0.00    +0.000 A 
ATOM     22  O   UNL     1       6.057  -0.978   0.059  0.00  0.00    +0.000 OA
ATOM     23  C   UNL     1       5.596  -3.281   0.331  0.00  0.00    +0.000 A 
ATOM     24  H   UNL     1       8.409  -1.669  -0.220  0.00  0.00    +0.000 HD
ENDBRANCH  11  14
ENDBRANCH   9  10
ENDBRANCH   1   9
BRANCH   4  25
ATOM     25  C   UNL     1       3.958   4.510  -3.364  0.00  0.00    +0.000 C 
BRANCH  25  26
ATOM     26  N   UNL     1       5.244   5.109  -3.102  0.00  0.00    +0.000 N 
ATOM     27  C   UNL     1       5.400   6.192  -2.272  0.00  0.00    +0.000 C 
ATOM     28  O   UNL     1       4.462   6.732  -1.695  0.00  0.00    +0.000 OA
ATOM     29  H   UNL     1       6.053   4.648  -3.486  0.00  0.00    +0.000 HD
BRANCH  27  30
ATOM     30  C   UNL     1       6.754   6.656  -2.123  0.00  0.00    +0.000 A 
ATOM     31  C   UNL     1       7.953   6.275  -2.693  0.00  0.00    +0.000 A 
ATOM     32  N   UNL     1       8.995   7.032  -2.222  0.00  0.00    +0.000 NA
ATOM     33  C   UNL     1       8.452   7.878  -1.379  0.00  0.00    +0.000 A 
ATOM     34  N   UNL     1       7.103   7.697  -1.292  0.00  0.00    +0.000 N 
ATOM     35  H   UNL     1       6.456   8.224  -0.720  0.00  0.00    +0.000 HD
ENDBRANCH  27  30
ENDBRANCH  25  26
ENDBRANCH   4  25
TORSDOF 6
