REMARK  Name = 
REMARK  10 active torsions:
REMARK  status: ('A' for Active; 'I' for Inactive)
REMARK    1  A    between atoms: C_1  and  C_2
REMARK    2  A    between atoms: C_2  and  C_3
REMARK    3  A    between atoms: C_3  and  N_4
REMARK    4  A    between atoms: C_3  and  C_21
REMARK    5  A    between atoms: N_4  and  C_5
REMARK    6  A    between atoms: C_5  and  C_6
REMARK    7  A    between atoms: C_9  and  C_10
REMARK    8  A    between atoms: C_10  and  O_11
REMARK    9  A    between atoms: O_11  and  C_12
REMARK   10  A    between atoms: C_12  and  C_13
REMARK                            x       y       z     vdW  Elec       q    Type
REMARK                         _______ _______ _______ _____ _____    ______ ____
ROOT
ATOM      1  N   UNL     1       2.059  -1.957  -0.197  0.00  0.00    +0.000 NA
ATOM      2  H   UNL     1       2.835  -2.620  -0.174  0.00  0.00    +0.000 HD
ENDROOT
BRANCH   1   3
ATOM      3  C   UNL     1       2.616  -0.620   0.067  0.00  0.00    +0.000 C 
BRANCH   3   4
ATOM      4  C   UNL     1       3.791  -0.462  -0.911  0.00  0.00    +0.000 A 
ATOM      5  C   UNL     1       3.778  -0.923  -2.222  0.00  0.00    +0.000 A 
ATOM      6  S   UNL     1       5.216  -0.586  -3.078  0.00  0.00    +0.000 S 
ATOM      7  C   UNL     1       5.888   0.225  -1.741  0.00  0.00    +0.000 A 
ATOM      8  N   UNL     1       7.116   0.797  -1.817  0.00  0.00    +0.000 NA
ATOM      9  C   UNL     1       7.486   1.408  -0.742  0.00  0.00    +0.000 A 
ATOM     10  N   UNL     1       6.743   1.486   0.409  0.00  0.00    +0.000 N 
ATOM     11  C   UNL     1       5.500   0.909   0.541  0.00  0.00    +0.000 A 
ATOM     12  O   UNL     1       4.860   0.990   1.586  0.00  0.00    +0.000 OA
ATOM     13  C   UNL     1       5.035   0.225  -0.653  0.00  0.00    +0.000 A 
ATOM     14  H   UNL     1       7.094   1.979   1.213  0.00  0.00    +0.000 HD
ENDBRANCH   3   4
BRANCH   3  16
ATOM     15  C   UNL     1       0.445   0.671   0.781  0.00  0.00    +0.000 C 
ATOM     16  C   UNL     1       1.655   0.580  -0.137  0.00  0.00    +0.000 C 
ENDBRANCH   3  16
ENDBRANCH   1   3
BRANCH   1  17
ATOM     17  C   UNL     1       1.072  -2.425   0.768  0.00  0.00    +0.000 C 
BRANCH  17  18
ATOM     18  C   UNL     1       0.607  -3.828   0.448  0.00  0.00    +0.000 A 
ATOM     19  C   UNL     1       1.459  -4.930   0.594  0.00  0.00    +0.000 A 
ATOM     20  C   UNL     1       1.005  -6.217   0.295  0.00  0.00    +0.000 A 
ATOM     21  C   UNL     1      -0.309  -6.430  -0.146  0.00  0.00    +0.000 A 
ATOM     22  C   UNL     1      -1.163  -5.331  -0.282  0.00  0.00    +0.000 A 
ATOM     23  C   UNL     1      -0.708  -4.045   0.008  0.00  0.00    +0.000 A 
BRANCH  21  24
ATOM     24  C   UNL     1      -0.788  -7.817  -0.477  0.00  0.00    +0.000 C 
BRANCH  24  25
ATOM     25  O   UNL     1      -0.652  -8.625   0.685  0.00  0.00    +0.000 OA
BRANCH  25  26
ATOM     26  C   UNL     1      -1.123  -9.951   0.467  0.00  0.00    +0.000 C 
BRANCH  26  27
ATOM     27  C   UNL     1      -0.959 -10.765   1.727  0.00  0.00    +0.000 A 
ATOM     28  C   UNL     1      -1.081 -10.175   2.995  0.00  0.00    +0.000 A 
ATOM     29  C   UNL     1      -0.955 -10.945   4.153  0.00  0.00    +0.000 A 
ATOM     30  C   UNL     1      -0.719 -12.313   4.056  0.00  0.00    +0.000 A 
ATOM     31  C   UNL     1      -0.612 -12.915   2.803  0.00  0.00    +0.000 A 
ATOM     32  C   UNL     1      -0.736 -12.147   1.645  0.00  0.00    +0.000 A 
ENDBRANCH  26  27
ENDBRANCH  25  26
ENDBRANCH  24  25
ENDBRANCH  21  24
ENDBRANCH  17  18
ENDBRANCH   1  17
TORSDOF 9
