REMARK  Name = 
REMARK  8 active torsions:
REMARK  status: ('A' for Active; 'I' for Inactive)
REMARK    1  A    between atoms: C_1  and  O_2
REMARK    2  A    between atoms: O_2  and  C_3
REMARK    3  A    between atoms: C_10  and  C_11
REMARK    4  A    between atoms: N_13  and  C_14
REMARK    5  A    between atoms: C_14  and  C_15
REMARK    6  A    between atoms: C_18  and  C_19
REMARK    7  A    between atoms: C_19  and  C_20
REMARK    8  A    between atoms: C_20  and  N_21
REMARK                            x       y       z     vdW  Elec       q    Type
REMARK                         _______ _______ _______ _____ _____    ______ ____
ROOT
ATOM      1  C   UNL     1       2.863   0.167  -3.425  0.00  0.00    +0.000 C 
ENDROOT
BRANCH   1   2
ATOM      2  C   UNL     1       1.670  -0.724  -3.200  0.00  0.00    +0.000 A 
ATOM      3  C   UNL     1       1.811  -2.114  -3.239  0.00  0.00    +0.000 A 
ATOM      4  C   UNL     1       0.711  -2.948  -3.017  0.00  0.00    +0.000 A 
ATOM      5  C   UNL     1      -0.561  -2.416  -2.759  0.00  0.00    +0.000 A 
ATOM      6  C   UNL     1      -0.702  -1.020  -2.756  0.00  0.00    +0.000 A 
ATOM      7  C   UNL     1       0.398  -0.184  -2.979  0.00  0.00    +0.000 A 
BRANCH   5   8
ATOM      8  C   UNL     1      -1.781  -3.275  -2.471  0.00  0.00    +0.000 C 
BRANCH   8   9
ATOM      9  C   UNL     1      -1.525  -4.787  -2.471  0.00  0.00    +0.000 C 
BRANCH   9  10
ATOM     10  N   UNL     1      -2.737  -5.553  -2.167  0.00  0.00    +0.000 N 
ATOM     11  C   UNL     1      -2.496  -6.947  -2.189  0.00  0.00    +0.000 A 
ATOM     12  C   UNL     1      -3.537  -7.842  -1.925  0.00  0.00    +0.000 A 
ATOM     13  N   UNL     1      -3.395  -9.194  -1.929  0.00  0.00    +0.000 NA
ATOM     14  C   UNL     1      -2.147  -9.633  -2.192  0.00  0.00    +0.000 A 
ATOM     15  C   UNL     1      -1.101  -8.766  -2.440  0.00  0.00    +0.000 A 
ATOM     16  N   UNL     1      -1.255  -7.422  -2.442  0.00  0.00    +0.000 NA
ATOM     17  H   UNL     1      -3.498  -5.348  -2.811  0.00  0.00    +0.000 HD
ENDBRANCH   9  10
ENDBRANCH   8   9
ENDBRANCH   5   8
ENDBRANCH   1   2
BRANCH   1  20
ATOM     18  C   UNL     1       4.133   1.149  -5.278  0.00  0.00    +0.000 C 
ATOM     19  O   UNL     1       4.943   1.639  -4.495  0.00  0.00    +0.000 OA
ATOM     20  N   UNL     1       3.069   0.418  -4.828  0.00  0.00    +0.000 N 
ATOM     21  H   UNL     1       2.386   0.053  -5.478  0.00  0.00    +0.000 HD
BRANCH  18  29
ATOM     22  C   UNL     1       2.321   0.040  -7.997  0.00  0.00    +0.000 A 
ATOM     23  N   UNL     1       1.865  -0.315  -9.216  0.00  0.00    +0.000 NA
ATOM     24  C   UNL     1       2.547   0.094 -10.289  0.00  0.00    +0.000 A 
ATOM     25  N   UNL     1       3.646   0.842 -10.300  0.00  0.00    +0.000 NA
ATOM     26  C   UNL     1       4.074   1.166  -9.069  0.00  0.00    +0.000 A 
ATOM     27  S   UNL     1       5.461   2.129  -8.896  0.00  0.00    +0.000 S 
ATOM     28  C   UNL     1       5.356   2.060  -7.203  0.00  0.00    +0.000 A 
ATOM     29  C   UNL     1       4.282   1.312  -6.734  0.00  0.00    +0.000 A 
ATOM     30  C   UNL     1       3.496   0.802  -7.856  0.00  0.00    +0.000 A 
BRANCH  22  32
ATOM     31  C   UNL     1       0.391  -1.042  -7.199  0.00  0.00    +0.000 C 
ATOM     32  O   UNL     1       1.597  -0.348  -6.887  0.00  0.00    +0.000 OA
ENDBRANCH  22  32
ENDBRANCH  18  29
ENDBRANCH   1  20
TORSDOF 7
