REMARK  Name = 
REMARK  8 active torsions:
REMARK  status: ('A' for Active; 'I' for Inactive)
REMARK    1  A    between atoms: N_1  and  C_2
REMARK    2  A    between atoms: C_2  and  C_3
REMARK    3  A    between atoms: C_3  and  C_4
REMARK    4  A    between atoms: C_7  and  O_8
REMARK    5  A    between atoms: O_8  and  C_9
REMARK    6  A    between atoms: C_9  and  C_10
REMARK    7  A    between atoms: C_14  and  S_15
REMARK    8  A    between atoms: S_15  and  N_16
REMARK                            x       y       z     vdW  Elec       q    Type
REMARK                         _______ _______ _______ _____ _____    ______ ____
ROOT
ATOM      1  C   UNL     1       9.303   2.433  -1.103  0.00  0.00    +0.000 C 
ENDROOT
BRANCH   1   2
ATOM      2  C   UNL     1      10.655   1.894  -1.493  0.00  0.00    +0.000 A 
ATOM      3  C   UNL     1      11.550   1.427  -0.520  0.00  0.00    +0.000 A 
ATOM      4  C   UNL     1      12.798   0.919  -0.886  0.00  0.00    +0.000 A 
ATOM      5  C   UNL     1      13.161   0.854  -2.232  0.00  0.00    +0.000 A 
ATOM      6  C   UNL     1      12.263   1.299  -3.204  0.00  0.00    +0.000 A 
ATOM      7  C   UNL     1      11.025   1.838  -2.843  0.00  0.00    +0.000 A 
BRANCH   6   8
ATOM      8  S   UNL     1      12.674   1.168  -4.925  0.00  0.00    +0.000 S 
ATOM      9  O   UNL     1      11.937   2.177  -5.645  0.00  0.00    +0.000 OA
ATOM     10  O   UNL     1      14.102   1.001  -5.039  0.00  0.00    +0.000 OA
BRANCH   8  11
ATOM     11  N   UNL     1      11.968  -0.313  -5.286  0.00  0.00    +0.000 NA
ATOM     12  H   UNL     1      10.960  -0.250  -5.412  0.00  0.00    +0.000 HD
ATOM     13  H   UNL     1      12.313  -1.083  -4.718  0.00  0.00    +0.000 HD
ENDBRANCH   8  11
ENDBRANCH   6   8
ENDBRANCH   1   2
BRANCH   1  14
ATOM     14  O   UNL     1       8.515   1.365  -0.572  0.00  0.00    +0.000 OA
BRANCH  14  18
ATOM     15  C   UNL     1       4.374   1.770  -0.888  0.00  0.00    +0.000 A 
ATOM     16  C   UNL     1       4.983   0.518  -0.733  0.00  0.00    +0.000 A 
ATOM     17  C   UNL     1       6.371   0.421  -0.598  0.00  0.00    +0.000 A 
ATOM     18  C   UNL     1       7.162   1.571  -0.621  0.00  0.00    +0.000 A 
ATOM     19  C   UNL     1       6.551   2.823  -0.698  0.00  0.00    +0.000 A 
ATOM     20  C   UNL     1       5.167   2.921  -0.841  0.00  0.00    +0.000 A 
BRANCH  15  21
ATOM     21  C   UNL     1       2.887   1.890  -1.106  0.00  0.00    +0.000 C 
BRANCH  21  22
ATOM     22  C   UNL     1       2.118   2.046   0.207  0.00  0.00    +0.000 C 
BRANCH  22  23
ATOM     23  N   UNL     1       0.683   2.167  -0.047  0.00  0.00    +0.000 NA
ATOM     24  H   UNL     1       0.189   2.239   0.841  0.00  0.00    +0.000 HD
ATOM     25  H   UNL     1       0.342   1.316  -0.494  0.00  0.00    +0.000 HD
ENDBRANCH  22  23
ENDBRANCH  21  22
ENDBRANCH  15  21
ENDBRANCH  14  18
ENDBRANCH   1  14
TORSDOF 8
