REMARK  Name = 
REMARK  5 active torsions:
REMARK  status: ('A' for Active; 'I' for Inactive)
REMARK    1  A    between atoms: C_2  and  C_4
REMARK    2  A    between atoms: C_7  and  N_8
REMARK    3  A    between atoms: N_8  and  C_9
REMARK    4  A    between atoms: C_9  and  C_10
REMARK    5  A    between atoms: C_14  and  C_15
REMARK                            x       y       z     vdW  Elec       q    Type
REMARK                         _______ _______ _______ _____ _____    ______ ____
ROOT
ATOM      1  C   UNL     1       4.889   5.748   1.546  0.00  0.00    +0.000 C 
ENDROOT
BRANCH   1   2
ATOM      2  C   UNL     1       5.789   6.962   1.595  0.00  0.00    +0.000 A 
ATOM      3  C   UNL     1       5.267   8.245   1.404  0.00  0.00    +0.000 A 
ATOM      4  C   UNL     1       6.102   9.356   1.479  0.00  0.00    +0.000 A 
ATOM      5  C   UNL     1       7.462   9.195   1.755  0.00  0.00    +0.000 A 
ATOM      6  C   UNL     1       8.024   7.925   1.982  0.00  0.00    +0.000 A 
ATOM      7  C   UNL     1       7.158   6.818   1.894  0.00  0.00    +0.000 A 
BRANCH   6   8
ATOM      8  C   UNL     1       9.459   7.763   2.318  0.00  0.00    +0.000 A 
ATOM      9  C   UNL     1      10.204   6.652   1.874  0.00  0.00    +0.000 A 
ATOM     10  C   UNL     1      11.557   6.493   2.205  0.00  0.00    +0.000 A 
ATOM     11  C   UNL     1      12.200   7.452   2.979  0.00  0.00    +0.000 A 
ATOM     12  C   UNL     1      11.485   8.556   3.419  0.00  0.00    +0.000 A 
ATOM     13  F   UNL     1      12.098   9.484   4.164  0.00  0.00    +0.000 F 
ATOM     14  C   UNL     1      10.136   8.714   3.104  0.00  0.00    +0.000 A 
ENDBRANCH   6   8
ENDBRANCH   1   2
BRANCH   1  15
ATOM     15  N   UNL     1       4.503   5.410   2.909  0.00  0.00    +0.000 N 
ATOM     16  H   UNL     1       4.110   6.208   3.398  0.00  0.00    +0.000 HD
BRANCH  15  20
ATOM     17  C   UNL     1       2.159   2.076   3.424  0.00  0.00    +0.000 A 
ATOM     18  C   UNL     1       2.552   2.473   2.156  0.00  0.00    +0.000 A 
ATOM     19  N   UNL     1       3.310   3.581   1.938  0.00  0.00    +0.000 NA
ATOM     20  C   UNL     1       3.667   4.294   3.029  0.00  0.00    +0.000 A 
ATOM     21  C   UNL     1       3.257   3.873   4.303  0.00  0.00    +0.000 A 
ATOM     22  N   UNL     1       2.494   2.775   4.542  0.00  0.00    +0.000 NA
BRANCH  17  24
ATOM     23  N   UNL     1       1.005   0.531   4.886  0.00  0.00    +0.000 N 
ATOM     24  C   UNL     1       1.358   0.834   3.598  0.00  0.00    +0.000 C 
ATOM     25  O   UNL     1       1.039   0.123   2.655  0.00  0.00    +0.000 OA
ATOM     26  H   UNL     1       0.484  -0.313   5.074  0.00  0.00    +0.000 HD
ATOM     27  H   UNL     1       1.302   1.131   5.648  0.00  0.00    +0.000 HD
ENDBRANCH  17  24
ENDBRANCH  15  20
ENDBRANCH   1  15
TORSDOF 5
