REMARK  Name = 
REMARK  6 active torsions:
REMARK  status: ('A' for Active; 'I' for Inactive)
REMARK    1  A    between atoms: C_1  and  C_2
REMARK    2  A    between atoms: C_2  and  N_3
REMARK    3  A    between atoms: C_2  and  C_16
REMARK    4  A    between atoms: C_4  and  C_6
REMARK    5  A    between atoms: C_19  and  C_20
REMARK    6  A    between atoms: C_20  and  C_21
REMARK                            x       y       z     vdW  Elec       q    Type
REMARK                         _______ _______ _______ _____ _____    ______ ____
ROOT
ATOM      1  C   UNL     1       0.937  -0.042  -0.043  0.00  0.00    +0.000 C 
ATOM      2  C   UNL     1       2.465  -0.117   0.068  0.00  0.00    +0.000 C 
ENDROOT
BRANCH   2   3
ATOM      3  C   UNL     1       2.989  -0.956  -1.087  0.00  0.00    +0.000 A 
ATOM      4  C   UNL     1       3.326  -0.335  -2.297  0.00  0.00    +0.000 A 
ATOM      5  C   UNL     1       3.709  -1.098  -3.403  0.00  0.00    +0.000 A 
ATOM      6  C   UNL     1       3.791  -2.496  -3.314  0.00  0.00    +0.000 A 
ATOM      7  C   UNL     1       3.474  -3.116  -2.102  0.00  0.00    +0.000 A 
ATOM      8  C   UNL     1       3.060  -2.356  -1.008  0.00  0.00    +0.000 A 
BRANCH   6   9
ATOM      9  C   UNL     1       4.191  -3.339  -4.503  0.00  0.00    +0.000 C 
BRANCH   9  10
ATOM     10  C   UNL     1       5.672  -3.595  -4.668  0.00  0.00    +0.000 A 
ATOM     11  C   UNL     1       6.557  -2.532  -4.842  0.00  0.00    +0.000 A 
ATOM     12  C   UNL     1       7.870  -2.798  -5.218  0.00  0.00    +0.000 A 
ATOM     13  C   UNL     1       8.275  -4.114  -5.388  0.00  0.00    +0.000 A 
ATOM     14  C   UNL     1       7.353  -5.117  -5.146  0.00  0.00    +0.000 A 
ATOM     15  N   UNL     1       6.066  -4.889  -4.798  0.00  0.00    +0.000 NA
ENDBRANCH   9  10
ENDBRANCH   6   9
ENDBRANCH   2   3
BRANCH   2  16
ATOM     16  N   UNL     1       2.913  -0.651   1.343  0.00  0.00    +0.000 N 
ATOM     17  C   UNL     1       2.598  -0.050   2.536  0.00  0.00    +0.000 C 
ATOM     18  O   UNL     1       1.902   0.955   2.608  0.00  0.00    +0.000 OA
ATOM     19  H   UNL     1       3.750  -1.228   1.317  0.00  0.00    +0.000 HD
BRANCH  17  20
ATOM     20  C   UNL     1       3.090  -0.708   3.748  0.00  0.00    +0.000 A 
ATOM     21  C   UNL     1       2.370  -0.584   4.927  0.00  0.00    +0.000 A 
ATOM     22  S   UNL     1       3.103  -1.357   6.257  0.00  0.00    +0.000 S 
ATOM     23  C   UNL     1       4.419  -1.862   5.304  0.00  0.00    +0.000 A 
ATOM     24  N   UNL     1       5.467  -2.534   5.854  0.00  0.00    +0.000 NA
ATOM     25  C   UNL     1       6.407  -2.823   5.022  0.00  0.00    +0.000 A 
ATOM     26  N   UNL     1       6.389  -2.529   3.681  0.00  0.00    +0.000 N 
ATOM     27  C   UNL     1       5.329  -1.895   3.073  0.00  0.00    +0.000 A 
ATOM     28  O   UNL     1       5.298  -1.717   1.863  0.00  0.00    +0.000 OA
ATOM     29  C   UNL     1       4.273  -1.494   3.979  0.00  0.00    +0.000 A 
ATOM     30  H   UNL     1       7.144  -2.815   3.079  0.00  0.00    +0.000 HD
ENDBRANCH  17  20
ENDBRANCH   2  16
TORSDOF 5
