REMARK  Name = 
REMARK  6 active torsions:
REMARK  status: ('A' for Active; 'I' for Inactive)
REMARK    1  A    between atoms: C_2  and  C_4
REMARK    2  A    between atoms: C_7  and  N_8
REMARK    3  A    between atoms: N_8  and  C_9
REMARK    4  A    between atoms: C_9  and  C_10
REMARK    5  A    between atoms: C_10  and  C_13
REMARK    6  A    between atoms: C_17  and  C_18
REMARK                            x       y       z     vdW  Elec       q    Type
REMARK                         _______ _______ _______ _____ _____    ______ ____
ROOT
ATOM      1  C   UNL     1       6.429  -5.658   4.168  0.00  0.00    +0.000 C 
ATOM      2  F   UNL     1       7.652  -5.565   3.566  0.00  0.00    +0.000 F 
ATOM      3  F   UNL     1       6.551  -4.962   5.341  0.00  0.00    +0.000 F 
ENDROOT
BRANCH   1   4
ATOM      4  C   UNL     1       6.018  -7.098   4.398  0.00  0.00    +0.000 A 
ATOM      5  C   UNL     1       5.251  -7.451   5.511  0.00  0.00    +0.000 A 
ATOM      6  C   UNL     1       4.838  -8.768   5.686  0.00  0.00    +0.000 A 
ATOM      7  C   UNL     1       5.178  -9.741   4.743  0.00  0.00    +0.000 A 
ATOM      8  C   UNL     1       5.928  -9.424   3.596  0.00  0.00    +0.000 A 
ATOM      9  C   UNL     1       6.352  -8.090   3.454  0.00  0.00    +0.000 A 
BRANCH   8  10
ATOM     10  C   UNL     1       6.227 -10.441   2.564  0.00  0.00    +0.000 A 
ATOM     11  C   UNL     1       7.413 -10.433   1.816  0.00  0.00    +0.000 A 
ATOM     12  C   UNL     1       7.642 -11.396   0.832  0.00  0.00    +0.000 A 
ATOM     13  C   UNL     1       6.676 -12.362   0.620  0.00  0.00    +0.000 A 
ATOM     14  N   UNL     1       5.519 -12.420   1.308  0.00  0.00    +0.000 NA
ATOM     15  C   UNL     1       5.325 -11.463   2.249  0.00  0.00    +0.000 A 
ENDBRANCH   8  10
ENDBRANCH   1   4
BRANCH   1  16
ATOM     16  C   UNL     1       5.372  -4.942   3.290  0.00  0.00    +0.000 C 
BRANCH  16  17
ATOM     17  N   UNL     1       5.672  -3.520   3.067  0.00  0.00    +0.000 N 
ATOM     18  H   UNL     1       6.115  -3.050   3.855  0.00  0.00    +0.000 HD
BRANCH  17  22
ATOM     19  C   UNL     1       3.370  -1.036   0.558  0.00  0.00    +0.000 A 
ATOM     20  C   UNL     1       2.955  -2.349   0.791  0.00  0.00    +0.000 A 
ATOM     21  C   UNL     1       3.694  -3.177   1.646  0.00  0.00    +0.000 A 
ATOM     22  C   UNL     1       4.837  -2.711   2.306  0.00  0.00    +0.000 A 
ATOM     23  C   UNL     1       5.239  -1.391   2.061  0.00  0.00    +0.000 A 
ATOM     24  C   UNL     1       4.519  -0.560   1.192  0.00  0.00    +0.000 A 
BRANCH  19  26
ATOM     25  N   UNL     1       1.330  -0.376  -0.596  0.00  0.00    +0.000 N 
ATOM     26  C   UNL     1       2.663  -0.152  -0.400  0.00  0.00    +0.000 C 
ATOM     27  O   UNL     1       3.240   0.762  -0.978  0.00  0.00    +0.000 OA
ATOM     28  H   UNL     1       0.847   0.290  -1.184  0.00  0.00    +0.000 HD
ATOM     29  H   UNL     1       0.777  -0.938   0.034  0.00  0.00    +0.000 HD
ENDBRANCH  19  26
ENDBRANCH  17  22
ENDBRANCH  16  17
ENDBRANCH   1  16
TORSDOF 6
