REMARK  Name = 
REMARK  4 active torsions:
REMARK  status: ('A' for Active; 'I' for Inactive)
REMARK    1  A    between atoms: N_1  and  C_2
REMARK    2  A    between atoms: C_2  and  C_3
REMARK    3  A    between atoms: C_6  and  C_7
REMARK    4  A    between atoms: C_7  and  N_8
REMARK                            x       y       z     vdW  Elec       q    Type
REMARK                         _______ _______ _______ _____ _____    ______ ____
ROOT
ATOM      1  C   UNL     1       3.402  -4.799   3.458  0.00  0.00    +0.000 C 
ENDROOT
BRANCH   1   2
ATOM      2  N   UNL     1       4.586  -5.175   4.225  0.00  0.00    +0.000 N 
ATOM      3  C   UNL     1       5.770  -5.579   3.658  0.00  0.00    +0.000 A 
ATOM      4  C   UNL     1       6.562  -6.111   4.646  0.00  0.00    +0.000 A 
ATOM      5  C   UNL     1       5.806  -6.109   5.848  0.00  0.00    +0.000 A 
ATOM      6  C   UNL     1       6.025  -6.646   7.131  0.00  0.00    +0.000 A 
ATOM      7  C   UNL     1       5.063  -6.442   8.117  0.00  0.00    +0.000 A 
ATOM      8  F   UNL     1       5.225  -7.016   9.317  0.00  0.00    +0.000 F 
ATOM      9  C   UNL     1       3.938  -5.663   7.883  0.00  0.00    +0.000 A 
ATOM     10  C   UNL     1       3.696  -5.127   6.615  0.00  0.00    +0.000 A 
ATOM     11  C   UNL     1       4.619  -5.414   5.592  0.00  0.00    +0.000 A 
ENDBRANCH   1   2
BRANCH   1  15
ATOM     12  C   UNL     1       3.846  -0.993   1.434  0.00  0.00    +0.000 A 
ATOM     13  C   UNL     1       4.131  -2.194   0.768  0.00  0.00    +0.000 A 
ATOM     14  C   UNL     1       3.983  -3.423   1.418  0.00  0.00    +0.000 A 
ATOM     15  C   UNL     1       3.554  -3.479   2.752  0.00  0.00    +0.000 A 
ATOM     16  C   UNL     1       3.264  -2.280   3.415  0.00  0.00    +0.000 A 
ATOM     17  C   UNL     1       3.411  -1.052   2.763  0.00  0.00    +0.000 A 
BRANCH  12  18
ATOM     18  C   UNL     1       4.052   0.331   0.743  0.00  0.00    +0.000 C 
BRANCH  18  19
ATOM     19  N   UNL     1       3.214   0.469  -0.443  0.00  0.00    +0.000 NA
ATOM     20  H   UNL     1       3.322   1.411  -0.816  0.00  0.00    +0.000 HD
ATOM     21  H   UNL     1       2.238   0.382  -0.164  0.00  0.00    +0.000 HD
ENDBRANCH  18  19
ENDBRANCH  12  18
ENDBRANCH   1  15
TORSDOF 4
