REMARK  Name = 
REMARK  4 active torsions:
REMARK  status: ('A' for Active; 'I' for Inactive)
REMARK    1  A    between atoms: C_2  and  C_4
REMARK    2  A    between atoms: N_8  and  C_9
REMARK    3  A    between atoms: C_9  and  C_10
REMARK    4  A    between atoms: C_14  and  C_15
REMARK                            x       y       z     vdW  Elec       q    Type
REMARK                         _______ _______ _______ _____ _____    ______ ____
ROOT
ATOM      1  C   UNL     1       5.131   0.274   5.881  0.00  0.00    +0.000 C 
ATOM      2  C   UNL     1       5.090  -1.156   6.412  0.00  0.00    +0.000 C 
ATOM      3  C   UNL     1       3.875  -0.295   6.512  0.00  0.00    +0.000 C 
ENDROOT
BRANCH   1   8
ATOM      4  C   UNL     1       3.452   3.051   1.824  0.00  0.00    +0.000 A 
ATOM      5  C   UNL     1       2.702   2.523   2.872  0.00  0.00    +0.000 A 
ATOM      6  C   UNL     1       3.314   1.657   3.783  0.00  0.00    +0.000 A 
ATOM      7  C   UNL     1       4.656   1.327   3.624  0.00  0.00    +0.000 A 
ATOM      8  N   UNL     1       5.308   0.380   4.420  0.00  0.00    +0.000 N 
ATOM      9  N   UNL     1       5.393   1.839   2.618  0.00  0.00    +0.000 NA
ATOM     10  C   UNL     1       4.784   2.684   1.742  0.00  0.00    +0.000 A 
ATOM     11  H   UNL     1       6.280   0.411   4.109  0.00  0.00    +0.000 HD
BRANCH   4  13
ATOM     12  N   UNL     1       1.749   4.632   1.097  0.00  0.00    +0.000 N 
ATOM     13  C   UNL     1       2.883   3.936   0.780  0.00  0.00    +0.000 C 
ATOM     14  O   UNL     1       3.415   4.053  -0.315  0.00  0.00    +0.000 OA
ATOM     15  H   UNL     1       1.421   5.292   0.405  0.00  0.00    +0.000 HD
ATOM     16  H   UNL     1       1.426   4.749   2.044  0.00  0.00    +0.000 HD
ENDBRANCH   4  13
ENDBRANCH   1   8
BRANCH   1  17
ATOM     17  C   UNL     1       5.940   1.315   6.651  0.00  0.00    +0.000 A 
ATOM     18  C   UNL     1       7.232   1.041   7.128  0.00  0.00    +0.000 A 
ATOM     19  C   UNL     1       8.018   2.038   7.702  0.00  0.00    +0.000 A 
ATOM     20  C   UNL     1       7.535   3.343   7.788  0.00  0.00    +0.000 A 
ATOM     21  C   UNL     1       6.255   3.676   7.318  0.00  0.00    +0.000 A 
ATOM     22  C   UNL     1       5.467   2.635   6.791  0.00  0.00    +0.000 A 
BRANCH  21  23
ATOM     23  C   UNL     1       5.790   5.076   7.277  0.00  0.00    +0.000 A 
ATOM     24  C   UNL     1       6.647   6.124   6.908  0.00  0.00    +0.000 A 
ATOM     25  C   UNL     1       6.177   7.431   6.809  0.00  0.00    +0.000 A 
ATOM     26  C   UNL     1       4.842   7.669   7.078  0.00  0.00    +0.000 A 
ATOM     27  N   UNL     1       3.973   6.705   7.444  0.00  0.00    +0.000 NA
ATOM     28  C   UNL     1       4.467   5.444   7.538  0.00  0.00    +0.000 A 
ENDBRANCH  21  23
ENDBRANCH   1  17
TORSDOF 4
