REMARK  Name = 
REMARK  4 active torsions:
REMARK  status: ('A' for Active; 'I' for Inactive)
REMARK    1  A    between atoms: C_2  and  C_3
REMARK    2  A    between atoms: C_6  and  C_7
REMARK    3  A    between atoms: C_7  and  N_8
REMARK    4  A    between atoms: C_12  and  C_13
REMARK                            x       y       z     vdW  Elec       q    Type
REMARK                         _______ _______ _______ _____ _____    ______ ____
ROOT
ATOM      1  N   UNL     1       4.065   1.285   0.962  0.00  0.00    +0.000 N 
ATOM      2  C   UNL     1       4.270   2.512   0.328  0.00  0.00    +0.000 A 
ATOM      3  N   UNL     1       3.697   2.781  -0.854  0.00  0.00    +0.000 NA
ATOM      4  C   UNL     1       3.935   3.996  -1.400  0.00  0.00    +0.000 A 
ATOM      5  C   UNL     1       4.731   4.951  -0.815  0.00  0.00    +0.000 A 
ATOM      6  C   UNL     1       5.295   4.576   0.380  0.00  0.00    +0.000 A 
ATOM      7  N   UNL     1       5.073   3.377   0.971  0.00  0.00    +0.000 NA
ATOM      8  H   UNL     1       4.743   1.226   1.709  0.00  0.00    +0.000 HD
ENDROOT
BRANCH   5   9
ATOM      9  C   UNL     1       4.947   6.240  -1.484  0.00  0.00    +0.000 C 
ATOM     10  N   UNL     1       5.328   7.307  -0.723  0.00  0.00    +0.000 N 
ATOM     11  O   UNL     1       4.764   6.358  -2.689  0.00  0.00    +0.000 OA
ATOM     12  H   UNL     1       5.269   7.332   0.285  0.00  0.00    +0.000 HD
ATOM     13  H   UNL     1       5.368   8.199  -1.203  0.00  0.00    +0.000 HD
ENDBRANCH   5   9
BRANCH   1  14
ATOM     14  C   UNL     1       3.749   0.074   0.188  0.00  0.00    +0.000 C 
ATOM     15  C   UNL     1       4.725  -0.467  -0.844  0.00  0.00    +0.000 C 
ATOM     16  C   UNL     1       4.609  -1.155   0.474  0.00  0.00    +0.000 C 
BRANCH  14  20
ATOM     17  C   UNL     1      -0.464  -0.736  -0.603  0.00  0.00    +0.000 A 
ATOM     18  C   UNL     1       0.261   0.092  -1.459  0.00  0.00    +0.000 A 
ATOM     19  C   UNL     1       1.605   0.368  -1.187  0.00  0.00    +0.000 A 
ATOM     20  C   UNL     1       2.259  -0.162  -0.059  0.00  0.00    +0.000 A 
ATOM     21  C   UNL     1       1.489  -0.953   0.811  0.00  0.00    +0.000 A 
ATOM     22  C   UNL     1       0.150  -1.251   0.542  0.00  0.00    +0.000 A 
BRANCH  17  24
ATOM     23  N   UNL     1      -2.917  -1.371  -1.159  0.00  0.00    +0.000 NA
ATOM     24  C   UNL     1      -1.822  -1.078  -0.906  0.00  0.00    +0.000 C 
ENDBRANCH  17  24
ENDBRANCH  14  20
ENDBRANCH   1  14
TORSDOF 4
