REMARK  Name = 
REMARK  7 active torsions:
REMARK  status: ('A' for Active; 'I' for Inactive)
REMARK    1  A    between atoms: C_2  and  C_21
REMARK    2  A    between atoms: N_3  and  C_4
REMARK    3  A    between atoms: C_4  and  C_5
REMARK    4  A    between atoms: C_8  and  C_9
REMARK    5  A    between atoms: C_9  and  N_10
REMARK    6  A    between atoms: C_11  and  C_13
REMARK    7  A    between atoms: C_16  and  O_17
REMARK                            x       y       z     vdW  Elec       q    Type
REMARK                         _______ _______ _______ _____ _____    ______ ____
ROOT
ATOM      1  C   UNL     1      14.004  -1.931  -7.004  0.00  0.00    +0.000 A 
ATOM      2  C   UNL     1      12.690  -1.650  -6.604  0.00  0.00    +0.000 A 
ATOM      3  C   UNL     1      11.920  -0.705  -7.292  0.00  0.00    +0.000 A 
ATOM      4  C   UNL     1      12.440  -0.038  -8.409  0.00  0.00    +0.000 A 
ATOM      5  C   UNL     1      13.748  -0.330  -8.817  0.00  0.00    +0.000 A 
ATOM      6  C   UNL     1      14.518  -1.275  -8.130  0.00  0.00    +0.000 A 
ENDROOT
BRANCH   1   7
ATOM      7  C   UNL     1      14.832  -2.944  -6.254  0.00  0.00    +0.000 C 
BRANCH   7  10
ATOM      8  O   UNL     1      16.160  -5.225  -5.368  0.00  0.00    +0.000 OA
ATOM      9  C   UNL     1      15.301  -5.347  -6.237  0.00  0.00    +0.000 C 
ATOM     10  N   UNL     1      14.652  -4.270  -6.786  0.00  0.00    +0.000 N 
ATOM     11  H   UNL     1      13.812  -4.428  -7.332  0.00  0.00    +0.000 HD
BRANCH   9  12
ATOM     12  C   UNL     1      14.942  -6.663  -6.780  0.00  0.00    +0.000 A 
ATOM     13  C   UNL     1      15.858  -7.704  -6.758  0.00  0.00    +0.000 A 
ATOM     14  S   UNL     1      15.267  -9.145  -7.458  0.00  0.00    +0.000 S 
ATOM     15  C   UNL     1      13.751  -8.438  -7.770  0.00  0.00    +0.000 A 
ATOM     16  N   UNL     1      12.747  -9.152  -8.347  0.00  0.00    +0.000 NA
ATOM     17  C   UNL     1      11.641  -8.501  -8.485  0.00  0.00    +0.000 A 
ATOM     18  N   UNL     1      11.449  -7.197  -8.104  0.00  0.00    +0.000 N 
ATOM     19  C   UNL     1      12.441  -6.428  -7.556  0.00  0.00    +0.000 A 
ATOM     20  O   UNL     1      12.252  -5.244  -7.280  0.00  0.00    +0.000 OA
ATOM     21  C   UNL     1      13.703  -7.117  -7.361  0.00  0.00    +0.000 A 
ATOM     22  H   UNL     1      10.560  -6.740  -8.253  0.00  0.00    +0.000 HD
ENDBRANCH   9  12
ENDBRANCH   7  10
ENDBRANCH   1   7
BRANCH   4  23
ATOM     23  C   UNL     1      11.604   0.958  -9.170  0.00  0.00    +0.000 C 
BRANCH  23  24
ATOM     24  N   UNL     1      11.777   2.313  -8.695  0.00  0.00    +0.000 N 
ATOM     25  C   UNL     1      11.101   3.341  -9.311  0.00  0.00    +0.000 C 
ATOM     26  O   UNL     1      10.399   3.176 -10.307  0.00  0.00    +0.000 OA
ATOM     27  H   UNL     1      12.216   2.459  -7.795  0.00  0.00    +0.000 HD
BRANCH  25  28
ATOM     28  C   UNL     1      11.367   4.727  -8.738  0.00  0.00    +0.000 C 
ATOM     29  C   UNL     1      12.558   5.369  -9.470  0.00  0.00    +0.000 C 
ATOM     30  C   UNL     1      12.031   6.656 -10.108  0.00  0.00    +0.000 C 
ATOM     31  C   UNL     1      10.534   6.437 -10.249  0.00  0.00    +0.000 C 
ATOM     32  C   UNL     1      10.179   5.674  -8.978  0.00  0.00    +0.000 C 
BRANCH  31  33
ATOM     33  O   UNL     1      10.253   5.698 -11.428  0.00  0.00    +0.000 OA
ATOM     34  H   UNL     1      10.311   4.737 -11.239  0.00  0.00    +0.000 HD
ENDBRANCH  31  33
ENDBRANCH  25  28
ENDBRANCH  23  24
ENDBRANCH   4  23
TORSDOF 7
