REMARK  Name = 
REMARK  9 active torsions:
REMARK  status: ('A' for Active; 'I' for Inactive)
REMARK    1  A    between atoms: N_1  and  C_2
REMARK    2  A    between atoms: C_2  and  N_3
REMARK    3  A    between atoms: C_2  and  C_19
REMARK    4  A    between atoms: N_3  and  C_4
REMARK    5  A    between atoms: C_4  and  C_5
REMARK    6  A    between atoms: C_8  and  C_9
REMARK    7  A    between atoms: C_9  and  N_10
REMARK    8  A    between atoms: N_10  and  C_11
REMARK    9  A    between atoms: C_11  and  C_12
REMARK                            x       y       z     vdW  Elec       q    Type
REMARK                         _______ _______ _______ _____ _____    ______ ____
ROOT
ATOM      1  N   UNL     1       3.480   0.648   1.624  0.00  0.00    +0.000 NA
ATOM      2  H   UNL     1       3.912   1.316   2.267  0.00  0.00    +0.000 HD
ENDROOT
BRANCH   1   3
ATOM      3  C   UNL     1       3.016   1.427   0.496  0.00  0.00    +0.000 C 
BRANCH   3   4
ATOM      4  C   UNL     1       4.214   2.057  -0.195  0.00  0.00    +0.000 A 
ATOM      5  C   UNL     1       4.662   1.748  -1.475  0.00  0.00    +0.000 A 
ATOM      6  S   UNL     1       6.000   2.673  -1.986  0.00  0.00    +0.000 S 
ATOM      7  C   UNL     1       6.032   3.533  -0.520  0.00  0.00    +0.000 A 
ATOM      8  N   UNL     1       6.949   4.512  -0.303  0.00  0.00    +0.000 NA
ATOM      9  C   UNL     1       6.849   5.082   0.852  0.00  0.00    +0.000 A 
ATOM     10  N   UNL     1       5.921   4.758   1.813  0.00  0.00    +0.000 N 
ATOM     11  C   UNL     1       4.998   3.751   1.651  0.00  0.00    +0.000 A 
ATOM     12  O   UNL     1       4.221   3.421   2.543  0.00  0.00    +0.000 OA
ATOM     13  C   UNL     1       5.050   3.103   0.352  0.00  0.00    +0.000 A 
ATOM     14  H   UNL     1       5.922   5.230   2.702  0.00  0.00    +0.000 HD
ENDBRANCH   3   4
BRANCH   3  15
ATOM     15  N   UNL     1       2.406   0.504  -0.431  0.00  0.00    +0.000 NA
ATOM     16  H   UNL     1       1.523   0.178  -0.054  0.00  0.00    +0.000 HD
ATOM     17  H   UNL     1       3.019  -0.312  -0.432  0.00  0.00    +0.000 HD
ENDBRANCH   3  15
ENDBRANCH   1   3
BRANCH   1  18
ATOM     18  C   UNL     1       2.396  -0.016   2.370  0.00  0.00    +0.000 C 
BRANCH  18  19
ATOM     19  C   UNL     1       2.871  -0.787   3.587  0.00  0.00    +0.000 A 
ATOM     20  C   UNL     1       3.478  -0.132   4.651  0.00  0.00    +0.000 A 
ATOM     21  C   UNL     1       3.833  -0.869   5.781  0.00  0.00    +0.000 A 
ATOM     22  C   UNL     1       3.563  -2.239   5.835  0.00  0.00    +0.000 A 
ATOM     23  C   UNL     1       2.968  -2.810   4.718  0.00  0.00    +0.000 A 
ATOM     24  N   UNL     1       2.615  -2.122   3.610  0.00  0.00    +0.000 NA
BRANCH  22  25
ATOM     25  C   UNL     1       3.888  -3.063   7.052  0.00  0.00    +0.000 C 
BRANCH  25  26
ATOM     26  N   UNL     1       3.172  -2.553   8.220  0.00  0.00    +0.000 NA
ATOM     27  H   UNL     1       2.169  -2.589   8.033  0.00  0.00    +0.000 HD
BRANCH  26  28
ATOM     28  C   UNL     1       3.437  -3.355   9.408  0.00  0.00    +0.000 C 
BRANCH  28  29
ATOM     29  C   UNL     1       2.671  -2.777  10.547  0.00  0.00    +0.000 A 
ATOM     30  C   UNL     1       1.698  -3.319  11.364  0.00  0.00    +0.000 A 
ATOM     31  C   UNL     1       1.311  -2.321  12.292  0.00  0.00    +0.000 A 
ATOM     32  C   UNL     1       2.051  -1.194  12.016  0.00  0.00    +0.000 A 
ATOM     33  N   UNL     1       2.867  -1.476  10.953  0.00  0.00    +0.000 N 
ATOM     34  H   UNL     1       3.499  -0.828  10.500  0.00  0.00    +0.000 HD
ENDBRANCH  28  29
ENDBRANCH  26  28
ENDBRANCH  25  26
ENDBRANCH  22  25
ENDBRANCH  18  19
ENDBRANCH   1  18
TORSDOF 9
