REMARK  Name = 
REMARK  10 active torsions:
REMARK  status: ('A' for Active; 'I' for Inactive)
REMARK    1  A    between atoms: C_1  and  O_2
REMARK    2  A    between atoms: O_2  and  C_3
REMARK    3  A    between atoms: C_10  and  C_11
REMARK    4  A    between atoms: N_13  and  C_14
REMARK    5  A    between atoms: C_14  and  C_15
REMARK    6  A    between atoms: C_18  and  O_19
REMARK    7  A    between atoms: O_19  and  C_20
REMARK    8  A    between atoms: C_20  and  C_21
REMARK    9  A    between atoms: C_21  and  O_22
REMARK   10  A    between atoms: C_21  and  C_23
REMARK                            x       y       z     vdW  Elec       q    Type
REMARK                         _______ _______ _______ _____ _____    ______ ____
ROOT
ATOM      1  C   UNL     1       1.517   1.685  -2.699  0.00  0.00    +0.000 A 
ATOM      2  C   UNL     1       1.625   0.300  -2.880  0.00  0.00    +0.000 A 
ATOM      3  C   UNL     1       0.526  -0.459  -3.306  0.00  0.00    +0.000 A 
ATOM      4  C   UNL     1      -0.697   0.157  -3.572  0.00  0.00    +0.000 A 
ATOM      5  C   UNL     1      -0.794   1.545  -3.446  0.00  0.00    +0.000 A 
ATOM      6  C   UNL     1       0.302   2.305  -3.019  0.00  0.00    +0.000 A 
ENDROOT
BRANCH   1   7
ATOM      7  C   UNL     1       2.693   2.492  -2.204  0.00  0.00    +0.000 C 
BRANCH   7  10
ATOM      8  C   UNL     1       4.662   3.670  -3.128  0.00  0.00    +0.000 C 
ATOM      9  O   UNL     1       5.068   3.966  -2.009  0.00  0.00    +0.000 OA
ATOM     10  N   UNL     1       3.509   2.948  -3.300  0.00  0.00    +0.000 N 
ATOM     11  H   UNL     1       3.159   2.770  -4.233  0.00  0.00    +0.000 HD
BRANCH   8  19
ATOM     12  C   UNL     1       4.133   3.099  -6.484  0.00  0.00    +0.000 A 
ATOM     13  N   UNL     1       4.163   3.032  -7.830  0.00  0.00    +0.000 NA
ATOM     14  C   UNL     1       5.167   3.640  -8.467  0.00  0.00    +0.000 A 
ATOM     15  N   UNL     1       6.167   4.324  -7.916  0.00  0.00    +0.000 NA
ATOM     16  C   UNL     1       6.093   4.376  -6.575  0.00  0.00    +0.000 A 
ATOM     17  S   UNL     1       7.286   5.211  -5.700  0.00  0.00    +0.000 S 
ATOM     18  C   UNL     1       6.540   4.832  -4.220  0.00  0.00    +0.000 A 
ATOM     19  C   UNL     1       5.382   4.072  -4.351  0.00  0.00    +0.000 A 
ATOM     20  C   UNL     1       5.118   3.803  -5.766  0.00  0.00    +0.000 A 
BRANCH  12  22
ATOM     21  C   UNL     1       2.512   1.417  -6.578  0.00  0.00    +0.000 C 
ATOM     22  O   UNL     1       3.080   2.492  -5.834  0.00  0.00    +0.000 OA
ENDBRANCH  12  22
ENDBRANCH   8  19
ENDBRANCH   7  10
ENDBRANCH   1   7
BRANCH   4  23
ATOM     23  O   UNL     1      -1.854  -0.477  -3.941  0.00  0.00    +0.000 OA
BRANCH  23  24
ATOM     24  C   UNL     1      -1.781  -1.901  -4.136  0.00  0.00    +0.000 C 
BRANCH  24  25
ATOM     25  C   UNL     1      -3.155  -2.439  -4.568  0.00  0.00    +0.000 C 
BRANCH  25  26
ATOM     26  C   UNL     1      -3.551  -1.922  -5.939  0.00  0.00    +0.000 A 
ATOM     27  C   UNL     1      -4.291  -0.748  -6.079  0.00  0.00    +0.000 A 
ATOM     28  C   UNL     1      -4.603  -0.291  -7.356  0.00  0.00    +0.000 A 
ATOM     29  C   UNL     1      -4.173  -1.013  -8.460  0.00  0.00    +0.000 A 
ATOM     30  C   UNL     1      -3.438  -2.166  -8.240  0.00  0.00    +0.000 A 
ATOM     31  N   UNL     1      -3.111  -2.630  -7.013  0.00  0.00    +0.000 NA
ENDBRANCH  25  26
BRANCH  25  32
ATOM     32  O   UNL     1      -4.152  -2.151  -3.576  0.00  0.00    +0.000 OA
ATOM     33  H   UNL     1      -3.922  -1.281  -3.204  0.00  0.00    +0.000 HD
ENDBRANCH  25  32
ENDBRANCH  24  25
ENDBRANCH  23  24
ENDBRANCH   4  23
TORSDOF 9
