REMARK  Name = 
REMARK  8 active torsions:
REMARK  status: ('A' for Active; 'I' for Inactive)
REMARK    1  A    between atoms: C_1  and  C_2
REMARK    2  A    between atoms: C_2  and  N_3
REMARK    3  A    between atoms: C_2  and  C_25
REMARK    4  A    between atoms: N_3  and  C_4
REMARK    5  A    between atoms: C_4  and  C_5
REMARK    6  A    between atoms: C_8  and  C_9
REMARK    7  A    between atoms: C_9  and  N_10
REMARK    8  A    between atoms: C_11  and  C_13
REMARK                            x       y       z     vdW  Elec       q    Type
REMARK                         _______ _______ _______ _____ _____    ______ ____
ROOT
ATOM      1  C   UNL     1      -0.940   0.913   1.038  0.00  0.00    +0.000 A 
ATOM      2  C   UNL     1      -1.695  -0.019   0.322  0.00  0.00    +0.000 A 
ATOM      3  C   UNL     1      -3.086   0.075   0.314  0.00  0.00    +0.000 A 
ATOM      4  C   UNL     1      -3.695   1.107   1.024  0.00  0.00    +0.000 A 
ATOM      5  N   UNL     1      -2.983   1.998   1.760  0.00  0.00    +0.000 NA
ATOM      6  C   UNL     1      -1.636   1.883   1.747  0.00  0.00    +0.000 A 
ENDROOT
BRANCH   1   7
ATOM      7  C   UNL     1       0.560   0.831   1.107  0.00  0.00    +0.000 C 
BRANCH   7   8
ATOM      8  N   UNL     1       1.177   0.899  -0.220  0.00  0.00    +0.000 NA
ATOM      9  H   UNL     1       0.938   1.799  -0.642  0.00  0.00    +0.000 HD
BRANCH   8  11
ATOM     10  C   UNL     1       3.133  -0.492   0.484  0.00  0.00    +0.000 C 
ATOM     11  C   UNL     1       2.654   0.815  -0.165  0.00  0.00    +0.000 C 
BRANCH  11  12
ATOM     12  C   UNL     1       3.284   0.938  -1.557  0.00  0.00    +0.000 A 
ATOM     13  C   UNL     1       2.973   0.017  -2.560  0.00  0.00    +0.000 A 
ATOM     14  C   UNL     1       3.643   0.083  -3.779  0.00  0.00    +0.000 A 
ATOM     15  C   UNL     1       4.586   1.078  -3.985  0.00  0.00    +0.000 A 
ATOM     16  C   UNL     1       4.812   1.979  -2.957  0.00  0.00    +0.000 A 
ATOM     17  N   UNL     1       4.192   1.930  -1.752  0.00  0.00    +0.000 NA
ENDBRANCH  11  12
ENDBRANCH   8  11
ENDBRANCH   7   8
ENDBRANCH   1   7
BRANCH   4  18
ATOM     18  C   UNL     1      -5.199   1.246   1.037  0.00  0.00    +0.000 C 
BRANCH  18  19
ATOM     19  N   UNL     1      -5.782   0.525   2.146  0.00  0.00    +0.000 N 
ATOM     20  C   UNL     1      -7.031  -0.031   2.083  0.00  0.00    +0.000 C 
ATOM     21  O   UNL     1      -7.712  -0.001   1.062  0.00  0.00    +0.000 OA
ATOM     22  H   UNL     1      -5.364   0.717   3.052  0.00  0.00    +0.000 HD
BRANCH  20  23
ATOM     23  C   UNL     1      -7.484  -0.743   3.284  0.00  0.00    +0.000 A 
ATOM     24  C   UNL     1      -8.423  -1.760   3.169  0.00  0.00    +0.000 A 
ATOM     25  S   UNL     1      -8.796  -2.516   4.652  0.00  0.00    +0.000 S 
ATOM     26  C   UNL     1      -7.754  -1.477   5.507  0.00  0.00    +0.000 A 
ATOM     27  N   UNL     1      -7.624  -1.572   6.859  0.00  0.00    +0.000 NA
ATOM     28  C   UNL     1      -6.824  -0.702   7.378  0.00  0.00    +0.000 A 
ATOM     29  N   UNL     1      -6.139   0.249   6.668  0.00  0.00    +0.000 N 
ATOM     30  C   UNL     1      -6.211   0.359   5.304  0.00  0.00    +0.000 A 
ATOM     31  O   UNL     1      -5.543   1.187   4.694  0.00  0.00    +0.000 OA
ATOM     32  C   UNL     1      -7.114  -0.583   4.666  0.00  0.00    +0.000 A 
ATOM     33  H   UNL     1      -5.518   0.896   7.135  0.00  0.00    +0.000 HD
ENDBRANCH  20  23
ENDBRANCH  18  19
ENDBRANCH   4  18
TORSDOF 7
