REMARK  Name = 
REMARK  7 active torsions:
REMARK  status: ('A' for Active; 'I' for Inactive)
REMARK    1  A    between atoms: C_1  and  O_2
REMARK    2  A    between atoms: O_2  and  C_3
REMARK    3  A    between atoms: C_6  and  C_7
REMARK    4  A    between atoms: C_11  and  C_12
REMARK    5  A    between atoms: C_12  and  O_13
REMARK    6  A    between atoms: O_13  and  C_14
REMARK    7  A    between atoms: C_17  and  C_18
REMARK                            x       y       z     vdW  Elec       q    Type
REMARK                         _______ _______ _______ _____ _____    ______ ____
ROOT
ATOM      1  C   UNL     1       5.299   4.803  -0.023  0.00  0.00    +0.000 A 
ATOM      2  C   UNL     1       5.799   5.368   1.164  0.00  0.00    +0.000 A 
ATOM      3  C   UNL     1       6.604   6.509   1.147  0.00  0.00    +0.000 A 
ATOM      4  C   UNL     1       6.929   7.117  -0.061  0.00  0.00    +0.000 A 
ATOM      5  C   UNL     1       6.455   6.582  -1.262  0.00  0.00    +0.000 A 
ATOM      6  C   UNL     1       5.634   5.444  -1.229  0.00  0.00    +0.000 A 
ENDROOT
BRANCH   1  10
ATOM      7  C   UNL     1       2.933   1.186  -0.018  0.00  0.00    +0.000 A 
ATOM      8  C   UNL     1       2.718   2.167  -0.980  0.00  0.00    +0.000 A 
ATOM      9  C   UNL     1       3.477   3.344  -0.971  0.00  0.00    +0.000 A 
ATOM     10  C   UNL     1       4.481   3.568  -0.013  0.00  0.00    +0.000 A 
ATOM     11  C   UNL     1       4.687   2.558   0.943  0.00  0.00    +0.000 A 
ATOM     12  C   UNL     1       3.921   1.387   0.943  0.00  0.00    +0.000 A 
BRANCH   7  14
ATOM     13  C   UNL     1       1.208  -0.209  -0.850  0.00  0.00    +0.000 C 
ATOM     14  O   UNL     1       2.256   0.003   0.088  0.00  0.00    +0.000 OA
ENDBRANCH   7  14
ENDBRANCH   1  10
BRANCH   5  15
ATOM     15  C   UNL     1       6.868   7.174  -2.585  0.00  0.00    +0.000 C 
BRANCH  15  16
ATOM     16  O   UNL     1       5.948   8.188  -2.996  0.00  0.00    +0.000 OA
BRANCH  16  17
ATOM     17  C   UNL     1       6.343   8.756  -4.193  0.00  0.00    +0.000 A 
ATOM     18  C   UNL     1       5.546   9.752  -4.730  0.00  0.00    +0.000 A 
ATOM     19  C   UNL     1       5.948  10.343  -5.932  0.00  0.00    +0.000 A 
ATOM     20  C   UNL     1       7.128   9.922  -6.556  0.00  0.00    +0.000 A 
ATOM     21  C   UNL     1       7.849   8.916  -5.937  0.00  0.00    +0.000 A 
ATOM     22  N   UNL     1       7.483   8.326  -4.776  0.00  0.00    +0.000 NA
BRANCH  20  23
ATOM     23  C   UNL     1       7.557  10.559  -7.825  0.00  0.00    +0.000 C 
ATOM     24  N   UNL     1       8.714  10.139  -8.422  0.00  0.00    +0.000 N 
ATOM     25  O   UNL     1       6.891  11.450  -8.339  0.00  0.00    +0.000 OA
ATOM     26  H   UNL     1       9.335   9.416  -8.092  0.00  0.00    +0.000 HD
ATOM     27  H   UNL     1       8.967  10.606  -9.289  0.00  0.00    +0.000 HD
ENDBRANCH  20  23
ENDBRANCH  16  17
ENDBRANCH  15  16
ENDBRANCH   5  15
TORSDOF 6
