REMARK  Name = 
REMARK  7 active torsions:
REMARK  status: ('A' for Active; 'I' for Inactive)
REMARK    1  A    between atoms: C_1  and  O_2
REMARK    2  A    between atoms: O_2  and  C_3
REMARK    3  A    between atoms: N_10  and  C_11
REMARK    4  A    between atoms: C_11  and  C_12
REMARK    5  A    between atoms: C_15  and  C_16
REMARK    6  A    between atoms: C_16  and  C_17
REMARK    7  A    between atoms: C_17  and  N_18
REMARK                            x       y       z     vdW  Elec       q    Type
REMARK                         _______ _______ _______ _____ _____    ______ ____
ROOT
ATOM      1  C   UNL     1       5.250   2.183  -5.659  0.00  0.00    +0.000 C 
ENDROOT
BRANCH   1   9
ATOM      2  C   UNL     1       7.107   0.051  -1.175  0.00  0.00    +0.000 A 
ATOM      3  C   UNL     1       7.356   1.330  -1.662  0.00  0.00    +0.000 A 
ATOM      4  C   UNL     1       6.718   1.806  -2.824  0.00  0.00    +0.000 A 
ATOM      5  C   UNL     1       5.832   0.950  -3.498  0.00  0.00    +0.000 A 
ATOM      6  C   UNL     1       5.556  -0.331  -3.009  0.00  0.00    +0.000 A 
ATOM      7  C   UNL     1       4.598  -0.916  -3.879  0.00  0.00    +0.000 A 
ATOM      8  C   UNL     1       4.340  -0.021  -4.884  0.00  0.00    +0.000 A 
ATOM      9  N   UNL     1       5.113   1.100  -4.676  0.00  0.00    +0.000 N 
ATOM     10  C   UNL     1       6.214  -0.788  -1.846  0.00  0.00    +0.000 A 
BRANCH   2  12
ATOM     11  C   UNL     1       8.117   0.437   0.925  0.00  0.00    +0.000 C 
ATOM     12  O   UNL     1       7.709  -0.496  -0.071  0.00  0.00    +0.000 OA
ENDBRANCH   2  12
ENDBRANCH   1   9
BRANCH   1  13
ATOM     13  C   UNL     1       4.209   3.258  -5.470  0.00  0.00    +0.000 A 
ATOM     14  C   UNL     1       4.488   4.389  -4.693  0.00  0.00    +0.000 A 
ATOM     15  C   UNL     1       3.466   5.270  -4.330  0.00  0.00    +0.000 A 
ATOM     16  C   UNL     1       2.149   5.040  -4.744  0.00  0.00    +0.000 A 
ATOM     17  C   UNL     1       1.898   3.998  -5.644  0.00  0.00    +0.000 A 
ATOM     18  C   UNL     1       2.919   3.113  -6.002  0.00  0.00    +0.000 A 
BRANCH  16  19
ATOM     19  C   UNL     1       1.010   5.820  -4.128  0.00  0.00    +0.000 C 
BRANCH  19  20
ATOM     20  C   UNL     1       0.678   7.137  -4.830  0.00  0.00    +0.000 C 
BRANCH  20  21
ATOM     21  N   UNL     1      -0.406   7.831  -4.131  0.00  0.00    +0.000 NA
ATOM     22  H   UNL     1      -1.259   7.274  -4.176  0.00  0.00    +0.000 HD
ATOM     23  H   UNL     1      -0.612   8.708  -4.606  0.00  0.00    +0.000 HD
ENDBRANCH  20  21
ENDBRANCH  19  20
ENDBRANCH  16  19
ENDBRANCH   1  13
TORSDOF 6
