REMARK  Name = 
REMARK  9 active torsions:
REMARK  status: ('A' for Active; 'I' for Inactive)
REMARK    1  A    between atoms: C_1  and  N_2
REMARK    2  A    between atoms: N_2  and  C_3
REMARK    3  A    between atoms: N_2  and  C_4
REMARK    4  A    between atoms: C_4  and  C_5
REMARK    5  A    between atoms: C_5  and  C_6
REMARK    6  A    between atoms: C_6  and  O_7
REMARK    7  A    between atoms: C_6  and  C_17
REMARK    8  A    between atoms: O_7  and  C_8
REMARK    9  A    between atoms: C_11  and  C_12
REMARK                            x       y       z     vdW  Elec       q    Type
REMARK                         _______ _______ _______ _____ _____    ______ ____
ROOT
ATOM      1  C   UNL     1       4.884  -2.230   1.670  0.00  0.00    +0.000 C 
ENDROOT
BRANCH   1   2
ATOM      2  C   UNL     1       6.417  -2.260   1.683  0.00  0.00    +0.000 A 
ATOM      3  C   UNL     1       7.124  -1.702   2.760  0.00  0.00    +0.000 A 
ATOM      4  C   UNL     1       8.521  -1.667   2.752  0.00  0.00    +0.000 A 
ATOM      5  C   UNL     1       9.224  -2.185   1.667  0.00  0.00    +0.000 A 
ATOM      6 CL   UNL     1      10.945  -2.136   1.658  0.00  0.00    +0.000 Cl
ATOM      7  C   UNL     1       8.543  -2.734   0.585  0.00  0.00    +0.000 A 
ATOM      8  C   UNL     1       7.147  -2.766   0.592  0.00  0.00    +0.000 A 
ENDBRANCH   1   2
BRANCH   1   9
ATOM      9  C   UNL     1       4.455  -0.914   0.987  0.00  0.00    +0.000 C 
BRANCH   9  10
ATOM     10  C   UNL     1       2.942  -0.731   0.804  0.00  0.00    +0.000 C 
BRANCH  10  12
ATOM     11  C   UNL     1       3.166   0.692  -1.170  0.00  0.00    +0.000 C 
ATOM     12  N   UNL     1       2.613   0.573   0.183  0.00  0.00    +0.000 NA
ATOM     13  C   UNL     1       1.161   0.769   0.136  0.00  0.00    +0.000 C 
ENDBRANCH  10  12
ENDBRANCH   9  10
ENDBRANCH   1   9
BRANCH   1  14
ATOM     14  O   UNL     1       4.436  -3.355   0.904  0.00  0.00    +0.000 OA
BRANCH  14  15
ATOM     15  C   UNL     1       3.280  -3.962   1.337  0.00  0.00    +0.000 A 
ATOM     16  C   UNL     1       2.560  -4.646   0.372  0.00  0.00    +0.000 A 
ATOM     17  C   UNL     1       1.338  -5.208   0.734  0.00  0.00    +0.000 A 
ATOM     18  C   UNL     1       0.887  -5.100   2.053  0.00  0.00    +0.000 A 
ATOM     19  C   UNL     1       1.715  -4.443   2.955  0.00  0.00    +0.000 A 
ATOM     20  N   UNL     1       2.897  -3.860   2.625  0.00  0.00    +0.000 NA
BRANCH  18  21
ATOM     21  C   UNL     1      -0.445  -5.648   2.397  0.00  0.00    +0.000 C 
ATOM     22  N   UNL     1      -0.882  -5.586   3.691  0.00  0.00    +0.000 N 
ATOM     23  O   UNL     1      -1.170  -6.137   1.534  0.00  0.00    +0.000 OA
ATOM     24  H   UNL     1      -0.366  -5.230   4.479  0.00  0.00    +0.000 HD
ATOM     25  H   UNL     1      -1.810  -5.949   3.868  0.00  0.00    +0.000 HD
ENDBRANCH  18  21
ENDBRANCH  14  15
ENDBRANCH   1  14
TORSDOF 7
