REMARK  Name = 
REMARK  4 active torsions:
REMARK  status: ('A' for Active; 'I' for Inactive)
REMARK    1  A    between atoms: C_2  and  C_4
REMARK    2  A    between atoms: N_8  and  C_9
REMARK    3  A    between atoms: C_9  and  C_10
REMARK    4  A    between atoms: C_14  and  N_15
REMARK                            x       y       z     vdW  Elec       q    Type
REMARK                         _______ _______ _______ _____ _____    ______ ____
ROOT
ATOM      1  C   UNL     1       4.201   1.208  -8.232  0.00  0.00    +0.000 A 
ATOM      2  C   UNL     1       3.691  -0.084  -8.300  0.00  0.00    +0.000 A 
ATOM      3  C   UNL     1       4.090  -1.023  -7.348  0.00  0.00    +0.000 A 
ATOM      4  C   UNL     1       4.992  -0.661  -6.354  0.00  0.00    +0.000 A 
ATOM      5  N   UNL     1       5.390  -1.496  -5.348  0.00  0.00    +0.000 N 
ATOM      6  N   UNL     1       5.531   0.573  -6.312  0.00  0.00    +0.000 NA
ATOM      7  C   UNL     1       5.133   1.479  -7.244  0.00  0.00    +0.000 A 
ATOM      8  H   UNL     1       6.127  -1.107  -4.773  0.00  0.00    +0.000 HD
ENDROOT
BRANCH   1  10
ATOM      9  N   UNL     1       2.543   2.181  -9.711  0.00  0.00    +0.000 N 
ATOM     10  C   UNL     1       3.793   2.280  -9.160  0.00  0.00    +0.000 C 
ATOM     11  O   UNL     1       4.519   3.235  -9.394  0.00  0.00    +0.000 OA
ATOM     12  H   UNL     1       2.234   2.977 -10.255  0.00  0.00    +0.000 HD
ATOM     13  H   UNL     1       1.837   1.557  -9.351  0.00  0.00    +0.000 HD
ENDBRANCH   1  10
BRANCH   5  14
ATOM     14  C   UNL     1       5.051  -2.892  -5.198  0.00  0.00    +0.000 C 
BRANCH  14  15
ATOM     15  C   UNL     1       5.889  -3.824  -6.031  0.00  0.00    +0.000 A 
ATOM     16  C   UNL     1       5.596  -5.182  -6.028  0.00  0.00    +0.000 A 
ATOM     17  N   UNL     1       6.258  -6.098  -6.761  0.00  0.00    +0.000 NA
ATOM     18  C   UNL     1       7.271  -5.632  -7.535  0.00  0.00    +0.000 A 
ATOM     19  C   UNL     1       7.685  -4.301  -7.631  0.00  0.00    +0.000 A 
ATOM     20  C   UNL     1       6.960  -3.407  -6.836  0.00  0.00    +0.000 A 
BRANCH  19  21
ATOM     21  N   UNL     1       8.713  -3.884  -8.447  0.00  0.00    +0.000 N 
ATOM     22  C   UNL     1       9.563  -2.719  -8.153  0.00  0.00    +0.000 C 
ATOM     23  C   UNL     1       9.525  -1.728  -9.324  0.00  0.00    +0.000 C 
ATOM     24  O   UNL     1       9.884  -2.368 -10.562  0.00  0.00    +0.000 OA
ATOM     25  C   UNL     1       8.971  -3.441 -10.850  0.00  0.00    +0.000 C 
ATOM     26  C   UNL     1       8.983  -4.515  -9.747  0.00  0.00    +0.000 C 
ENDBRANCH  19  21
ENDBRANCH  14  15
ENDBRANCH   5  14
TORSDOF 4
