REMARK  Name = 
REMARK  6 active torsions:
REMARK  status: ('A' for Active; 'I' for Inactive)
REMARK    1  A    between atoms: C_2  and  C_3
REMARK    2  A    between atoms: C_6  and  N_7
REMARK    3  A    between atoms: N_7  and  C_8
REMARK    4  A    between atoms: C_8  and  C_9
REMARK    5  A    between atoms: C_13  and  C_14
REMARK    6  A    between atoms: C_18  and  O_19
REMARK                            x       y       z     vdW  Elec       q    Type
REMARK                         _______ _______ _______ _____ _____    ______ ____
ROOT
ATOM      1  C   UNL     1       5.678  -0.449   0.952  0.00  0.00    +0.000 A 
ATOM      2  C   UNL     1       5.515  -0.260   2.338  0.00  0.00    +0.000 A 
ATOM      3  C   UNL     1       6.621  -0.135   3.171  0.00  0.00    +0.000 A 
ATOM      4  C   UNL     1       7.899  -0.147   2.618  0.00  0.00    +0.000 A 
ATOM      5  C   UNL     1       8.092  -0.203   1.226  0.00  0.00    +0.000 A 
ATOM      6  C   UNL     1       6.958  -0.290   0.412  0.00  0.00    +0.000 A 
ENDROOT
BRANCH   5   7
ATOM      7  C   UNL     1       9.434  -0.318   0.636  0.00  0.00    +0.000 A 
ATOM      8  C   UNL     1       9.757   0.240  -0.605  0.00  0.00    +0.000 A 
ATOM      9  N   UNL     1      10.956   0.111  -1.225  0.00  0.00    +0.000 NA
ATOM     10  C   UNL     1      11.895  -0.602  -0.568  0.00  0.00    +0.000 A 
ATOM     11  C   UNL     1      11.685  -1.194   0.665  0.00  0.00    +0.000 A 
ATOM     12  C   UNL     1      10.442  -1.059   1.263  0.00  0.00    +0.000 A 
BRANCH  11  13
ATOM     13  O   UNL     1      12.631  -1.917   1.323  0.00  0.00    +0.000 OA
ATOM     14  H   UNL     1      13.459  -1.885   0.818  0.00  0.00    +0.000 HD
ENDBRANCH  11  13
ENDBRANCH   5   7
BRANCH   1  15
ATOM     15  C   UNL     1       4.577  -1.094   0.125  0.00  0.00    +0.000 C 
ATOM     16  C   UNL     1       4.797  -2.216  -0.875  0.00  0.00    +0.000 C 
ATOM     17  C   UNL     1       4.466  -2.574   0.523  0.00  0.00    +0.000 C 
BRANCH  15  18
ATOM     18  N   UNL     1       3.440  -0.224  -0.162  0.00  0.00    +0.000 N 
ATOM     19  H   UNL     1       2.523  -0.516   0.163  0.00  0.00    +0.000 HD
BRANCH  18  23
ATOM     20  C   UNL     1       3.195   2.477  -3.399  0.00  0.00    +0.000 A 
ATOM     21  C   UNL     1       4.215   1.535  -3.393  0.00  0.00    +0.000 A 
ATOM     22  C   UNL     1       4.317   0.628  -2.334  0.00  0.00    +0.000 A 
ATOM     23  C   UNL     1       3.376   0.624  -1.287  0.00  0.00    +0.000 A 
ATOM     24  C   UNL     1       2.370   1.595  -1.310  0.00  0.00    +0.000 A 
ATOM     25  C   UNL     1       2.273   2.520  -2.348  0.00  0.00    +0.000 A 
BRANCH  20  27
ATOM     26  N   UNL     1       3.030   4.219  -5.318  0.00  0.00    +0.000 NA
ATOM     27  C   UNL     1       3.106   3.435  -4.456  0.00  0.00    +0.000 C 
ENDBRANCH  20  27
ENDBRANCH  18  23
ENDBRANCH  15  18
ENDBRANCH   1  15
TORSDOF 6
