REMARK  Name = 
REMARK  4 active torsions:
REMARK  status: ('A' for Active; 'I' for Inactive)
REMARK    1  A    between atoms: C_2  and  C_4
REMARK    2  A    between atoms: C_7  and  O_8
REMARK    3  A    between atoms: O_8  and  C_9
REMARK    4  A    between atoms: C_9  and  C_10
REMARK                            x       y       z     vdW  Elec       q    Type
REMARK                         _______ _______ _______ _____ _____    ______ ____
ROOT
ATOM      1  C   UNL     1       3.023  -1.154   1.736  0.00  0.00    +0.000 A 
ATOM      2  C   UNL     1       3.905  -1.074   0.662  0.00  0.00    +0.000 A 
ATOM      3  C   UNL     1       4.770  -2.141   0.421  0.00  0.00    +0.000 A 
ATOM      4  C   UNL     1       4.712  -3.252   1.249  0.00  0.00    +0.000 A 
ATOM      5  N   UNL     1       3.863  -3.378   2.288  0.00  0.00    +0.000 NA
ATOM      6  C   UNL     1       3.038  -2.312   2.513  0.00  0.00    +0.000 A 
ENDROOT
BRANCH   1   8
ATOM      7  N   UNL     1       1.796   0.861   1.124  0.00  0.00    +0.000 N 
ATOM      8  C   UNL     1       2.123  -0.045   2.102  0.00  0.00    +0.000 C 
ATOM      9  O   UNL     1       1.674   0.069   3.233  0.00  0.00    +0.000 OA
ATOM     10  H   UNL     1       1.138   1.590   1.380  0.00  0.00    +0.000 HD
ATOM     11  H   UNL     1       1.967   0.710   0.137  0.00  0.00    +0.000 HD
ENDBRANCH   1   8
BRANCH   4  12
ATOM     12  O   UNL     1       5.670  -4.209   0.966  0.00  0.00    +0.000 OA
BRANCH  12  13
ATOM     13  C   UNL     1       5.505  -5.556   1.452  0.00  0.00    +0.000 C 
ATOM     14  C   UNL     1       5.546  -6.513   0.263  0.00  0.00    +0.000 C 
ATOM     15  C   UNL     1       4.298  -6.381   1.064  0.00  0.00    +0.000 C 
BRANCH  13  16
ATOM     16  C   UNL     1       6.277  -5.912   2.713  0.00  0.00    +0.000 A 
ATOM     17  C   UNL     1       5.671  -5.885   3.980  0.00  0.00    +0.000 A 
ATOM     18  C   UNL     1       6.394  -6.167   5.145  0.00  0.00    +0.000 A 
ATOM     19  C   UNL     1       7.747  -6.487   5.070  0.00  0.00    +0.000 A 
ATOM     20  C   UNL     1       8.372  -6.530   3.827  0.00  0.00    +0.000 A 
ATOM     21  C   UNL     1       7.640  -6.246   2.674  0.00  0.00    +0.000 A 
ATOM     22  F   UNL     1       8.281  -6.292   1.495  0.00  0.00    +0.000 F 
ENDBRANCH  13  16
ENDBRANCH  12  13
ENDBRANCH   4  12
TORSDOF 4
