REMARK  Name = 
REMARK  7 active torsions:
REMARK  status: ('A' for Active; 'I' for Inactive)
REMARK    1  A    between atoms: C_2  and  C_3
REMARK    2  A    between atoms: C_5  and  C_6
REMARK    3  A    between atoms: N_8  and  C_9
REMARK    4  A    between atoms: C_9  and  C_10
REMARK    5  A    between atoms: C_13  and  C_14
REMARK    6  A    between atoms: C_14  and  N_15
REMARK    7  A    between atoms: C_16  and  C_18
REMARK                            x       y       z     vdW  Elec       q    Type
REMARK                         _______ _______ _______ _____ _____    ______ ____
ROOT
ATOM      1  C   UNL     1       2.423  -6.129   0.019  0.00  0.00    +0.000 A 
ATOM      2  C   UNL     1       3.169  -7.308  -0.054  0.00  0.00    +0.000 A 
ATOM      3  C   UNL     1       2.521  -8.543  -0.045  0.00  0.00    +0.000 A 
ATOM      4  C   UNL     1       1.129  -8.578   0.009  0.00  0.00    +0.000 A 
ATOM      5  N   UNL     1       0.385  -7.445   0.076  0.00  0.00    +0.000 NA
ATOM      6  C   UNL     1       1.041  -6.260   0.077  0.00  0.00    +0.000 A 
ENDROOT
BRANCH   1   7
ATOM      7  C   UNL     1       3.082  -4.782   0.026  0.00  0.00    +0.000 C 
BRANCH   7  10
ATOM      8  C   UNL     1       3.909  -3.052  -1.495  0.00  0.00    +0.000 C 
ATOM      9  O   UNL     1       4.290  -2.361  -0.554  0.00  0.00    +0.000 OA
ATOM     10  N   UNL     1       3.296  -4.271  -1.309  0.00  0.00    +0.000 N 
ATOM     11  H   UNL     1       3.016  -4.840  -2.092  0.00  0.00    +0.000 HD
BRANCH   8  14
ATOM     12  C   UNL     1       3.982  -2.592  -5.243  0.00  0.00    +0.000 A 
ATOM     13  C   UNL     1       3.663  -3.293  -4.096  0.00  0.00    +0.000 A 
ATOM     14  C   UNL     1       4.080  -2.626  -2.889  0.00  0.00    +0.000 A 
ATOM     15  C   UNL     1       4.708  -1.431  -3.206  0.00  0.00    +0.000 A 
ATOM     16  S   UNL     1       4.788  -1.133  -4.887  0.00  0.00    +0.000 S 
BRANCH  12  18
ATOM     17  N   UNL     1       3.423  -3.393  -7.639  0.00  0.00    +0.000 NA
ATOM     18  C   UNL     1       3.680  -3.021  -6.572  0.00  0.00    +0.000 C 
ENDBRANCH  12  18
ENDBRANCH   8  14
ENDBRANCH   7  10
ENDBRANCH   1   7
BRANCH   4  19
ATOM     19  C   UNL     1       0.400  -9.904   0.047  0.00  0.00    +0.000 C 
BRANCH  19  20
ATOM     20  N   UNL     1       0.192 -10.358   1.406  0.00  0.00    +0.000 N 
ATOM     21  C   UNL     1       0.132 -11.689   1.726  0.00  0.00    +0.000 C 
ATOM     22  O   UNL     1       0.336 -12.570   0.894  0.00  0.00    +0.000 OA
ATOM     23  H   UNL     1      -0.223  -9.675   2.033  0.00  0.00    +0.000 HD
BRANCH  21  24
ATOM     24  C   UNL     1      -0.112 -12.016   3.137  0.00  0.00    +0.000 A 
ATOM     25  C   UNL     1       0.314 -13.237   3.644  0.00  0.00    +0.000 A 
ATOM     26  S   UNL     1       0.001 -13.434   5.309  0.00  0.00    +0.000 S 
ATOM     27  C   UNL     1      -0.763 -11.917   5.400  0.00  0.00    +0.000 A 
ATOM     28  N   UNL     1      -1.295 -11.470   6.570  0.00  0.00    +0.000 NA
ATOM     29  C   UNL     1      -1.874 -10.319   6.487  0.00  0.00    +0.000 A 
ATOM     30  N   UNL     1      -1.964  -9.571   5.342  0.00  0.00    +0.000 N 
ATOM     31  C   UNL     1      -1.413  -9.967   4.146  0.00  0.00    +0.000 A 
ATOM     32  O   UNL     1      -1.467  -9.253   3.150  0.00  0.00    +0.000 OA
ATOM     33  C   UNL     1      -0.763 -11.262   4.182  0.00  0.00    +0.000 A 
ATOM     34  H   UNL     1      -2.422  -8.672   5.344  0.00  0.00    +0.000 HD
ENDBRANCH  21  24
ENDBRANCH  19  20
ENDBRANCH   4  19
TORSDOF 7
