REMARK  Name = 
REMARK  7 active torsions:
REMARK  status: ('A' for Active; 'I' for Inactive)
REMARK    1  A    between atoms: C_2  and  O_3
REMARK    2  A    between atoms: C_2  and  C_25
REMARK    3  A    between atoms: O_3  and  C_4
REMARK    4  A    between atoms: C_4  and  C_5
REMARK    5  A    between atoms: C_8  and  C_9
REMARK    6  A    between atoms: C_9  and  N_10
REMARK    7  A    between atoms: C_11  and  C_13
REMARK                            x       y       z     vdW  Elec       q    Type
REMARK                         _______ _______ _______ _____ _____    ______ ____
ROOT
ATOM      1  C   UNL     1       4.838  -1.302   2.284  0.00  0.00    +0.000 A 
ATOM      2  C   UNL     1       5.378  -0.517   3.300  0.00  0.00    +0.000 A 
ATOM      3  C   UNL     1       5.746  -1.122   4.502  0.00  0.00    +0.000 A 
ATOM      4  C   UNL     1       5.542  -2.491   4.685  0.00  0.00    +0.000 A 
ATOM      5  C   UNL     1       4.994  -3.193   3.618  0.00  0.00    +0.000 A 
ATOM      6  N   UNL     1       4.636  -2.635   2.436  0.00  0.00    +0.000 NA
ENDROOT
BRANCH   1   7
ATOM      7  C   UNL     1       4.453  -0.679   0.960  0.00  0.00    +0.000 C 
BRANCH   7   8
ATOM      8  O   UNL     1       5.079  -1.345  -0.148  0.00  0.00    +0.000 OA
BRANCH   8  10
ATOM      9  O   UNL     1       7.015  -0.171   0.240  0.00  0.00    +0.000 OA
ATOM     10  C   UNL     1       6.373  -1.015  -0.375  0.00  0.00    +0.000 C 
BRANCH  10  11
ATOM     11  C   UNL     1       6.890  -1.787  -1.471  0.00  0.00    +0.000 A 
ATOM     12  C   UNL     1       6.301  -2.722  -2.302  0.00  0.00    +0.000 A 
ATOM     13  C   UNL     1       7.314  -3.108  -3.198  0.00  0.00    +0.000 A 
ATOM     14  N   UNL     1       8.468  -2.484  -2.955  0.00  0.00    +0.000 NA
ATOM     15  N   UNL     1       8.188  -1.700  -1.898  0.00  0.00    +0.000 N 
ATOM     16  H   UNL     1       8.927  -1.125  -1.509  0.00  0.00    +0.000 HD
ENDBRANCH  10  11
ENDBRANCH   8  10
ENDBRANCH   7   8
ENDBRANCH   1   7
BRANCH   4  17
ATOM     17  C   UNL     1       5.917  -3.182   5.963  0.00  0.00    +0.000 C 
BRANCH  17  18
ATOM     18  N   UNL     1       7.276  -3.666   5.935  0.00  0.00    +0.000 N 
ATOM     19  C   UNL     1       7.780  -4.431   6.960  0.00  0.00    +0.000 C 
ATOM     20  O   UNL     1       7.090  -4.776   7.915  0.00  0.00    +0.000 OA
ATOM     21  H   UNL     1       7.922  -3.188   5.316  0.00  0.00    +0.000 HD
BRANCH  19  22
ATOM     22  C   UNL     1       9.175  -4.870   6.820  0.00  0.00    +0.000 A 
ATOM     23  C   UNL     1       9.608  -6.019   7.467  0.00  0.00    +0.000 A 
ATOM     24  S   UNL     1      11.250  -6.389   7.177  0.00  0.00    +0.000 S 
ATOM     25  C   UNL     1      11.449  -4.998   6.217  0.00  0.00    +0.000 A 
ATOM     26  N   UNL     1      12.659  -4.688   5.676  0.00  0.00    +0.000 NA
ATOM     27  C   UNL     1      12.671  -3.595   4.994  0.00  0.00    +0.000 A 
ATOM     28  N   UNL     1      11.584  -2.783   4.793  0.00  0.00    +0.000 N 
ATOM     29  C   UNL     1      10.336  -3.074   5.292  0.00  0.00    +0.000 A 
ATOM     30  O   UNL     1       9.371  -2.356   5.050  0.00  0.00    +0.000 OA
ATOM     31  C   UNL     1      10.274  -4.281   6.092  0.00  0.00    +0.000 A 
ATOM     32  H   UNL     1      11.656  -1.950   4.230  0.00  0.00    +0.000 HD
ENDBRANCH  19  22
ENDBRANCH  17  18
ENDBRANCH   4  17
TORSDOF 7
