REMARK  Name = 
REMARK  6 active torsions:
REMARK  status: ('A' for Active; 'I' for Inactive)
REMARK    1  A    between atoms: C_1  and  N_2
REMARK    2  A    between atoms: N_2  and  C_3
REMARK    3  A    between atoms: C_3  and  C_4
REMARK    4  A    between atoms: C_7  and  C_8
REMARK    5  A    between atoms: C_8  and  N_9
REMARK    6  A    between atoms: C_16  and  C_18
REMARK                            x       y       z     vdW  Elec       q    Type
REMARK                         _______ _______ _______ _____ _____    ______ ____
ROOT
ATOM      1  C   UNL     1       4.482   0.587  -3.057  0.00  0.00    +0.000 C 
ATOM      2  N   UNL     1       4.320   0.283  -1.641  0.00  0.00    +0.000 N 
ATOM      3  C   UNL     1       5.389  -0.390  -1.018  0.00  0.00    +0.000 C 
ATOM      4  O   UNL     1       6.403  -0.702  -1.641  0.00  0.00    +0.000 OA
ENDROOT
BRANCH   3   5
ATOM      5  C   UNL     1       5.269  -0.775   0.396  0.00  0.00    +0.000 A 
ATOM      6  C   UNL     1       4.151  -1.375   0.952  0.00  0.00    +0.000 A 
ATOM      7  S   UNL     1       4.335  -1.773   2.601  0.00  0.00    +0.000 S 
ATOM      8  C   UNL     1       5.970  -1.310   2.581  0.00  0.00    +0.000 A 
ATOM      9  N   UNL     1       6.766  -1.508   3.664  0.00  0.00    +0.000 NA
ATOM     10  C   UNL     1       8.003  -1.178   3.481  0.00  0.00    +0.000 A 
ATOM     11  N   UNL     1       8.498  -0.622   2.331  0.00  0.00    +0.000 N 
ATOM     12  C   UNL     1       7.699  -0.272   1.261  0.00  0.00    +0.000 A 
ATOM     13  O   UNL     1       8.124   0.444   0.360  0.00  0.00    +0.000 OA
ATOM     14  C   UNL     1       6.335  -0.749   1.372  0.00  0.00    +0.000 A 
ATOM     15  H   UNL     1       9.457  -0.314   2.281  0.00  0.00    +0.000 HD
ENDBRANCH   3   5
BRANCH   2  16
ATOM     16  C   UNL     1       3.245   0.920  -0.876  0.00  0.00    +0.000 C 
BRANCH  16  17
ATOM     17  C   UNL     1       2.295   1.857  -1.581  0.00  0.00    +0.000 A 
ATOM     18  C   UNL     1       1.109   1.364  -2.146  0.00  0.00    +0.000 A 
ATOM     19  C   UNL     1       0.168   2.236  -2.698  0.00  0.00    +0.000 A 
ATOM     20  C   UNL     1       0.396   3.619  -2.710  0.00  0.00    +0.000 A 
ATOM     21  C   UNL     1       1.594   4.107  -2.168  0.00  0.00    +0.000 A 
ATOM     22  C   UNL     1       2.535   3.235  -1.609  0.00  0.00    +0.000 A 
BRANCH  20  23
ATOM     23  C   UNL     1      -0.607   4.562  -3.347  0.00  0.00    +0.000 C 
BRANCH  23  24
ATOM     24  N   UNL     1      -1.962   4.431  -2.802  0.00  0.00    +0.000 NA
ATOM     25  C   UNL     1      -2.101   4.938  -1.438  0.00  0.00    +0.000 C 
ATOM     26  C   UNL     1      -2.732   6.309  -1.562  0.00  0.00    +0.000 C 
ATOM     27  O   UNL     1      -3.373   6.350  -2.833  0.00  0.00    +0.000 OA
ATOM     28  C   UNL     1      -2.918   5.221  -3.575  0.00  0.00    +0.000 C 
ENDBRANCH  23  24
ENDBRANCH  20  23
ENDBRANCH  16  17
ENDBRANCH   2  16
TORSDOF 5
