REMARK  Name = 
REMARK  5 active torsions:
REMARK  status: ('A' for Active; 'I' for Inactive)
REMARK    1  A    between atoms: N_1  and  C_2
REMARK    2  A    between atoms: C_2  and  C_3
REMARK    3  A    between atoms: C_3  and  C_4
REMARK    4  A    between atoms: C_7  and  C_8
REMARK    5  A    between atoms: C_8  and  N_9
REMARK                            x       y       z     vdW  Elec       q    Type
REMARK                         _______ _______ _______ _____ _____    ______ ____
ROOT
ATOM      1  C   UNL     1       4.430   0.928  -0.758  0.00  0.00    +0.000 C 
ATOM      2  C   UNL     1       4.838  -0.356  -1.492  0.00  0.00    +0.000 C 
ATOM      3  C   UNL     1       6.353  -0.475  -1.613  0.00  0.00    +0.000 C 
ATOM      4  C   UNL     1       7.072  -0.407  -0.256  0.00  0.00    +0.000 C 
ATOM      5  C   UNL     1       6.619   0.837   0.527  0.00  0.00    +0.000 C 
ATOM      6  C   UNL     1       5.096   0.963   0.625  0.00  0.00    +0.000 C 
ENDROOT
BRANCH   1   7
ATOM      7  C   UNL     1       2.891   1.009  -0.693  0.00  0.00    +0.000 C 
BRANCH   7   8
ATOM      8  C   UNL     1       2.322   2.257  -0.015  0.00  0.00    +0.000 C 
BRANCH   8   9
ATOM      9  N   UNL     1       2.761   3.483  -0.669  0.00  0.00    +0.000 NA
ATOM     10  H   UNL     1       2.323   4.283  -0.217  0.00  0.00    +0.000 HD
ATOM     11  H   UNL     1       2.435   3.490  -1.636  0.00  0.00    +0.000 HD
ENDBRANCH   8   9
ENDBRANCH   7   8
ENDBRANCH   1   7
BRANCH   4  12
ATOM     12  C   UNL     1       8.611  -0.388  -0.408  0.00  0.00    +0.000 C 
BRANCH  12  13
ATOM     13  N   UNL     1       9.162  -1.575  -1.047  0.00  0.00    +0.000 N 
ATOM     14  C   UNL     1       9.554  -2.702  -0.369  0.00  0.00    +0.000 A 
ATOM     15  C   UNL     1       9.904  -3.655  -1.298  0.00  0.00    +0.000 A 
ATOM     16  C   UNL     1       9.738  -3.085  -2.588  0.00  0.00    +0.000 A 
ATOM     17  C   UNL     1       9.890  -3.580  -3.898  0.00  0.00    +0.000 A 
ATOM     18  C   UNL     1       9.644  -2.728  -4.973  0.00  0.00    +0.000 A 
ATOM     19  F   UNL     1       9.748  -3.204  -6.221  0.00  0.00    +0.000 F 
ATOM     20  C   UNL     1       9.292  -1.400  -4.783  0.00  0.00    +0.000 A 
ATOM     21  C   UNL     1       9.148  -0.884  -3.494  0.00  0.00    +0.000 A 
ATOM     22  C   UNL     1       9.344  -1.754  -2.407  0.00  0.00    +0.000 A 
ENDBRANCH  12  13
ENDBRANCH   4  12
TORSDOF 5
