REMARK  Name = 
REMARK  7 active torsions:
REMARK  status: ('A' for Active; 'I' for Inactive)
REMARK    1  A    between atoms: C_1  and  C_2
REMARK    2  A    between atoms: C_2  and  C_3
REMARK    3  A    between atoms: C_7  and  C_8
REMARK    4  A    between atoms: C_8  and  C_9
REMARK    5  A    between atoms: C_9  and  N_10
REMARK    6  A    between atoms: N_10  and  C_11
REMARK    7  A    between atoms: C_14  and  C_15
REMARK                            x       y       z     vdW  Elec       q    Type
REMARK                         _______ _______ _______ _____ _____    ______ ____
ROOT
ATOM      1  C   UNL     1       3.153   3.721  -4.161  0.00  0.00    +0.000 C 
ENDROOT
BRANCH   1   2
ATOM      2  N   UNL     1       3.598   5.016  -4.688  0.00  0.00    +0.000 N 
ATOM      3  H   UNL     1       4.228   4.915  -5.483  0.00  0.00    +0.000 HD
BRANCH   2   4
ATOM      4  C   UNL     1       2.594   5.969  -4.941  0.00  0.00    +0.000 A 
ATOM      5  C   UNL     1       1.413   6.053  -4.194  0.00  0.00    +0.000 A 
ATOM      6  C   UNL     1       0.475   7.051  -4.448  0.00  0.00    +0.000 A 
ATOM      7  C   UNL     1       0.754   7.980  -5.437  0.00  0.00    +0.000 A 
ATOM      8  N   UNL     1       1.904   7.984  -6.164  0.00  0.00    +0.000 NA
ATOM      9  C   UNL     1       2.790   6.994  -5.877  0.00  0.00    +0.000 A 
BRANCH   7  10
ATOM     10  C   UNL     1      -0.245   9.056  -5.730  0.00  0.00    +0.000 C 
ATOM     11  N   UNL     1       0.111   9.938  -6.713  0.00  0.00    +0.000 N 
ATOM     12  O   UNL     1      -1.310   9.151  -5.133  0.00  0.00    +0.000 OA
ATOM     13  H   UNL     1       1.010   9.838  -7.169  0.00  0.00    +0.000 HD
ATOM     14  H   UNL     1      -0.508  10.699  -6.947  0.00  0.00    +0.000 HD
ENDBRANCH   7  10
ENDBRANCH   2   4
ENDBRANCH   1   2
BRANCH   1  15
ATOM     15  C   UNL     1       4.324   2.759  -3.926  0.00  0.00    +0.000 C 
BRANCH  15  20
ATOM     16  C   UNL     1       2.896   0.191  -1.464  0.00  0.00    +0.000 A 
ATOM     17  C   UNL     1       2.578  -0.846  -2.364  0.00  0.00    +0.000 A 
ATOM     18  C   UNL     1       2.860  -0.744  -3.728  0.00  0.00    +0.000 A 
ATOM     19  C   UNL     1       3.457   0.406  -4.233  0.00  0.00    +0.000 A 
ATOM     20  C   UNL     1       3.799   1.452  -3.371  0.00  0.00    +0.000 A 
ATOM     21  C   UNL     1       3.535   1.325  -1.993  0.00  0.00    +0.000 A 
BRANCH  16  23
ATOM     22  C   UNL     1       0.912   0.032   0.048  0.00  0.00    +0.000 C 
ATOM     23  C   UNL     1       2.451   0.082   0.006  0.00  0.00    +0.000 C 
ATOM     24  C   UNL     1       3.084  -1.134   0.692  0.00  0.00    +0.000 C 
ATOM     25  C   UNL     1       4.329  -0.589   1.378  0.00  0.00    +0.000 C 
ATOM     26  O   UNL     1       4.263   0.840   1.345  0.00  0.00    +0.000 OA
ATOM     27  C   UNL     1       2.934   1.194   0.951  0.00  0.00    +0.000 C 
ENDBRANCH  16  23
ENDBRANCH  15  20
ENDBRANCH   1  15
TORSDOF 6
