REMARK  Name = 
REMARK  5 active torsions:
REMARK  status: ('A' for Active; 'I' for Inactive)
REMARK    1  A    between atoms: C_2  and  C_4
REMARK    2  A    between atoms: C_7  and  N_8
REMARK    3  A    between atoms: N_8  and  C_9
REMARK    4  A    between atoms: C_9  and  C_10
REMARK    5  A    between atoms: C_14  and  C_15
REMARK                            x       y       z     vdW  Elec       q    Type
REMARK                         _______ _______ _______ _____ _____    ______ ____
ROOT
ATOM      1  C   UNL     1       4.986  -0.091  -6.104  0.00  0.00    +0.000 C 
ENDROOT
BRANCH   1   2
ATOM      2  C   UNL     1       5.906  -0.499  -7.228  0.00  0.00    +0.000 A 
ATOM      3  C   UNL     1       6.623   0.467  -7.941  0.00  0.00    +0.000 A 
ATOM      4  C   UNL     1       7.504   0.081  -8.945  0.00  0.00    +0.000 A 
ATOM      5  C   UNL     1       7.681  -1.273  -9.242  0.00  0.00    +0.000 A 
ATOM      6  C   UNL     1       6.997  -2.279  -8.534  0.00  0.00    +0.000 A 
ATOM      7  C   UNL     1       6.103  -1.860  -7.531  0.00  0.00    +0.000 A 
BRANCH   6   8
ATOM      8  C   UNL     1       7.230  -3.716  -8.815  0.00  0.00    +0.000 A 
ATOM      9  C   UNL     1       6.202  -4.673  -8.694  0.00  0.00    +0.000 A 
ATOM     10  C   UNL     1       6.429  -6.032  -8.943  0.00  0.00    +0.000 A 
ATOM     11  C   UNL     1       7.693  -6.466  -9.331  0.00  0.00    +0.000 A 
ATOM     12  C   UNL     1       8.714  -5.539  -9.458  0.00  0.00    +0.000 A 
ATOM     13  F   UNL     1       9.934  -5.949  -9.830  0.00  0.00    +0.000 F 
ATOM     14  C   UNL     1       8.498  -4.187  -9.200  0.00  0.00    +0.000 A 
ENDBRANCH   6   8
ENDBRANCH   1   2
BRANCH   1  15
ATOM     15  N   UNL     1       3.626  -0.539  -6.363  0.00  0.00    +0.000 N 
ATOM     16  H   UNL     1       3.333  -0.439  -7.332  0.00  0.00    +0.000 HD
BRANCH  15  20
ATOM     17  C   UNL     1       0.513   0.092  -3.578  0.00  0.00    +0.000 A 
ATOM     18  C   UNL     1       1.798   0.551  -3.289  0.00  0.00    +0.000 A 
ATOM     19  C   UNL     1       2.834   0.366  -4.212  0.00  0.00    +0.000 A 
ATOM     20  C   UNL     1       2.608  -0.251  -5.449  0.00  0.00    +0.000 A 
ATOM     21  C   UNL     1       1.315  -0.722  -5.715  0.00  0.00    +0.000 A 
ATOM     22  C   UNL     1       0.276  -0.560  -4.791  0.00  0.00    +0.000 A 
BRANCH  17  24
ATOM     23  N   UNL     1      -0.533   1.286  -1.734  0.00  0.00    +0.000 N 
ATOM     24  C   UNL     1      -0.598   0.233  -2.606  0.00  0.00    +0.000 C 
ATOM     25  O   UNL     1      -1.552  -0.535  -2.597  0.00  0.00    +0.000 OA
ATOM     26  H   UNL     1      -1.344   1.428  -1.143  0.00  0.00    +0.000 HD
ATOM     27  H   UNL     1       0.090   2.068  -1.872  0.00  0.00    +0.000 HD
ENDBRANCH  17  24
ENDBRANCH  15  20
ENDBRANCH   1  15
TORSDOF 5
