REMARK  Name = 
REMARK  8 active torsions:
REMARK  status: ('A' for Active; 'I' for Inactive)
REMARK    1  A    between atoms: C_1  and  O_2
REMARK    2  A    between atoms: O_2  and  C_3
REMARK    3  A    between atoms: C_5  and  C_6
REMARK    4  A    between atoms: C_11  and  N_12
REMARK    5  A    between atoms: N_12  and  C_13
REMARK    6  A    between atoms: C_13  and  C_14
REMARK    7  A    between atoms: C_17  and  O_18
REMARK    8  A    between atoms: O_18  and  C_19
REMARK                            x       y       z     vdW  Elec       q    Type
REMARK                         _______ _______ _______ _____ _____    ______ ____
ROOT
ATOM      1  N   UNL     1       4.024   0.449  -1.897  0.00  0.00    +0.000 N 
ATOM      2  H   UNL     1       4.973   0.818  -1.923  0.00  0.00    +0.000 HD
ENDROOT
BRANCH   1   8
ATOM      3  C   UNL     1       3.489   2.763  -1.401  0.00  0.00    +0.000 A 
ATOM      4  C   UNL     1       2.693   3.697  -0.733  0.00  0.00    +0.000 A 
ATOM      5  C   UNL     1       1.637   3.258   0.077  0.00  0.00    +0.000 A 
ATOM      6  C   UNL     1       1.416   1.897   0.161  0.00  0.00    +0.000 A 
ATOM      7  N   UNL     1       2.171   0.974  -0.467  0.00  0.00    +0.000 NA
ATOM      8  C   UNL     1       3.212   1.390  -1.218  0.00  0.00    +0.000 A 
BRANCH   5   9
ATOM      9  C   UNL     1       0.804   4.241   0.808  0.00  0.00    +0.000 C 
ATOM     10  N   UNL     1      -0.179   3.797   1.643  0.00  0.00    +0.000 N 
ATOM     11  O   UNL     1       1.002   5.442   0.675  0.00  0.00    +0.000 OA
ATOM     12  H   UNL     1      -0.401   2.837   1.854  0.00  0.00    +0.000 HD
ATOM     13  H   UNL     1      -0.700   4.508   2.143  0.00  0.00    +0.000 HD
ENDBRANCH   5   9
BRANCH   3  15
ATOM     14  C   UNL     1       4.974   4.398  -2.361  0.00  0.00    +0.000 C 
ATOM     15  O   UNL     1       4.534   3.053  -2.242  0.00  0.00    +0.000 OA
ENDBRANCH   3  15
ENDBRANCH   1   8
BRANCH   1  16
ATOM     16  C   UNL     1       3.924  -1.019  -1.775  0.00  0.00    +0.000 C 
ATOM     17  C   UNL     1       2.570  -1.711  -1.832  0.00  0.00    +0.000 C 
ATOM     18  C   UNL     1       3.358  -1.728  -0.557  0.00  0.00    +0.000 C 
BRANCH  16  19
ATOM     19  C   UNL     1       5.038  -1.727  -2.542  0.00  0.00    +0.000 A 
ATOM     20  C   UNL     1       6.091  -2.382  -1.884  0.00  0.00    +0.000 A 
ATOM     21  C   UNL     1       6.998  -3.177  -2.586  0.00  0.00    +0.000 A 
ATOM     22  C   UNL     1       6.859  -3.341  -3.963  0.00  0.00    +0.000 A 
ATOM     23  C   UNL     1       5.910  -2.587  -4.649  0.00  0.00    +0.000 A 
ATOM     24  C   UNL     1       5.009  -1.788  -3.944  0.00  0.00    +0.000 A 
BRANCH  22  25
ATOM     25  O   UNL     1       7.622  -4.165  -4.730  0.00  0.00    +0.000 OA
BRANCH  25  26
ATOM     26  C   UNL     1       7.991  -5.429  -4.187  0.00  0.00    +0.000 C 
ATOM     27  F   UNL     1       7.421  -5.720  -2.998  0.00  0.00    +0.000 F 
ATOM     28  F   UNL     1       7.633  -6.399  -5.060  0.00  0.00    +0.000 F 
ATOM     29  F   UNL     1       9.334  -5.471  -4.043  0.00  0.00    +0.000 F 
ENDBRANCH  25  26
ENDBRANCH  22  25
ENDBRANCH  16  19
ENDBRANCH   1  16
TORSDOF 7
