REMARK  Name = 
REMARK  7 active torsions:
REMARK  status: ('A' for Active; 'I' for Inactive)
REMARK    1  A    between atoms: C_1  and  C_2
REMARK    2  A    between atoms: C_4  and  C_5
REMARK    3  A    between atoms: C_5  and  N_6
REMARK    4  A    between atoms: C_7  and  C_9
REMARK    5  A    between atoms: C_21  and  C_22
REMARK    6  A    between atoms: C_22  and  N_23
REMARK    7  A    between atoms: C_24  and  C_26
REMARK                            x       y       z     vdW  Elec       q    Type
REMARK                         _______ _______ _______ _____ _____    ______ ____
ROOT
ATOM      1  C   UNL     1       2.573   0.218  -0.004  0.00  0.00    +0.000 C 
ATOM      2  C   UNL     1       1.073   0.099   0.014  0.00  0.00    +0.000 A 
ATOM      3  C   UNL     1       0.310   1.286   0.021  0.00  0.00    +0.000 A 
ATOM      4  C   UNL     1      -1.091   1.260   0.042  0.00  0.00    +0.000 A 
ATOM      5  C   UNL     1      -1.735   0.021   0.013  0.00  0.00    +0.000 A 
ATOM      6  C   UNL     1      -0.993  -1.164   0.009  0.00  0.00    +0.000 A 
ATOM      7  C   UNL     1       0.414  -1.148   0.032  0.00  0.00    +0.000 A 
ENDROOT
BRANCH   4   8
ATOM      8  C   UNL     1      -1.884   2.544   0.044  0.00  0.00    +0.000 C 
BRANCH   8   9
ATOM      9  N   UNL     1      -2.141   2.990  -1.302  0.00  0.00    +0.000 N 
ATOM     10  C   UNL     1      -2.726   4.202  -1.564  0.00  0.00    +0.000 C 
ATOM     11  O   UNL     1      -3.022   4.989  -0.670  0.00  0.00    +0.000 OA
ATOM     12  H   UNL     1      -2.109   2.283  -2.030  0.00  0.00    +0.000 HD
BRANCH  10  13
ATOM     13  C   UNL     1      -2.923   4.540  -2.981  0.00  0.00    +0.000 A 
ATOM     14  C   UNL     1      -3.057   5.869  -3.360  0.00  0.00    +0.000 A 
ATOM     15  S   UNL     1      -3.225   6.089  -5.043  0.00  0.00    +0.000 S 
ATOM     16  C   UNL     1      -3.175   4.411  -5.322  0.00  0.00    +0.000 A 
ATOM     17  N   UNL     1      -3.293   3.907  -6.580  0.00  0.00    +0.000 NA
ATOM     18  C   UNL     1      -3.272   2.619  -6.644  0.00  0.00    +0.000 A 
ATOM     19  N   UNL     1      -3.136   1.786  -5.563  0.00  0.00    +0.000 N 
ATOM     20  C   UNL     1      -2.979   2.248  -4.278  0.00  0.00    +0.000 A 
ATOM     21  O   UNL     1      -2.810   1.477  -3.345  0.00  0.00    +0.000 OA
ATOM     22  C   UNL     1      -3.014   3.693  -4.149  0.00  0.00    +0.000 A 
ATOM     23  H   UNL     1      -3.118   0.784  -5.681  0.00  0.00    +0.000 HD
ENDBRANCH  10  13
ENDBRANCH   8   9
ENDBRANCH   4   8
BRANCH   7  24
ATOM     24  C   UNL     1       1.139  -2.478   0.049  0.00  0.00    +0.000 C 
BRANCH  24  25
ATOM     25  N   UNL     1       1.343  -2.987  -1.286  0.00  0.00    +0.000 N 
ATOM     26  C   UNL     1       1.915  -4.223  -1.505  0.00  0.00    +0.000 C 
ATOM     27  O   UNL     1       2.289  -4.963  -0.605  0.00  0.00    +0.000 OA
ATOM     28  H   UNL     1       0.804  -2.575  -2.034  0.00  0.00    +0.000 HD
BRANCH  26  29
ATOM     29  C   UNL     1       2.001  -4.587  -2.921  0.00  0.00    +0.000 A 
ATOM     30  C   UNL     1       2.129  -3.682  -4.033  0.00  0.00    +0.000 A 
ATOM     31  C   UNL     1       2.183  -4.328  -5.248  0.00  0.00    +0.000 A 
ATOM     32  S   UNL     1       2.090  -6.024  -5.071  0.00  0.00    +0.000 S 
ATOM     33  C   UNL     1       2.003  -5.898  -3.366  0.00  0.00    +0.000 A 
ENDBRANCH  26  29
ENDBRANCH  24  25
ENDBRANCH   7  24
TORSDOF 6
