REMARK  Name = 
REMARK  7 active torsions:
REMARK  status: ('A' for Active; 'I' for Inactive)
REMARK    1  A    between atoms: C_1  and  C_2
REMARK    2  A    between atoms: C_2  and  N_3
REMARK    3  A    between atoms: C_2  and  C_16
REMARK    4  A    between atoms: C_4  and  C_6
REMARK    5  A    between atoms: C_19  and  C_20
REMARK    6  A    between atoms: C_20  and  N_21
REMARK    7  A    between atoms: C_22  and  C_24
REMARK                            x       y       z     vdW  Elec       q    Type
REMARK                         _______ _______ _______ _____ _____    ______ ____
ROOT
ATOM      1  C   UNL     1       0.850   0.133  -0.027  0.00  0.00    +0.000 C 
ATOM      2  C   UNL     1       2.383   0.074   0.069  0.00  0.00    +0.000 C 
ENDROOT
BRANCH   2   3
ATOM      3  C   UNL     1       2.920  -0.942  -0.933  0.00  0.00    +0.000 A 
ATOM      4  C   UNL     1       3.799  -0.548  -1.953  0.00  0.00    +0.000 A 
ATOM      5  C   UNL     1       4.219  -1.463  -2.929  0.00  0.00    +0.000 A 
ATOM      6  C   UNL     1       3.763  -2.789  -2.910  0.00  0.00    +0.000 A 
ATOM      7  C   UNL     1       2.937  -3.197  -1.859  0.00  0.00    +0.000 A 
ATOM      8  C   UNL     1       2.522  -2.287  -0.883  0.00  0.00    +0.000 A 
BRANCH   6   9
ATOM      9  C   UNL     1       4.131  -3.761  -4.001  0.00  0.00    +0.000 C 
BRANCH   9  10
ATOM     10  N   UNL     1       5.311  -4.529  -3.682  0.00  0.00    +0.000 N 
ATOM     11  C   UNL     1       5.827  -5.428  -4.584  0.00  0.00    +0.000 C 
ATOM     12  O   UNL     1       5.298  -5.640  -5.674  0.00  0.00    +0.000 OA
ATOM     13  H   UNL     1       5.666  -4.498  -2.732  0.00  0.00    +0.000 HD
BRANCH  11  14
ATOM     14  C   UNL     1       7.049  -6.231  -4.147  0.00  0.00    +0.000 C 
ATOM     15  C   UNL     1       6.669  -7.457  -3.349  0.00  0.00    +0.000 C 
ATOM     16  C   UNL     1       6.578  -6.925  -1.935  0.00  0.00    +0.000 C 
ATOM     17  O   UNL     1       7.417  -5.759  -1.864  0.00  0.00    +0.000 OA
ATOM     18  C   UNL     1       7.951  -5.502  -3.177  0.00  0.00    +0.000 C 
ENDBRANCH  11  14
ENDBRANCH   9  10
ENDBRANCH   6   9
ENDBRANCH   2   3
BRANCH   2  19
ATOM     19  N   UNL     1       2.844  -0.253   1.409  0.00  0.00    +0.000 N 
ATOM     20  C   UNL     1       2.558   0.537   2.497  0.00  0.00    +0.000 C 
ATOM     21  O   UNL     1       1.854   1.539   2.423  0.00  0.00    +0.000 OA
ATOM     22  H   UNL     1       3.663  -0.853   1.464  0.00  0.00    +0.000 HD
BRANCH  20  23
ATOM     23  C   UNL     1       3.085   0.089   3.790  0.00  0.00    +0.000 A 
ATOM     24  C   UNL     1       2.399   0.402   4.955  0.00  0.00    +0.000 A 
ATOM     25  S   UNL     1       3.156  -0.176   6.369  0.00  0.00    +0.000 S 
ATOM     26  C   UNL     1       4.447  -0.828   5.473  0.00  0.00    +0.000 A 
ATOM     27  N   UNL     1       5.495  -1.432   6.096  0.00  0.00    +0.000 NA
ATOM     28  C   UNL     1       6.421  -1.846   5.296  0.00  0.00    +0.000 A 
ATOM     29  N   UNL     1       6.384  -1.729   3.930  0.00  0.00    +0.000 N 
ATOM     30  C   UNL     1       5.326  -1.166   3.255  0.00  0.00    +0.000 A 
ATOM     31  O   UNL     1       5.286  -1.140   2.032  0.00  0.00    +0.000 OA
ATOM     32  C   UNL     1       4.282  -0.646   4.112  0.00  0.00    +0.000 A 
ATOM     33  H   UNL     1       7.131  -2.099   3.360  0.00  0.00    +0.000 HD
ENDBRANCH  20  23
ENDBRANCH   2  19
TORSDOF 6
