REMARK  Name = 
REMARK  8 active torsions:
REMARK  status: ('A' for Active; 'I' for Inactive)
REMARK    1  A    between atoms: N_1  and  C_2
REMARK    2  A    between atoms: C_2  and  C_3
REMARK    3  A    between atoms: C_3  and  N_4
REMARK    4  A    between atoms: N_4  and  C_5
REMARK    5  A    between atoms: C_5  and  C_6
REMARK    6  A    between atoms: C_9  and  C_10
REMARK    7  A    between atoms: C_10  and  N_11
REMARK    8  A    between atoms: C_12  and  C_14
REMARK                            x       y       z     vdW  Elec       q    Type
REMARK                         _______ _______ _______ _____ _____    ______ ____
ROOT
ATOM      1  C   UNL     1      10.785   0.975  -2.594  0.00  0.00    +0.000 C 
ENDROOT
BRANCH   1   5
ATOM      2  C   UNL     1       6.530   1.041  -2.624  0.00  0.00    +0.000 A 
ATOM      3  C   UNL     1       7.180  -0.072  -3.153  0.00  0.00    +0.000 A 
ATOM      4  C   UNL     1       8.571  -0.106  -3.142  0.00  0.00    +0.000 A 
ATOM      5  C   UNL     1       9.288   0.973  -2.621  0.00  0.00    +0.000 A 
ATOM      6  C   UNL     1       8.555   2.031  -2.098  0.00  0.00    +0.000 A 
ATOM      7  N   UNL     1       7.204   2.090  -2.087  0.00  0.00    +0.000 NA
BRANCH   2   8
ATOM      8  C   UNL     1       5.014   1.066  -2.557  0.00  0.00    +0.000 C 
BRANCH   8   9
ATOM      9  N   UNL     1       4.428   0.023  -1.689  0.00  0.00    +0.000 NA
ATOM     10  H   UNL     1       3.424   0.222  -1.641  0.00  0.00    +0.000 HD
BRANCH   9  11
ATOM     11  C   UNL     1       4.920   0.116  -0.301  0.00  0.00    +0.000 C 
BRANCH  11  12
ATOM     12  C   UNL     1       4.499   1.407   0.427  0.00  0.00    +0.000 C 
BRANCH  12  13
ATOM     13  N   UNL     1       3.042   1.587   0.385  0.00  0.00    +0.000 NA
ATOM     14  H   UNL     1       2.807   2.458   0.862  0.00  0.00    +0.000 HD
ATOM     15  H   UNL     1       2.603   0.842   0.925  0.00  0.00    +0.000 HD
ENDBRANCH  12  13
ENDBRANCH  11  12
ENDBRANCH   9  11
ENDBRANCH   8   9
ENDBRANCH   2   8
ENDBRANCH   1   5
BRANCH   1  16
ATOM     16  N   UNL     1      11.298   0.419  -1.368  0.00  0.00    +0.000 N 
ATOM     17  C   UNL     1      12.644   0.449  -1.097  0.00  0.00    +0.000 C 
ATOM     18  O   UNL     1      13.444   0.987  -1.854  0.00  0.00    +0.000 OA
ATOM     19  H   UNL     1      10.702  -0.231  -0.863  0.00  0.00    +0.000 HD
BRANCH  17  20
ATOM     20  C   UNL     1      13.071  -0.134   0.182  0.00  0.00    +0.000 A 
ATOM     21  C   UNL     1      14.275   0.264   0.746  0.00  0.00    +0.000 A 
ATOM     22  S   UNL     1      14.597  -0.460   2.256  0.00  0.00    +0.000 S 
ATOM     23  C   UNL     1      13.166  -1.377   2.183  0.00  0.00    +0.000 A 
ATOM     24  N   UNL     1      12.841  -2.248   3.175  0.00  0.00    +0.000 NA
ATOM     25  C   UNL     1      11.750  -2.907   2.970  0.00  0.00    +0.000 A 
ATOM     26  N   UNL     1      10.949  -2.768   1.867  0.00  0.00    +0.000 N 
ATOM     27  C   UNL     1      11.219  -1.879   0.856  0.00  0.00    +0.000 A 
ATOM     28  O   UNL     1      10.454  -1.740  -0.096  0.00  0.00    +0.000 OA
ATOM     29  C   UNL     1      12.444  -1.120   1.029  0.00  0.00    +0.000 A 
ATOM     30  H   UNL     1      10.104  -3.312   1.772  0.00  0.00    +0.000 HD
ENDBRANCH  17  20
ENDBRANCH   1  16
TORSDOF 8
