REMARK  Name = 
REMARK  10 active torsions:
REMARK  status: ('A' for Active; 'I' for Inactive)
REMARK    1  A    between atoms: C_1  and  C_2
REMARK    2  A    between atoms: C_2  and  C_3
REMARK    3  A    between atoms: C_3  and  N_4
REMARK    4  A    between atoms: C_3  and  C_20
REMARK    5  A    between atoms: N_4  and  C_5
REMARK    6  A    between atoms: C_5  and  C_6
REMARK    7  A    between atoms: C_9  and  C_10
REMARK    8  A    between atoms: C_10  and  N_11
REMARK    9  A    between atoms: N_11  and  C_12
REMARK   10  A    between atoms: C_12  and  C_13
REMARK                            x       y       z     vdW  Elec       q    Type
REMARK                         _______ _______ _______ _____ _____    ______ ____
ROOT
ATOM      1  C   UNL     1       1.050   2.663   0.097  0.00  0.00    +0.000 C 
ENDROOT
BRANCH   1   2
ATOM      2  C   UNL     1       0.664   3.855   0.940  0.00  0.00    +0.000 A 
ATOM      3  C   UNL     1       1.268   5.104   0.744  0.00  0.00    +0.000 A 
ATOM      4  C   UNL     1       0.873   6.206   1.502  0.00  0.00    +0.000 A 
ATOM      5  C   UNL     1      -0.150   6.088   2.453  0.00  0.00    +0.000 A 
ATOM      6  C   UNL     1      -0.758   4.842   2.645  0.00  0.00    +0.000 A 
ATOM      7  C   UNL     1      -0.353   3.736   1.897  0.00  0.00    +0.000 A 
BRANCH   5   8
ATOM      8  C   UNL     1      -0.576   7.282   3.268  0.00  0.00    +0.000 C 
BRANCH   8   9
ATOM      9  N   UNL     1      -1.082   8.354   2.406  0.00  0.00    +0.000 NA
ATOM     10  H   UNL     1      -1.885   7.987   1.894  0.00  0.00    +0.000 HD
BRANCH   9  11
ATOM     11  C   UNL     1      -1.516   9.484   3.220  0.00  0.00    +0.000 C 
BRANCH  11  12
ATOM     12  C   UNL     1      -2.035  10.572   2.359  0.00  0.00    +0.000 A 
ATOM     13  C   UNL     1      -3.008  11.526   2.570  0.00  0.00    +0.000 A 
ATOM     14  C   UNL     1      -3.037  12.279   1.383  0.00  0.00    +0.000 A 
ATOM     15  N   UNL     1      -2.145  11.852   0.487  0.00  0.00    +0.000 NA
ATOM     16  N   UNL     1      -1.541  10.824   1.108  0.00  0.00    +0.000 N 
ATOM     17  H   UNL     1      -0.811  10.310   0.623  0.00  0.00    +0.000 HD
ENDBRANCH  11  12
ENDBRANCH   9  11
ENDBRANCH   8   9
ENDBRANCH   5   8
ENDBRANCH   1   2
BRANCH   1  18
ATOM     18  N   UNL     1       2.461   2.313   0.250  0.00  0.00    +0.000 NA
ATOM     19  H   UNL     1       3.031   3.131   0.044  0.00  0.00    +0.000 HD
BRANCH  18  20
ATOM     20  C   UNL     1       2.921   1.198  -0.590  0.00  0.00    +0.000 C 
BRANCH  20  21
ATOM     21  C   UNL     1       2.208  -0.079  -0.146  0.00  0.00    +0.000 A 
ATOM     22  C   UNL     1       1.036  -0.550  -0.722  0.00  0.00    +0.000 A 
ATOM     23  S   UNL     1       0.403  -1.938   0.035  0.00  0.00    +0.000 S 
ATOM     24  C   UNL     1       1.685  -1.980   1.145  0.00  0.00    +0.000 A 
ATOM     25  N   UNL     1       1.734  -2.945   2.107  0.00  0.00    +0.000 NA
ATOM     26  C   UNL     1       2.754  -2.859   2.890  0.00  0.00    +0.000 A 
ATOM     27  N   UNL     1       3.736  -1.904   2.798  0.00  0.00    +0.000 N 
ATOM     28  C   UNL     1       3.756  -0.931   1.815  0.00  0.00    +0.000 A 
ATOM     29  O   UNL     1       4.708  -0.166   1.704  0.00  0.00    +0.000 OA
ATOM     30  C   UNL     1       2.602  -0.961   0.935  0.00  0.00    +0.000 A 
ATOM     31  H   UNL     1       4.528  -1.920   3.423  0.00  0.00    +0.000 HD
ENDBRANCH  20  21
BRANCH  20  33
ATOM     32  C   UNL     1       3.466   2.718  -2.632  0.00  0.00    +0.000 C 
ATOM     33  C   UNL     1       2.799   1.449  -2.117  0.00  0.00    +0.000 C 
ENDBRANCH  20  33
ENDBRANCH  18  20
ENDBRANCH   1  18
TORSDOF 9
