REMARK  Name = 
REMARK  9 active torsions:
REMARK  status: ('A' for Active; 'I' for Inactive)
REMARK    1  A    between atoms: C_1  and  O_2
REMARK    2  A    between atoms: O_2  and  C_3
REMARK    3  A    between atoms: C_10  and  C_11
REMARK    4  A    between atoms: N_13  and  C_14
REMARK    5  A    between atoms: C_14  and  C_15
REMARK    6  A    between atoms: C_18  and  C_19
REMARK    7  A    between atoms: C_19  and  N_20
REMARK    8  A    between atoms: N_20  and  C_21
REMARK    9  A    between atoms: C_21  and  C_22
REMARK                            x       y       z     vdW  Elec       q    Type
REMARK                         _______ _______ _______ _____ _____    ______ ____
ROOT
ATOM      1  C   UNL     1       1.667   3.227   1.007  0.00  0.00    +0.000 A 
ATOM      2  C   UNL     1       0.671   2.289   0.708  0.00  0.00    +0.000 A 
ATOM      3  C   UNL     1      -0.437   2.643  -0.072  0.00  0.00    +0.000 A 
ATOM      4  C   UNL     1      -0.588   3.948  -0.562  0.00  0.00    +0.000 A 
ATOM      5  C   UNL     1       0.390   4.897  -0.230  0.00  0.00    +0.000 A 
ATOM      6  C   UNL     1       1.507   4.540   0.540  0.00  0.00    +0.000 A 
ENDROOT
BRANCH   1   7
ATOM      7  C   UNL     1       2.898   2.814   1.778  0.00  0.00    +0.000 C 
BRANCH   7  10
ATOM      8  C   UNL     1       5.118   1.827   1.407  0.00  0.00    +0.000 C 
ATOM      9  O   UNL     1       5.338   1.841   2.619  0.00  0.00    +0.000 OA
ATOM     10  N   UNL     1       3.934   2.304   0.905  0.00  0.00    +0.000 N 
ATOM     11  H   UNL     1       3.750   2.270  -0.090  0.00  0.00    +0.000 HD
BRANCH   8  19
ATOM     12  C   UNL     1       5.210   1.417  -2.022  0.00  0.00    +0.000 A 
ATOM     13  N   UNL     1       5.503   1.130  -3.309  0.00  0.00    +0.000 NA
ATOM     14  C   UNL     1       6.696   0.595  -3.579  0.00  0.00    +0.000 A 
ATOM     15  N   UNL     1       7.655   0.302  -2.706  0.00  0.00    +0.000 NA
ATOM     16  C   UNL     1       7.316   0.588  -1.437  0.00  0.00    +0.000 A 
ATOM     17  S   UNL     1       8.424   0.277  -0.191  0.00  0.00    +0.000 S 
ATOM     18  C   UNL     1       7.337   0.855   0.980  0.00  0.00    +0.000 A 
ATOM     19  C   UNL     1       6.122   1.300   0.464  0.00  0.00    +0.000 A 
ATOM     20  C   UNL     1       6.117   1.138  -0.988  0.00  0.00    +0.000 A 
BRANCH  12  22
ATOM     21  C   UNL     1       3.470   2.715  -2.862  0.00  0.00    +0.000 C 
ATOM     22  O   UNL     1       3.981   1.981  -1.750  0.00  0.00    +0.000 OA
ENDBRANCH  12  22
ENDBRANCH   8  19
ENDBRANCH   7  10
ENDBRANCH   1   7
BRANCH   4  23
ATOM     23  C   UNL     1      -1.757   4.302  -1.464  0.00  0.00    +0.000 C 
BRANCH  23  24
ATOM     24  N   UNL     1      -3.037   4.048  -0.810  0.00  0.00    +0.000 NA
ATOM     25  H   UNL     1      -3.104   4.619   0.035  0.00  0.00    +0.000 HD
BRANCH  24  26
ATOM     26  C   UNL     1      -4.183   4.395  -1.664  0.00  0.00    +0.000 C 
BRANCH  26  27
ATOM     27  C   UNL     1      -5.496   4.192  -0.930  0.00  0.00    +0.000 A 
ATOM     28  N   UNL     1      -5.694   4.922   0.207  0.00  0.00    +0.000 NA
ATOM     29  C   UNL     1      -6.854   4.726   0.874  0.00  0.00    +0.000 A 
ATOM     30  C   UNL     1      -7.846   3.847   0.465  0.00  0.00    +0.000 A 
ATOM     31  C   UNL     1      -7.636   3.123  -0.706  0.00  0.00    +0.000 A 
ATOM     32  C   UNL     1      -6.450   3.302  -1.411  0.00  0.00    +0.000 A 
ATOM     33  F   UNL     1      -6.254   2.609  -2.540  0.00  0.00    +0.000 F 
ENDBRANCH  26  27
ENDBRANCH  24  26
ENDBRANCH  23  24
ENDBRANCH   4  23
TORSDOF 8
