REMARK  Name = 
REMARK  10 active torsions:
REMARK  status: ('A' for Active; 'I' for Inactive)
REMARK    1  A    between atoms: N_1  and  C_2
REMARK    2  A    between atoms: C_2  and  C_3
REMARK    3  A    between atoms: C_3  and  C_4
REMARK    4  A    between atoms: C_4  and  N_5
REMARK    5  A    between atoms: C_4  and  C_27
REMARK    6  A    between atoms: N_5  and  C_6
REMARK    7  A    between atoms: C_6  and  C_7
REMARK    8  A    between atoms: C_10  and  C_11
REMARK    9  A    between atoms: C_11  and  N_12
REMARK   10  A    between atoms: C_13  and  C_15
REMARK                            x       y       z     vdW  Elec       q    Type
REMARK                         _______ _______ _______ _____ _____    ______ ____
ROOT
ATOM      1  C   UNL     1       5.276  -2.790  -0.034  0.00  0.00    +0.000 A 
ATOM      2  C   UNL     1       6.566  -3.055   0.445  0.00  0.00    +0.000 A 
ATOM      3  C   UNL     1       7.037  -4.369   0.533  0.00  0.00    +0.000 A 
ATOM      4  C   UNL     1       6.225  -5.442   0.141  0.00  0.00    +0.000 A 
ATOM      5  C   UNL     1       4.925  -5.180  -0.306  0.00  0.00    +0.000 A 
ATOM      6  C   UNL     1       4.460  -3.869  -0.400  0.00  0.00    +0.000 A 
ENDROOT
BRANCH   1   7
ATOM      7  C   UNL     1       4.707  -1.389  -0.065  0.00  0.00    +0.000 C 
BRANCH   7   8
ATOM      8  N   UNL     1       5.506  -0.459  -0.862  0.00  0.00    +0.000 NA
ATOM      9  H   UNL     1       6.456  -0.425  -0.502  0.00  0.00    +0.000 HD
BRANCH   8  10
ATOM     10  C   UNL     1       4.957   0.918  -0.850  0.00  0.00    +0.000 C 
BRANCH  10  11
ATOM     11  C   UNL     1       3.559   0.997  -1.484  0.00  0.00    +0.000 A 
ATOM     12  C   UNL     1       3.413   1.041  -2.870  0.00  0.00    +0.000 A 
ATOM     13  C   UNL     1       2.131   1.134  -3.408  0.00  0.00    +0.000 A 
ATOM     14  C   UNL     1       1.031   1.155  -2.558  0.00  0.00    +0.000 A 
ATOM     15  C   UNL     1       1.256   1.066  -1.198  0.00  0.00    +0.000 A 
ATOM     16  N   UNL     1       2.484   0.986  -0.648  0.00  0.00    +0.000 NA
ENDBRANCH  10  11
BRANCH  10  17
ATOM     17  C   UNL     1       4.934   1.613   0.538  0.00  0.00    +0.000 C 
BRANCH  17  18
ATOM     18  C   UNL     1       6.266   1.729   1.273  0.00  0.00    +0.000 C 
BRANCH  18  19
ATOM     19  N   UNL     1       7.237   2.541   0.551  0.00  0.00    +0.000 NA
ATOM     20  H   UNL     1       8.054   2.688   1.146  0.00  0.00    +0.000 HD
ATOM     21  H   UNL     1       6.848   3.471   0.389  0.00  0.00    +0.000 HD
ENDBRANCH  18  19
ENDBRANCH  17  18
ENDBRANCH  10  17
ENDBRANCH   8  10
ENDBRANCH   7   8
ENDBRANCH   1   7
BRANCH   4  22
ATOM     22  C   UNL     1       6.699  -6.865   0.264  0.00  0.00    +0.000 C 
BRANCH  22  23
ATOM     23  N   UNL     1       6.369  -7.392   1.562  0.00  0.00    +0.000 N 
ATOM     24  C   UNL     1       6.736  -8.654   1.941  0.00  0.00    +0.000 C 
ATOM     25  O   UNL     1       7.392  -9.393   1.211  0.00  0.00    +0.000 OA
ATOM     26  H   UNL     1       5.633  -6.913   2.072  0.00  0.00    +0.000 HD
BRANCH  24  27
ATOM     27  C   UNL     1       6.361  -9.050   3.305  0.00  0.00    +0.000 A 
ATOM     28  C   UNL     1       7.095 -10.029   3.962  0.00  0.00    +0.000 A 
ATOM     29  S   UNL     1       6.563 -10.322   5.555  0.00  0.00    +0.000 S 
ATOM     30  C   UNL     1       5.302  -9.190   5.402  0.00  0.00    +0.000 A 
ATOM     31  N   UNL     1       4.432  -8.968   6.424  0.00  0.00    +0.000 NA
ATOM     32  C   UNL     1       3.513  -8.100   6.162  0.00  0.00    +0.000 A 
ATOM     33  N   UNL     1       3.389  -7.427   4.972  0.00  0.00    +0.000 N 
ATOM     34  C   UNL     1       4.252  -7.604   3.922  0.00  0.00    +0.000 A 
ATOM     35  O   UNL     1       4.125  -6.967   2.884  0.00  0.00    +0.000 OA
ATOM     36  C   UNL     1       5.302  -8.579   4.161  0.00  0.00    +0.000 A 
ATOM     37  H   UNL     1       2.648  -6.757   4.833  0.00  0.00    +0.000 HD
ENDBRANCH  24  27
ENDBRANCH  22  23
ENDBRANCH   4  22
TORSDOF 10
