REMARK  Name = 
REMARK  5 active torsions:
REMARK  status: ('A' for Active; 'I' for Inactive)
REMARK    1  A    between atoms: N_1  and  C_2
REMARK    2  A    between atoms: C_2  and  C_3
REMARK    3  A    between atoms: C_6  and  C_7
REMARK    4  A    between atoms: C_7  and  O_8
REMARK    5  A    between atoms: O_8  and  C_9
REMARK                            x       y       z     vdW  Elec       q    Type
REMARK                         _______ _______ _______ _____ _____    ______ ____
ROOT
ATOM      1  C   UNL     1       2.842   0.518  -1.421  0.00  0.00    +0.000 A 
ATOM      2  C   UNL     1       2.732   1.880  -1.711  0.00  0.00    +0.000 A 
ATOM      3  C   UNL     1       3.150   2.363  -2.950  0.00  0.00    +0.000 A 
ATOM      4  C   UNL     1       3.660   1.467  -3.885  0.00  0.00    +0.000 A 
ATOM      5  N   UNL     1       3.791   0.141  -3.622  0.00  0.00    +0.000 NA
ATOM      6  C   UNL     1       3.392  -0.296  -2.404  0.00  0.00    +0.000 A 
ENDROOT
BRANCH   1   7
ATOM      7  C   UNL     1       2.387  -0.043  -0.106  0.00  0.00    +0.000 C 
BRANCH   7   8
ATOM      8  N   UNL     1       0.959   0.171   0.097  0.00  0.00    +0.000 NA
ATOM      9  H   UNL     1       0.669  -0.284   0.962  0.00  0.00    +0.000 HD
ATOM     10  H   UNL     1       0.443  -0.285  -0.654  0.00  0.00    +0.000 HD
ENDBRANCH   7   8
ENDBRANCH   1   7
BRANCH   4  11
ATOM     11  C   UNL     1       4.082   1.953  -5.255  0.00  0.00    +0.000 C 
BRANCH  11  12
ATOM     12  O   UNL     1       5.435   2.408  -5.201  0.00  0.00    +0.000 OA
BRANCH  12  13
ATOM     13  C   UNL     1       5.974   2.897  -6.359  0.00  0.00    +0.000 A 
ATOM     14  C   UNL     1       5.336   2.988  -7.591  0.00  0.00    +0.000 A 
ATOM     15  C   UNL     1       6.041   3.539  -8.653  0.00  0.00    +0.000 A 
ATOM     16  N   UNL     1       7.310   3.989  -8.567  0.00  0.00    +0.000 NA
ATOM     17  C   UNL     1       7.908   3.877  -7.362  0.00  0.00    +0.000 A 
ATOM     18  C   UNL     1       7.288   3.344  -6.245  0.00  0.00    +0.000 A 
ENDBRANCH  12  13
ENDBRANCH  11  12
ENDBRANCH   4  11
TORSDOF 5
