REMARK  Name = 
REMARK  10 active torsions:
REMARK  status: ('A' for Active; 'I' for Inactive)
REMARK    1  A    between atoms: C_1  and  C_2
REMARK    2  A    between atoms: C_2  and  C_3
REMARK    3  A    between atoms: C_3  and  C_4
REMARK    4  A    between atoms: C_3  and  C_5
REMARK    5  A    between atoms: C_3  and  C_6
REMARK    6  A    between atoms: N_8  and  C_9
REMARK    7  A    between atoms: C_9  and  C_10
REMARK    8  A    between atoms: C_19  and  C_20
REMARK    9  A    between atoms: N_22  and  C_23
REMARK   10  A    between atoms: N_22  and  C_24
REMARK                            x       y       z     vdW  Elec       q    Type
REMARK                         _______ _______ _______ _____ _____    ______ ____
ROOT
ATOM      1  C   UNL     1       4.596  -1.108  -0.810  0.00  0.00    +0.000 A 
ATOM      2  C   UNL     1       5.417  -2.222  -0.788  0.00  0.00    +0.000 A 
ATOM      3  N   UNL     1       6.723  -1.824  -0.886  0.00  0.00    +0.000 N 
ATOM      4  C   UNL     1       6.793  -0.455  -1.008  0.00  0.00    +0.000 A 
ATOM      5  C   UNL     1       7.887   0.394  -1.249  0.00  0.00    +0.000 A 
ATOM      6  C   UNL     1       7.670   1.778  -1.276  0.00  0.00    +0.000 A 
ATOM      7  C   UNL     1       6.418   2.317  -0.994  0.00  0.00    +0.000 A 
ATOM      8  C   UNL     1       5.320   1.439  -0.839  0.00  0.00    +0.000 A 
ATOM      9  C   UNL     1       5.488   0.032  -0.863  0.00  0.00    +0.000 A 
ENDROOT
BRANCH   7  10
ATOM     10  C   UNL     1       6.130   3.787  -0.946  0.00  0.00    +0.000 C 
ATOM     11  O   UNL     1       5.005   4.127  -1.323  0.00  0.00    +0.000 OA
ATOM     12  N   UNL     1       7.051   4.737  -0.476  0.00  0.00    +0.000 N 
ATOM     13  C   UNL     1       8.396   4.505   0.032  0.00  0.00    +0.000 C 
ATOM     14  C   UNL     1       6.657   6.140  -0.518  0.00  0.00    +0.000 C 
ENDBRANCH   7  10
BRANCH   1  15
ATOM     15  C   UNL     1       3.059  -1.135  -0.821  0.00  0.00    +0.000 C 
ATOM     16  C   UNL     1       2.510  -2.587  -0.869  0.00  0.00    +0.000 C 
ATOM     17  C   UNL     1       2.546  -0.449  -2.112  0.00  0.00    +0.000 C 
BRANCH  15  19
ATOM     18  C   UNL     1       2.790  -1.001   1.764  0.00  0.00    +0.000 C 
ATOM     19  C   UNL     1       2.443  -0.405   0.403  0.00  0.00    +0.000 C 
ENDBRANCH  15  19
ENDBRANCH   1  15
BRANCH   3  20
ATOM     20  C   UNL     1       7.855  -2.742  -0.814  0.00  0.00    +0.000 C 
BRANCH  20  21
ATOM     21  C   UNL     1       8.194  -3.411  -2.112  0.00  0.00    +0.000 A 
ATOM     22  C   UNL     1       7.656  -3.104  -3.346  0.00  0.00    +0.000 A 
ATOM     23  N   UNL     1       7.974  -3.753  -4.484  0.00  0.00    +0.000 NA
ATOM     24  C   UNL     1       8.872  -4.742  -4.370  0.00  0.00    +0.000 A 
ATOM     25  N   UNL     1       9.481  -5.119  -3.237  0.00  0.00    +0.000 NA
ATOM     26  C   UNL     1       9.125  -4.435  -2.132  0.00  0.00    +0.000 A 
ENDBRANCH  20  21
ENDBRANCH   3  20
TORSDOF 5
