REMARK  Name = 
REMARK  5 active torsions:
REMARK  status: ('A' for Active; 'I' for Inactive)
REMARK    1  A    between atoms: N_1  and  C_2
REMARK    2  A    between atoms: C_2  and  C_3
REMARK    3  A    between atoms: C_6  and  C_7
REMARK    4  A    between atoms: C_7  and  N_8
REMARK    5  A    between atoms: C_13  and  C_14
REMARK                            x       y       z     vdW  Elec       q    Type
REMARK                         _______ _______ _______ _____ _____    ______ ____
ROOT
ATOM      1  N   UNL     1       0.239  -2.147   4.907  0.00  0.00    +0.000 N 
ATOM      2  C   UNL     1       0.630  -2.571   6.157  0.00  0.00    +0.000 A 
ATOM      3  C   UNL     1       0.139  -3.841   6.351  0.00  0.00    +0.000 A 
ATOM      4  C   UNL     1      -0.636  -4.177   5.212  0.00  0.00    +0.000 A 
ATOM      5  C   UNL     1      -1.400  -5.294   4.836  0.00  0.00    +0.000 A 
ATOM      6  C   UNL     1      -2.084  -5.241   3.621  0.00  0.00    +0.000 A 
ATOM      7  C   UNL     1      -1.935  -4.100   2.831  0.00  0.00    +0.000 A 
ATOM      8  N   UNL     1      -1.183  -3.004   3.131  0.00  0.00    +0.000 NA
ATOM      9  C   UNL     1      -0.571  -3.098   4.331  0.00  0.00    +0.000 A 
ENDROOT
BRANCH   6  10
ATOM     10  C   UNL     1      -2.970  -6.327   3.138  0.00  0.00    +0.000 C 
ATOM     11  N   UNL     1      -3.142  -7.434   3.924  0.00  0.00    +0.000 N 
ATOM     12  O   UNL     1      -3.550  -6.246   2.062  0.00  0.00    +0.000 OA
ATOM     13  H   UNL     1      -2.731  -7.576   4.834  0.00  0.00    +0.000 HD
ATOM     14  H   UNL     1      -3.772  -8.147   3.581  0.00  0.00    +0.000 HD
ENDBRANCH   6  10
BRANCH   1  15
ATOM     15  C   UNL     1       0.658  -0.892   4.296  0.00  0.00    +0.000 C 
BRANCH  15  19
ATOM     16  C   UNL     1       3.042  -0.224   1.329  0.00  0.00    +0.000 C 
ATOM     17  C   UNL     1       2.545  -1.607   1.788  0.00  0.00    +0.000 C 
ATOM     18  C   UNL     1       2.805  -1.854   3.274  0.00  0.00    +0.000 C 
ATOM     19  C   UNL     1       2.196  -0.765   4.174  0.00  0.00    +0.000 C 
ATOM     20  C   UNL     1       2.619   0.636   3.701  0.00  0.00    +0.000 C 
ATOM     21  C   UNL     1       2.400   0.865   2.206  0.00  0.00    +0.000 C 
BRANCH  16  22
ATOM     22  C   UNL     1       4.586  -0.194   1.304  0.00  0.00    +0.000 C 
BRANCH  22  23
ATOM     23  N   UNL     1       5.128   1.068   0.813  0.00  0.00    +0.000 NA
ATOM     24  H   UNL     1       6.146   1.009   0.803  0.00  0.00    +0.000 HD
ATOM     25  H   UNL     1       4.903   1.817   1.466  0.00  0.00    +0.000 HD
ENDBRANCH  22  23
ENDBRANCH  16  22
ENDBRANCH  15  19
ENDBRANCH   1  15
TORSDOF 5
