REMARK  Name = 
REMARK  6 active torsions:
REMARK  status: ('A' for Active; 'I' for Inactive)
REMARK    1  A    between atoms: C_2  and  C_20
REMARK    2  A    between atoms: N_3  and  C_4
REMARK    3  A    between atoms: C_4  and  C_5
REMARK    4  A    between atoms: C_8  and  C_9
REMARK    5  A    between atoms: C_9  and  N_10
REMARK    6  A    between atoms: C_11  and  C_13
REMARK                            x       y       z     vdW  Elec       q    Type
REMARK                         _______ _______ _______ _____ _____    ______ ____
ROOT
ATOM      1  C   UNL     1       2.236   0.487   2.515  0.00  0.00    +0.000 C 
ENDROOT
BRANCH   1   2
ATOM      2  C   UNL     1       3.171   0.848   3.641  0.00  0.00    +0.000 A 
ATOM      3  C   UNL     1       3.388   2.188   3.989  0.00  0.00    +0.000 A 
ATOM      4  C   UNL     1       4.216   2.523   5.068  0.00  0.00    +0.000 A 
ATOM      5  C   UNL     1       4.866   1.525   5.806  0.00  0.00    +0.000 A 
ATOM      6  C   UNL     1       4.665   0.187   5.445  0.00  0.00    +0.000 A 
ATOM      7  C   UNL     1       3.836  -0.148   4.368  0.00  0.00    +0.000 A 
BRANCH   5   8
ATOM      8  C   UNL     1       5.776   1.879   6.953  0.00  0.00    +0.000 C 
BRANCH   8   9
ATOM      9  N   UNL     1       5.101   1.913   8.225  0.00  0.00    +0.000 N 
ATOM     10  C   UNL     1       5.784   2.250   9.370  0.00  0.00    +0.000 C 
ATOM     11  O   UNL     1       6.973   2.525   9.434  0.00  0.00    +0.000 OA
ATOM     12  H   UNL     1       4.116   1.675   8.308  0.00  0.00    +0.000 HD
BRANCH  10  13
ATOM     13  C   UNL     1       4.948   2.273  10.622  0.00  0.00    +0.000 C 
ATOM     14  C   UNL     1       5.512   2.577  11.947  0.00  0.00    +0.000 C 
ATOM     15  C   UNL     1       4.373   2.515  12.807  0.00  0.00    +0.000 C 
ATOM     16  C   UNL     1       3.336   2.216  12.010  0.00  0.00    +0.000 C 
ATOM     17  N   UNL     1       3.654   2.055  10.668  0.00  0.00    +0.000 NA
ENDBRANCH  10  13
ENDBRANCH   8   9
ENDBRANCH   5   8
ENDBRANCH   1   2
BRANCH   1  20
ATOM     18  O   UNL     1       1.042  -0.301   0.149  0.00  0.00    +0.000 OA
ATOM     19  C   UNL     1       2.214   0.063   0.110  0.00  0.00    +0.000 C 
ATOM     20  N   UNL     1       2.912   0.402   1.244  0.00  0.00    +0.000 N 
ATOM     21  H   UNL     1       3.791   0.902   1.156  0.00  0.00    +0.000 HD
BRANCH  19  22
ATOM     22  C   UNL     1       2.948   0.122  -1.158  0.00  0.00    +0.000 A 
ATOM     23  C   UNL     1       2.563  -0.678  -2.225  0.00  0.00    +0.000 A 
ATOM     24  S   UNL     1       3.526  -0.470  -3.618  0.00  0.00    +0.000 S 
ATOM     25  C   UNL     1       4.464   0.728  -2.857  0.00  0.00    +0.000 A 
ATOM     26  N   UNL     1       5.465   1.366  -3.523  0.00  0.00    +0.000 NA
ATOM     27  C   UNL     1       6.064   2.279  -2.836  0.00  0.00    +0.000 A 
ATOM     28  N   UNL     1       5.765   2.607  -1.538  0.00  0.00    +0.000 N 
ATOM     29  C   UNL     1       4.795   1.959  -0.812  0.00  0.00    +0.000 A 
ATOM     30  O   UNL     1       4.604   2.226   0.367  0.00  0.00    +0.000 OA
ATOM     31  C   UNL     1       4.065   0.947  -1.549  0.00  0.00    +0.000 A 
ATOM     32  H   UNL     1       6.288   3.318  -1.048  0.00  0.00    +0.000 HD
ENDBRANCH  19  22
ENDBRANCH   1  20
TORSDOF 6
