REMARK  Name = 
REMARK  10 active torsions:
REMARK  status: ('A' for Active; 'I' for Inactive)
REMARK    1  A    between atoms: C_1  and  O_2
REMARK    2  A    between atoms: O_2  and  C_3
REMARK    3  A    between atoms: C_10  and  C_11
REMARK    4  A    between atoms: N_13  and  C_14
REMARK    5  A    between atoms: C_14  and  C_15
REMARK    6  A    between atoms: C_18  and  C_19
REMARK    7  A    between atoms: C_19  and  N_20
REMARK    8  A    between atoms: N_20  and  C_21
REMARK    9  A    between atoms: C_21  and  C_22
REMARK   10  A    between atoms: C_21  and  C_23
REMARK                            x       y       z     vdW  Elec       q    Type
REMARK                         _______ _______ _______ _____ _____    ______ ____
ROOT
ATOM      1  C   UNL     1       2.061  -1.905   2.819  0.00  0.00    +0.000 A 
ATOM      2  C   UNL     1       1.005  -2.578   3.447  0.00  0.00    +0.000 A 
ATOM      3  C   UNL     1       0.048  -1.873   4.187  0.00  0.00    +0.000 A 
ATOM      4  C   UNL     1       0.119  -0.477   4.312  0.00  0.00    +0.000 A 
ATOM      5  C   UNL     1       1.166   0.196   3.669  0.00  0.00    +0.000 A 
ATOM      6  C   UNL     1       2.124  -0.509   2.928  0.00  0.00    +0.000 A 
ENDROOT
BRANCH   1   7
ATOM      7  C   UNL     1       3.075  -2.660   1.996  0.00  0.00    +0.000 C 
BRANCH   7  10
ATOM      8  C   UNL     1       3.374  -3.431  -0.329  0.00  0.00    +0.000 C 
ATOM      9  O   UNL     1       4.443  -3.971  -0.052  0.00  0.00    +0.000 OA
ATOM     10  N   UNL     1       2.646  -2.772   0.623  0.00  0.00    +0.000 N 
ATOM     11  H   UNL     1       1.780  -2.315   0.373  0.00  0.00    +0.000 HD
BRANCH   8  19
ATOM     12  C   UNL     1       0.474  -2.242  -1.753  0.00  0.00    +0.000 A 
ATOM     13  N   UNL     1      -0.537  -1.856  -2.557  0.00  0.00    +0.000 NA
ATOM     14  C   UNL     1      -0.455  -2.161  -3.855  0.00  0.00    +0.000 A 
ATOM     15  N   UNL     1       0.523  -2.823  -4.463  0.00  0.00    +0.000 NA
ATOM     16  C   UNL     1       1.514  -3.181  -3.628  0.00  0.00    +0.000 A 
ATOM     17  S   UNL     1       2.848  -4.041  -4.230  0.00  0.00    +0.000 S 
ATOM     18  C   UNL     1       3.573  -4.089  -2.694  0.00  0.00    +0.000 A 
ATOM     19  C   UNL     1       2.832  -3.459  -1.700  0.00  0.00    +0.000 A 
ATOM     20  C   UNL     1       1.591  -2.928  -2.262  0.00  0.00    +0.000 A 
BRANCH  12  22
ATOM     21  C   UNL     1      -0.932  -1.718   0.043  0.00  0.00    +0.000 C 
ATOM     22  O   UNL     1       0.404  -1.906  -0.419  0.00  0.00    +0.000 OA
ENDBRANCH  12  22
ENDBRANCH   8  19
ENDBRANCH   7  10
ENDBRANCH   1   7
BRANCH   4  23
ATOM     23  C   UNL     1      -0.938   0.286   5.085  0.00  0.00    +0.000 C 
BRANCH  23  24
ATOM     24  N   UNL     1      -1.012  -0.155   6.477  0.00  0.00    +0.000 NA
ATOM     25  H   UNL     1      -0.086  -0.055   6.894  0.00  0.00    +0.000 HD
BRANCH  24  26
ATOM     26  C   UNL     1      -1.964   0.613   7.296  0.00  0.00    +0.000 C 
ATOM     27  C   UNL     1      -3.416   0.482   6.813  0.00  0.00    +0.000 C 
BRANCH  26  28
ATOM     28  C   UNL     1      -1.875   0.158   8.750  0.00  0.00    +0.000 A 
ATOM     29  C   UNL     1      -1.573   1.074   9.771  0.00  0.00    +0.000 A 
ATOM     30  C   UNL     1      -1.528   0.662  11.107  0.00  0.00    +0.000 A 
ATOM     31  C   UNL     1      -1.782  -0.667  11.439  0.00  0.00    +0.000 A 
ATOM     32  C   UNL     1      -2.073  -1.589  10.439  0.00  0.00    +0.000 A 
ATOM     33  C   UNL     1      -2.115  -1.181   9.104  0.00  0.00    +0.000 A 
ENDBRANCH  26  28
ENDBRANCH  24  26
ENDBRANCH  23  24
ENDBRANCH   4  23
TORSDOF 8
