REMARK  Name = 
REMARK  8 active torsions:
REMARK  status: ('A' for Active; 'I' for Inactive)
REMARK    1  A    between atoms: C_1  and  O_2
REMARK    2  A    between atoms: O_2  and  C_3
REMARK    3  A    between atoms: C_5  and  C_6
REMARK    4  A    between atoms: C_11  and  N_12
REMARK    5  A    between atoms: N_12  and  C_13
REMARK    6  A    between atoms: C_13  and  C_14
REMARK    7  A    between atoms: C_18  and  C_19
REMARK    8  A    between atoms: C_23  and  C_24
REMARK                            x       y       z     vdW  Elec       q    Type
REMARK                         _______ _______ _______ _____ _____    ______ ____
ROOT
ATOM      1  N   UNL     1       4.555  -0.887  -1.595  0.00  0.00    +0.000 N 
ATOM      2  H   UNL     1       5.298  -1.097  -2.247  0.00  0.00    +0.000 HD
ENDROOT
BRANCH   1   8
ATOM      3  C   UNL     1       3.051   0.926  -0.826  0.00  0.00    +0.000 A 
ATOM      4  C   UNL     1       2.694   2.271  -0.973  0.00  0.00    +0.000 A 
ATOM      5  C   UNL     1       3.326   3.073  -1.914  0.00  0.00    +0.000 A 
ATOM      6  C   UNL     1       4.325   2.486  -2.668  0.00  0.00    +0.000 A 
ATOM      7  N   UNL     1       4.711   1.186  -2.544  0.00  0.00    +0.000 NA
ATOM      8  C   UNL     1       4.087   0.405  -1.629  0.00  0.00    +0.000 A 
BRANCH   5   9
ATOM      9  C   UNL     1       2.881   4.483  -2.034  0.00  0.00    +0.000 C 
ATOM     10  N   UNL     1       3.480   5.294  -2.947  0.00  0.00    +0.000 N 
ATOM     11  O   UNL     1       1.979   4.923  -1.329  0.00  0.00    +0.000 OA
ATOM     12  H   UNL     1       4.219   5.033  -3.583  0.00  0.00    +0.000 HD
ATOM     13  H   UNL     1       3.137   6.247  -2.996  0.00  0.00    +0.000 HD
ENDBRANCH   5   9
BRANCH   3  15
ATOM     14  C   UNL     1       1.110   0.492   0.466  0.00  0.00    +0.000 C 
ATOM     15  O   UNL     1       2.439   0.124   0.108  0.00  0.00    +0.000 OA
ENDBRANCH   3  15
ENDBRANCH   1   8
BRANCH   1  16
ATOM     16  C   UNL     1       4.050  -1.902  -0.709  0.00  0.00    +0.000 C 
BRANCH  16  17
ATOM     17  C   UNL     1       4.728  -3.239  -0.888  0.00  0.00    +0.000 A 
ATOM     18  C   UNL     1       5.900  -3.557  -0.195  0.00  0.00    +0.000 A 
ATOM     19  C   UNL     1       6.424  -4.846  -0.260  0.00  0.00    +0.000 A 
ATOM     20  C   UNL     1       5.770  -5.832  -1.004  0.00  0.00    +0.000 A 
ATOM     21  C   UNL     1       4.580  -5.556  -1.698  0.00  0.00    +0.000 A 
ATOM     22  C   UNL     1       4.103  -4.233  -1.658  0.00  0.00    +0.000 A 
BRANCH  21  23
ATOM     23  C   UNL     1       3.823  -6.620  -2.395  0.00  0.00    +0.000 A 
ATOM     24  C   UNL     1       3.067  -6.345  -3.549  0.00  0.00    +0.000 A 
ATOM     25  C   UNL     1       2.345  -7.344  -4.204  0.00  0.00    +0.000 A 
ATOM     26  C   UNL     1       2.378  -8.652  -3.728  0.00  0.00    +0.000 A 
ATOM     27  C   UNL     1       3.117  -8.960  -2.586  0.00  0.00    +0.000 A 
ATOM     28  C   UNL     1       3.813  -7.945  -1.915  0.00  0.00    +0.000 A 
BRANCH  27  29
ATOM     29  C   UNL     1       3.187 -10.311  -2.113  0.00  0.00    +0.000 C 
ATOM     30  N   UNL     1       3.260 -11.411  -1.740  0.00  0.00    +0.000 NA
ENDBRANCH  27  29
ENDBRANCH  21  23
ENDBRANCH  16  17
ENDBRANCH   1  16
TORSDOF 7
