REMARK  Name = 
REMARK  8 active torsions:
REMARK  status: ('A' for Active; 'I' for Inactive)
REMARK    1  A    between atoms: C_1  and  C_2
REMARK    2  A    between atoms: C_2  and  C_3
REMARK    3  A    between atoms: C_2  and  C_4
REMARK    4  A    between atoms: C_2  and  C_15
REMARK    5  A    between atoms: C_4  and  O_5
REMARK    6  A    between atoms: O_5  and  C_6
REMARK    7  A    between atoms: C_9  and  C_10
REMARK    8  A    between atoms: C_20  and  C_21
REMARK                            x       y       z     vdW  Elec       q    Type
REMARK                         _______ _______ _______ _____ _____    ______ ____
ROOT
ATOM      1  C   UNL     1       0.975   0.115  -0.077  0.00  0.00    +0.000 C 
ATOM      2  C   UNL     1       2.520   0.078  -0.031  0.00  0.00    +0.000 C 
ATOM      3  C   UNL     1       3.057  -0.238  -1.448  0.00  0.00    +0.000 C 
ENDROOT
BRANCH   2   4
ATOM      4  C   UNL     1       2.965  -1.028   0.949  0.00  0.00    +0.000 A 
ATOM      5  C   UNL     1       2.599  -2.363   0.716  0.00  0.00    +0.000 A 
ATOM      6  C   UNL     1       2.925  -3.375   1.622  0.00  0.00    +0.000 A 
ATOM      7  C   UNL     1       3.628  -3.086   2.795  0.00  0.00    +0.000 A 
ATOM      8 CL   UNL     1       3.937  -4.412   3.852  0.00  0.00    +0.000 Cl
ATOM      9  C   UNL     1       4.031  -1.778   3.058  0.00  0.00    +0.000 A 
ATOM     10  C   UNL     1       3.701  -0.769   2.119  0.00  0.00    +0.000 A 
BRANCH   9  11
ATOM     11  C   UNL     1       4.795  -1.346   4.285  0.00  0.00    +0.000 C 
ATOM     12  F   UNL     1       5.055  -2.302   5.212  0.00  0.00    +0.000 F 
ATOM     13  F   UNL     1       6.010  -0.815   3.958  0.00  0.00    +0.000 F 
ATOM     14  F   UNL     1       4.142  -0.356   4.962  0.00  0.00    +0.000 F 
ENDBRANCH   9  11
ENDBRANCH   2   4
BRANCH   2  15
ATOM     15  C   UNL     1       3.034   1.508   0.317  0.00  0.00    +0.000 C 
BRANCH  15  16
ATOM     16  O   UNL     1       2.485   1.977   1.555  0.00  0.00    +0.000 OA
BRANCH  16  17
ATOM     17  C   UNL     1       2.885   3.216   1.968  0.00  0.00    +0.000 A 
ATOM     18  C   UNL     1       3.724   4.080   1.269  0.00  0.00    +0.000 A 
ATOM     19  C   UNL     1       4.022   5.334   1.799  0.00  0.00    +0.000 A 
ATOM     20  C   UNL     1       3.467   5.683   3.025  0.00  0.00    +0.000 A 
ATOM     21  N   UNL     1       2.656   4.863   3.749  0.00  0.00    +0.000 NA
ATOM     22  C   UNL     1       2.393   3.651   3.197  0.00  0.00    +0.000 A 
BRANCH  20  23
ATOM     23  C   UNL     1       3.740   7.041   3.589  0.00  0.00    +0.000 C 
ATOM     24  N   UNL     1       3.147   7.309   4.792  0.00  0.00    +0.000 N 
ATOM     25  O   UNL     1       4.440   7.866   3.016  0.00  0.00    +0.000 OA
ATOM     26  H   UNL     1       2.564   6.605   5.230  0.00  0.00    +0.000 HD
ATOM     27  H   UNL     1       3.273   8.214   5.219  0.00  0.00    +0.000 HD
ENDBRANCH  20  23
ENDBRANCH  16  17
ENDBRANCH  15  16
ENDBRANCH   2  15
TORSDOF 6
