REMARK  Name = 
REMARK  8 active torsions:
REMARK  status: ('A' for Active; 'I' for Inactive)
REMARK    1  A    between atoms: C_1  and  O_2
REMARK    2  A    between atoms: O_2  and  C_3
REMARK    3  A    between atoms: C_5  and  C_6
REMARK    4  A    between atoms: C_6  and  N_7
REMARK    5  A    between atoms: C_8  and  C_10
REMARK    6  A    between atoms: C_22  and  C_23
REMARK    7  A    between atoms: C_23  and  N_24
REMARK    8  A    between atoms: C_25  and  C_27
REMARK                            x       y       z     vdW  Elec       q    Type
REMARK                         _______ _______ _______ _____ _____    ______ ____
ROOT
ATOM      1  C   UNL     1       3.177   0.918   0.829  0.00  0.00    +0.000 A 
ATOM      2  C   UNL     1       2.765   0.895   2.175  0.00  0.00    +0.000 A 
ATOM      3  C   UNL     1       3.535   1.475   3.193  0.00  0.00    +0.000 A 
ATOM      4  C   UNL     1       4.734   2.097   2.837  0.00  0.00    +0.000 A 
ATOM      5  C   UNL     1       5.149   2.130   1.499  0.00  0.00    +0.000 A 
ATOM      6  C   UNL     1       4.371   1.565   0.467  0.00  0.00    +0.000 A 
ENDROOT
BRANCH   1   8
ATOM      7  C   UNL     1       2.799  -0.522  -1.002  0.00  0.00    +0.000 C 
ATOM      8  O   UNL     1       2.263   0.374  -0.037  0.00  0.00    +0.000 OA
ENDBRANCH   1   8
BRANCH   3   9
ATOM      9  C   UNL     1       3.058   1.471   4.626  0.00  0.00    +0.000 C 
BRANCH   9  10
ATOM     10  N   UNL     1       2.229   2.618   4.919  0.00  0.00    +0.000 N 
ATOM     11  C   UNL     1       1.790   2.875   6.196  0.00  0.00    +0.000 C 
ATOM     12  O   UNL     1       2.122   2.173   7.147  0.00  0.00    +0.000 OA
ATOM     13  H   UNL     1       1.764   3.058   4.132  0.00  0.00    +0.000 HD
BRANCH  11  14
ATOM     14  C   UNL     1       0.939   4.063   6.384  0.00  0.00    +0.000 A 
ATOM     15  C   UNL     1       0.826   4.635   7.644  0.00  0.00    +0.000 A 
ATOM     16  S   UNL     1      -0.148   6.035   7.679  0.00  0.00    +0.000 S 
ATOM     17  C   UNL     1      -0.502   5.897   6.019  0.00  0.00    +0.000 A 
ATOM     18  N   UNL     1      -1.324   6.790   5.403  0.00  0.00    +0.000 NA
ATOM     19  C   UNL     1      -1.529   6.545   4.151  0.00  0.00    +0.000 A 
ATOM     20  N   UNL     1      -0.985   5.493   3.461  0.00  0.00    +0.000 N 
ATOM     21  C   UNL     1      -0.130   4.584   4.038  0.00  0.00    +0.000 A 
ATOM     22  O   UNL     1       0.366   3.674   3.384  0.00  0.00    +0.000 OA
ATOM     23  C   UNL     1       0.130   4.805   5.446  0.00  0.00    +0.000 A 
ATOM     24  H   UNL     1      -1.183   5.361   2.482  0.00  0.00    +0.000 HD
ENDBRANCH  11  14
ENDBRANCH   9  10
ENDBRANCH   3   9
BRANCH   6  25
ATOM     25  C   UNL     1       4.846   1.760  -0.954  0.00  0.00    +0.000 C 
BRANCH  25  26
ATOM     26  N   UNL     1       5.668   0.668  -1.429  0.00  0.00    +0.000 N 
ATOM     27  C   UNL     1       6.154   0.614  -2.713  0.00  0.00    +0.000 C 
ATOM     28  O   UNL     1       5.848   1.440  -3.571  0.00  0.00    +0.000 OA
ATOM     29  H   UNL     1       5.981  -0.049  -0.775  0.00  0.00    +0.000 HD
BRANCH  27  30
ATOM     30  C   UNL     1       7.052  -0.587  -3.054  0.00  0.00    +0.000 C 
ATOM     31  C   UNL     1       6.270  -1.763  -3.646  0.00  0.00    +0.000 C 
ATOM     32  C   UNL     1       5.548  -2.584  -2.583  0.00  0.00    +0.000 C 
ATOM     33  C   UNL     1       6.420  -2.893  -1.367  0.00  0.00    +0.000 C 
ATOM     34  N   UNL     1       7.103  -1.708  -0.837  0.00  0.00    +0.000 NA
ATOM     35  C   UNL     1       7.915  -1.060  -1.879  0.00  0.00    +0.000 C 
ATOM     36  H   UNL     1       7.716  -1.998  -0.072  0.00  0.00    +0.000 HD
ENDBRANCH  27  30
ENDBRANCH  25  26
ENDBRANCH   6  25
TORSDOF 7
