REMARK  Name = 
REMARK  7 active torsions:
REMARK  status: ('A' for Active; 'I' for Inactive)
REMARK    1  A    between atoms: C_2  and  C_4
REMARK    2  A    between atoms: N_8  and  C_9
REMARK    3  A    between atoms: C_9  and  C_10
REMARK    4  A    between atoms: C_10  and  C_12
REMARK    5  A    between atoms: C_10  and  C_14
REMARK    6  A    between atoms: C_18  and  O_19
REMARK    7  A    between atoms: O_19  and  C_20
REMARK                            x       y       z     vdW  Elec       q    Type
REMARK                         _______ _______ _______ _____ _____    ______ ____
ROOT
ATOM      1  C   UNL     1       6.785  -5.861   3.678  0.00  0.00    +0.000 C 
ATOM      2  F   UNL     1       5.850  -5.086   3.022  0.00  0.00    +0.000 F 
ENDROOT
BRANCH   1   3
ATOM      3  C   UNL     1       6.398  -7.340   3.572  0.00  0.00    +0.000 A 
ATOM      4  C   UNL     1       6.618  -8.267   4.607  0.00  0.00    +0.000 A 
ATOM      5  C   UNL     1       6.127  -9.571   4.518  0.00  0.00    +0.000 A 
ATOM      6  C   UNL     1       5.428  -9.980   3.386  0.00  0.00    +0.000 A 
ATOM      7  C   UNL     1       5.236  -9.098   2.323  0.00  0.00    +0.000 A 
ATOM      8  C   UNL     1       5.735  -7.793   2.416  0.00  0.00    +0.000 A 
ATOM      9  F   UNL     1       5.587  -6.946   1.388  0.00  0.00    +0.000 F 
BRANCH   7  10
ATOM     10  O   UNL     1       4.562  -9.642   1.257  0.00  0.00    +0.000 OA
BRANCH  10  11
ATOM     11  C   UNL     1       3.926  -8.770   0.297  0.00  0.00    +0.000 C 
ATOM     12  C   UNL     1       2.686  -7.981   0.739  0.00  0.00    +0.000 C 
ATOM     13  O   UNL     1       1.895  -8.514  -0.352  0.00  0.00    +0.000 OA
ATOM     14  C   UNL     1       2.943  -9.464  -0.657  0.00  0.00    +0.000 C 
ENDBRANCH  10  11
ENDBRANCH   7  10
ENDBRANCH   1   3
BRANCH   1  15
ATOM     15  C   UNL     1       6.751  -5.352   5.129  0.00  0.00    +0.000 C 
ATOM     16  F   UNL     1       7.768  -5.874   5.866  0.00  0.00    +0.000 F 
ENDBRANCH   1  15
BRANCH   1  17
ATOM     17  C   UNL     1       8.171  -5.572   3.036  0.00  0.00    +0.000 C 
BRANCH  17  22
ATOM     18  C   UNL     1      12.291  -3.077   1.708  0.00  0.00    +0.000 A 
ATOM     19  C   UNL     1      11.369  -2.077   1.999  0.00  0.00    +0.000 A 
ATOM     20  C   UNL     1      10.075  -2.444   2.367  0.00  0.00    +0.000 A 
ATOM     21  C   UNL     1       9.734  -3.796   2.453  0.00  0.00    +0.000 A 
ATOM     22  N   UNL     1       8.450  -4.123   2.917  0.00  0.00    +0.000 N 
ATOM     23  N   UNL     1      10.602  -4.766   2.110  0.00  0.00    +0.000 NA
ATOM     24  C   UNL     1      11.853  -4.392   1.737  0.00  0.00    +0.000 A 
ATOM     25  H   UNL     1       8.303  -3.614   3.784  0.00  0.00    +0.000 HD
BRANCH  18  27
ATOM     26  N   UNL     1      14.265  -1.699   1.979  0.00  0.00    +0.000 N 
ATOM     27  C   UNL     1      13.707  -2.805   1.399  0.00  0.00    +0.000 C 
ATOM     28  O   UNL     1      14.372  -3.566   0.713  0.00  0.00    +0.000 OA
ATOM     29  H   UNL     1      15.267  -1.604   1.885  0.00  0.00    +0.000 HD
ATOM     30  H   UNL     1      13.824  -1.211   2.750  0.00  0.00    +0.000 HD
ENDBRANCH  18  27
ENDBRANCH  17  22
ENDBRANCH   1  17
TORSDOF 7
