REMARK  Name = 
REMARK  6 active torsions:
REMARK  status: ('A' for Active; 'I' for Inactive)
REMARK    1  A    between atoms: C_1  and  C_2
REMARK    2  A    between atoms: C_4  and  C_5
REMARK    3  A    between atoms: C_5  and  C_6
REMARK    4  A    between atoms: C_5  and  N_7
REMARK    5  A    between atoms: N_7  and  C_8
REMARK    6  A    between atoms: C_11  and  C_12
REMARK                            x       y       z     vdW  Elec       q    Type
REMARK                         _______ _______ _______ _____ _____    ______ ____
ROOT
ATOM      1  C   UNL     1      -1.875  -4.907  -0.461  0.00  0.00    +0.000 A 
ATOM      2  N   UNL     1      -3.007  -5.043   0.249  0.00  0.00    +0.000 NA
ATOM      3  C   UNL     1      -3.673  -6.233   0.205  0.00  0.00    +0.000 A 
ATOM      4  C   UNL     1      -3.294  -7.297  -0.611  0.00  0.00    +0.000 A 
ATOM      5  C   UNL     1      -2.115  -7.171  -1.320  0.00  0.00    +0.000 A 
ATOM      6  C   UNL     1      -1.354  -6.002  -1.186  0.00  0.00    +0.000 A 
ATOM      7 CL   UNL     1       0.224  -6.012  -1.887  0.00  0.00    +0.000 Cl
ENDROOT
BRANCH   4   8
ATOM      8  C   UNL     1      -4.084  -8.546  -0.636  0.00  0.00    +0.000 C 
ATOM      9  N   UNL     1      -4.064  -9.272  -1.804  0.00  0.00    +0.000 N 
ATOM     10  O   UNL     1      -4.719  -8.914   0.330  0.00  0.00    +0.000 OA
ATOM     11  H   UNL     1      -3.663  -8.952  -2.670  0.00  0.00    +0.000 HD
ATOM     12  H   UNL     1      -4.636 -10.109  -1.831  0.00  0.00    +0.000 HD
ENDBRANCH   4   8
BRANCH   1  13
ATOM     13  N   UNL     1      -1.170  -3.683  -0.368  0.00  0.00    +0.000 N 
ATOM     14  H   UNL     1      -0.504  -3.826   0.392  0.00  0.00    +0.000 HD
BRANCH  13  15
ATOM     15  C   UNL     1      -1.977  -2.474  -0.068  0.00  0.00    +0.000 C 
ATOM     16  C   UNL     1      -3.040  -2.212  -1.148  0.00  0.00    +0.000 C 
BRANCH  15  20
ATOM     17  C   UNL     1       2.009   0.409  -1.449  0.00  0.00    +0.000 C 
ATOM     18  C   UNL     1       0.771   0.168  -0.636  0.00  0.00    +0.000 A 
ATOM     19  C   UNL     1       0.055  -1.029  -0.742  0.00  0.00    +0.000 A 
ATOM     20  C   UNL     1      -1.087  -1.228   0.047  0.00  0.00    +0.000 A 
ATOM     21  C   UNL     1      -1.458  -0.182   0.910  0.00  0.00    +0.000 A 
ATOM     22  C   UNL     1      -0.704   0.982   0.939  0.00  0.00    +0.000 A 
ATOM     23  N   UNL     1       0.399   1.177   0.189  0.00  0.00    +0.000 NA
ENDBRANCH  15  20
ENDBRANCH  13  15
ENDBRANCH   1  13
TORSDOF 4
