REMARK  Name = 
REMARK  5 active torsions:
REMARK  status: ('A' for Active; 'I' for Inactive)
REMARK    1  A    between atoms: C_2  and  C_4
REMARK    2  A    between atoms: C_7  and  N_8
REMARK    3  A    between atoms: N_8  and  C_9
REMARK    4  A    between atoms: C_9  and  C_10
REMARK    5  A    between atoms: C_14  and  C_15
REMARK                            x       y       z     vdW  Elec       q    Type
REMARK                         _______ _______ _______ _____ _____    ______ ____
ROOT
ATOM      1  C   UNL     1       4.862   6.022  -0.761  0.00  0.00    +0.000 C 
ENDROOT
BRANCH   1   2
ATOM      2  C   UNL     1       5.662   7.201  -1.267  0.00  0.00    +0.000 A 
ATOM      3  C   UNL     1       5.109   8.486  -1.277  0.00  0.00    +0.000 A 
ATOM      4  C   UNL     1       5.879   9.573  -1.681  0.00  0.00    +0.000 A 
ATOM      5  C   UNL     1       7.206   9.387  -2.079  0.00  0.00    +0.000 A 
ATOM      6  C   UNL     1       7.807   8.116  -2.078  0.00  0.00    +0.000 A 
ATOM      7  C   UNL     1       6.997   7.030  -1.686  0.00  0.00    +0.000 A 
BRANCH   6   8
ATOM      8  C   UNL     1       9.235   7.931  -2.445  0.00  0.00    +0.000 A 
ATOM      9  C   UNL     1       9.676   6.772  -3.118  0.00  0.00    +0.000 A 
ATOM     10  C   UNL     1      11.023   6.589  -3.452  0.00  0.00    +0.000 A 
ATOM     11  C   UNL     1      11.951   7.569  -3.129  0.00  0.00    +0.000 A 
ATOM     12  F   UNL     1      13.239   7.394  -3.456  0.00  0.00    +0.000 F 
ATOM     13  C   UNL     1      11.563   8.722  -2.471  0.00  0.00    +0.000 A 
ATOM     14  C   UNL     1      10.223   8.889  -2.130  0.00  0.00    +0.000 A 
ATOM     15  F   UNL     1       9.900  10.008  -1.462  0.00  0.00    +0.000 F 
ENDBRANCH   6   8
ENDBRANCH   1   2
BRANCH   1  16
ATOM     16  N   UNL     1       4.024   5.461  -1.817  0.00  0.00    +0.000 N 
ATOM     17  H   UNL     1       3.556   6.184  -2.358  0.00  0.00    +0.000 HD
BRANCH  16  21
ATOM     18  C   UNL     1       1.493   2.235  -1.034  0.00  0.00    +0.000 A 
ATOM     19  C   UNL     1       2.611   2.389  -0.232  0.00  0.00    +0.000 A 
ATOM     20  C   UNL     1       3.457   3.472  -0.474  0.00  0.00    +0.000 A 
ATOM     21  C   UNL     1       3.169   4.400  -1.481  0.00  0.00    +0.000 A 
ATOM     22  C   UNL     1       2.031   4.118  -2.250  0.00  0.00    +0.000 A 
ATOM     23  N   UNL     1       1.175   3.080  -2.052  0.00  0.00    +0.000 NA
BRANCH  18  25
ATOM     24  N   UNL     1      -0.479   0.965  -1.667  0.00  0.00    +0.000 N 
ATOM     25  C   UNL     1       0.572   1.074  -0.798  0.00  0.00    +0.000 C 
ATOM     26  O   UNL     1       0.746   0.267   0.108  0.00  0.00    +0.000 OA
ATOM     27  H   UNL     1      -1.123   0.193  -1.574  0.00  0.00    +0.000 HD
ATOM     28  H   UNL     1      -0.579   1.640  -2.416  0.00  0.00    +0.000 HD
ENDBRANCH  18  25
ENDBRANCH  16  21
ENDBRANCH   1  16
TORSDOF 5
