REMARK  Name = 
REMARK  11 active torsions:
REMARK  status: ('A' for Active; 'I' for Inactive)
REMARK    1  A    between atoms: C_1  and  N_2
REMARK    2  A    between atoms: N_2  and  C_3
REMARK    3  A    between atoms: N_2  and  C_4
REMARK    4  A    between atoms: C_4  and  C_5
REMARK    5  A    between atoms: C_5  and  C_6
REMARK    6  A    between atoms: C_6  and  N_7
REMARK    7  A    between atoms: N_7  and  C_8
REMARK    8  A    between atoms: C_8  and  C_9
REMARK    9  A    between atoms: C_12  and  C_13
REMARK   10  A    between atoms: C_13  and  N_14
REMARK   11  A    between atoms: C_19  and  C_20
REMARK                            x       y       z     vdW  Elec       q    Type
REMARK                         _______ _______ _______ _____ _____    ______ ____
ROOT
ATOM      1  C   UNL     1       8.458   3.965  -1.177  0.00  0.00    +0.000 A 
ATOM      2  C   UNL     1       9.138   2.880  -0.604  0.00  0.00    +0.000 A 
ATOM      3  C   UNL     1      10.532   2.803  -0.648  0.00  0.00    +0.000 A 
ATOM      4  C   UNL     1      11.279   3.802  -1.283  0.00  0.00    +0.000 A 
ATOM      5  C   UNL     1      10.602   4.899  -1.835  0.00  0.00    +0.000 A 
ATOM      6  C   UNL     1       9.208   4.983  -1.778  0.00  0.00    +0.000 A 
ENDROOT
BRANCH   1   7
ATOM      7  C   UNL     1       6.947   4.029  -1.156  0.00  0.00    +0.000 C 
BRANCH   7   8
ATOM      8  N   UNL     1       6.455   4.084   0.217  0.00  0.00    +0.000 NA
ATOM      9  H   UNL     1       6.774   3.252   0.711  0.00  0.00    +0.000 HD
BRANCH   8  10
ATOM     10  C   UNL     1       4.993   4.123   0.271  0.00  0.00    +0.000 C 
BRANCH  10  11
ATOM     11  C   UNL     1       4.582   4.151   1.744  0.00  0.00    +0.000 C 
BRANCH  11  12
ATOM     12  C   UNL     1       3.060   4.168   1.934  0.00  0.00    +0.000 C 
BRANCH  12  14
ATOM     13  C   UNL     1       2.798   1.750   1.945  0.00  0.00    +0.000 C 
ATOM     14  N   UNL     1       2.376   3.010   1.331  0.00  0.00    +0.000 NA
ATOM     15  C   UNL     1       0.924   3.157   1.451  0.00  0.00    +0.000 C 
ENDBRANCH  12  14
ENDBRANCH  11  12
ENDBRANCH  10  11
ENDBRANCH   8  10
ENDBRANCH   7   8
ENDBRANCH   1   7
BRANCH   4  16
ATOM     16  C   UNL     1      12.780   3.707  -1.368  0.00  0.00    +0.000 C 
BRANCH  16  17
ATOM     17  N   UNL     1      13.237   3.010  -2.570  0.00  0.00    +0.000 N 
ATOM     18  C   UNL     1      13.481   3.634  -3.772  0.00  0.00    +0.000 A 
ATOM     19  C   UNL     1      14.103   2.733  -4.605  0.00  0.00    +0.000 A 
ATOM     20  C   UNL     1      14.245   1.512  -3.890  0.00  0.00    +0.000 A 
ATOM     21  C   UNL     1      14.828   0.275  -4.194  0.00  0.00    +0.000 A 
ATOM     22  C   UNL     1      14.784  -0.694  -3.198  0.00  0.00    +0.000 A 
ATOM     23  N   UNL     1      14.205  -0.525  -1.976  0.00  0.00    +0.000 NA
ATOM     24  C   UNL     1      13.640   0.669  -1.687  0.00  0.00    +0.000 A 
ATOM     25  C   UNL     1      13.671   1.697  -2.629  0.00  0.00    +0.000 A 
BRANCH  22  26
ATOM     26  C   UNL     1      15.437  -2.020  -3.451  0.00  0.00    +0.000 C 
ATOM     27  N   UNL     1      15.383  -2.925  -2.422  0.00  0.00    +0.000 N 
ATOM     28  O   UNL     1      16.006  -2.288  -4.502  0.00  0.00    +0.000 OA
ATOM     29  H   UNL     1      14.922  -2.676  -1.554  0.00  0.00    +0.000 HD
ATOM     30  H   UNL     1      15.818  -3.825  -2.522  0.00  0.00    +0.000 HD
ENDBRANCH  22  26
ENDBRANCH  16  17
ENDBRANCH   4  16
TORSDOF 9
