REMARK  Name = 
REMARK  6 active torsions:
REMARK  status: ('A' for Active; 'I' for Inactive)
REMARK    1  A    between atoms: C_2  and  C_3
REMARK    2  A    between atoms: C_6  and  C_7
REMARK    3  A    between atoms: C_11  and  C_12
REMARK    4  A    between atoms: C_12  and  N_13
REMARK    5  A    between atoms: N_13  and  C_14
REMARK    6  A    between atoms: C_17  and  C_18
REMARK                            x       y       z     vdW  Elec       q    Type
REMARK                         _______ _______ _______ _____ _____    ______ ____
ROOT
ATOM      1  C   UNL     1      -6.615  -1.497   1.921  0.00  0.00    +0.000 C 
ATOM      2  C   UNL     1      -6.703  -1.057   3.368  0.00  0.00    +0.000 C 
ATOM      3  C   UNL     1      -5.954  -2.305   3.035  0.00  0.00    +0.000 C 
ENDROOT
BRANCH   1   8
ATOM      4  C   UNL     1      -5.009   1.322  -0.127  0.00  0.00    +0.000 A 
ATOM      5  C   UNL     1      -3.972   0.595  -0.721  0.00  0.00    +0.000 A 
ATOM      6  C   UNL     1      -3.846  -0.755  -0.444  0.00  0.00    +0.000 A 
ATOM      7  N   UNL     1      -4.672  -1.430   0.377  0.00  0.00    +0.000 NA
ATOM      8  C   UNL     1      -5.676  -0.742   0.980  0.00  0.00    +0.000 A 
ATOM      9  C   UNL     1      -5.863   0.620   0.734  0.00  0.00    +0.000 A 
BRANCH   4  13
ATOM     10  C   UNL     1      -5.612   5.458  -0.849  0.00  0.00    +0.000 A 
ATOM     11  C   UNL     1      -4.308   4.982  -0.821  0.00  0.00    +0.000 A 
ATOM     12  C   UNL     1      -4.106   3.625  -0.581  0.00  0.00    +0.000 A 
ATOM     13  C   UNL     1      -5.194   2.761  -0.384  0.00  0.00    +0.000 A 
ATOM     14  C   UNL     1      -6.460   3.354  -0.437  0.00  0.00    +0.000 A 
ATOM     15  N   UNL     1      -6.695   4.670  -0.660  0.00  0.00    +0.000 NA
BRANCH  10  17
ATOM     16  N   UNL     1      -6.037   7.984  -1.285  0.00  0.00    +0.000 NA
ATOM     17  C   UNL     1      -5.874   6.849  -1.088  0.00  0.00    +0.000 C 
ENDBRANCH  10  17
ENDBRANCH   4  13
ENDBRANCH   1   8
BRANCH   1  18
ATOM     18  N   UNL     1      -7.699  -2.218   1.221  0.00  0.00    +0.000 N 
ATOM     19  H   UNL     1      -7.331  -2.839   0.501  0.00  0.00    +0.000 HD
BRANCH  18  20
ATOM     20  C   UNL     1      -8.929  -1.655   0.821  0.00  0.00    +0.000 A 
ATOM     21  C   UNL     1      -9.452  -0.465   1.328  0.00  0.00    +0.000 A 
ATOM     22  C   UNL     1     -10.743  -0.041   0.974  0.00  0.00    +0.000 A 
ATOM     23  C   UNL     1     -11.540  -0.816   0.122  0.00  0.00    +0.000 A 
ATOM     24  C   UNL     1     -11.035  -2.018  -0.375  0.00  0.00    +0.000 A 
ATOM     25  C   UNL     1      -9.747  -2.430  -0.019  0.00  0.00    +0.000 A 
BRANCH  23  26
ATOM     26  C   UNL     1     -12.930  -0.367  -0.169  0.00  0.00    +0.000 C 
ATOM     27  N   UNL     1     -13.508  -0.825  -1.321  0.00  0.00    +0.000 N 
ATOM     28  O   UNL     1     -13.533   0.387   0.584  0.00  0.00    +0.000 OA
ATOM     29  H   UNL     1     -12.998  -1.293  -2.057  0.00  0.00    +0.000 HD
ATOM     30  H   UNL     1     -14.431  -0.469  -1.539  0.00  0.00    +0.000 HD
ENDBRANCH  23  26
ENDBRANCH  18  20
ENDBRANCH   1  18
TORSDOF 6
