REMARK  Name = 
REMARK  7 active torsions:
REMARK  status: ('A' for Active; 'I' for Inactive)
REMARK    1  A    between atoms: N_1  and  C_2
REMARK    2  A    between atoms: C_2  and  C_3
REMARK    3  A    between atoms: C_6  and  C_7
REMARK    4  A    between atoms: C_7  and  C_8
REMARK    5  A    between atoms: C_11  and  C_12
REMARK    6  A    between atoms: C_12  and  N_13
REMARK    7  A    between atoms: C_14  and  C_16
REMARK                            x       y       z     vdW  Elec       q    Type
REMARK                         _______ _______ _______ _____ _____    ______ ____
ROOT
ATOM      1  C   UNL     1       1.760  -0.489  -6.192  0.00  0.00    +0.000 A 
ATOM      2  C   UNL     1       2.853   0.359  -6.408  0.00  0.00    +0.000 A 
ATOM      3  C   UNL     1       3.078   0.934  -7.662  0.00  0.00    +0.000 A 
ATOM      4  C   UNL     1       2.224   0.659  -8.736  0.00  0.00    +0.000 A 
ATOM      5  C   UNL     1       1.188  -0.265  -8.547  0.00  0.00    +0.000 A 
ATOM      6  C   UNL     1       0.952  -0.827  -7.286  0.00  0.00    +0.000 A 
ENDROOT
BRANCH   1   7
ATOM      7  C   UNL     1       1.446  -1.002  -4.800  0.00  0.00    +0.000 C 
BRANCH   7  11
ATOM      8  C   UNL     1       0.172   0.817  -1.708  0.00  0.00    +0.000 C 
ATOM      9  C   UNL     1      -0.804   1.190  -2.827  0.00  0.00    +0.000 C 
ATOM     10  C   UNL     1      -0.015   1.020  -4.128  0.00  0.00    +0.000 C 
ATOM     11  C   UNL     1       1.200   0.135  -3.790  0.00  0.00    +0.000 C 
ATOM     12  C   UNL     1       0.940  -0.344  -2.357  0.00  0.00    +0.000 C 
BRANCH   8  13
ATOM     13  C   UNL     1       1.020   2.040  -1.313  0.00  0.00    +0.000 C 
BRANCH  13  14
ATOM     14  N   UNL     1       1.984   1.745  -0.260  0.00  0.00    +0.000 NA
ATOM     15  H   UNL     1       2.455   2.610   0.007  0.00  0.00    +0.000 HD
ATOM     16  H   UNL     1       2.713   1.133  -0.621  0.00  0.00    +0.000 HD
ENDBRANCH  13  14
ENDBRANCH   8  13
ENDBRANCH   7  11
ENDBRANCH   1   7
BRANCH   4  17
ATOM     17  C   UNL     1       2.427   1.333 -10.068  0.00  0.00    +0.000 C 
BRANCH  17  18
ATOM     18  N   UNL     1       3.328   0.584 -10.906  0.00  0.00    +0.000 N 
ATOM     19  C   UNL     1       3.733   1.065 -12.127  0.00  0.00    +0.000 C 
ATOM     20  O   UNL     1       3.391   2.165 -12.544  0.00  0.00    +0.000 OA
ATOM     21  H   UNL     1       3.446  -0.400 -10.687  0.00  0.00    +0.000 HD
BRANCH  19  22
ATOM     22  C   UNL     1       4.662   0.211 -12.881  0.00  0.00    +0.000 A 
ATOM     23  C   UNL     1       5.509   0.779 -13.824  0.00  0.00    +0.000 A 
ATOM     24  S   UNL     1       6.546  -0.346 -14.579  0.00  0.00    +0.000 S 
ATOM     25  C   UNL     1       5.865  -1.640 -13.708  0.00  0.00    +0.000 A 
ATOM     26  N   UNL     1       6.289  -2.917 -13.907  0.00  0.00    +0.000 NA
ATOM     27  C   UNL     1       5.668  -3.802 -13.202  0.00  0.00    +0.000 A 
ATOM     28  N   UNL     1       4.667  -3.524 -12.307  0.00  0.00    +0.000 N 
ATOM     29  C   UNL     1       4.230  -2.247 -12.049  0.00  0.00    +0.000 A 
ATOM     30  O   UNL     1       3.370  -2.029 -11.200  0.00  0.00    +0.000 OA
ATOM     31  C   UNL     1       4.879  -1.216 -12.834  0.00  0.00    +0.000 A 
ATOM     32  H   UNL     1       4.233  -4.261 -11.769  0.00  0.00    +0.000 HD
ENDBRANCH  19  22
ENDBRANCH  17  18
ENDBRANCH   4  17
TORSDOF 7
