REMARK  Name = 
REMARK  7 active torsions:
REMARK  status: ('A' for Active; 'I' for Inactive)
REMARK    1  A    between atoms: C_2  and  C_19
REMARK    2  A    between atoms: N_3  and  C_4
REMARK    3  A    between atoms: C_4  and  C_5
REMARK    4  A    between atoms: C_8  and  C_9
REMARK    5  A    between atoms: C_9  and  N_10
REMARK    6  A    between atoms: N_10  and  C_11
REMARK    7  A    between atoms: C_11  and  C_12
REMARK                            x       y       z     vdW  Elec       q    Type
REMARK                         _______ _______ _______ _____ _____    ______ ____
ROOT
ATOM      1  C   UNL     1       2.283   1.531   2.025  0.00  0.00    +0.000 C 
ENDROOT
BRANCH   1   2
ATOM      2  C   UNL     1       3.203   2.273   2.956  0.00  0.00    +0.000 A 
ATOM      3  C   UNL     1       3.213   3.673   2.956  0.00  0.00    +0.000 A 
ATOM      4  C   UNL     1       4.033   4.373   3.841  0.00  0.00    +0.000 A 
ATOM      5  C   UNL     1       4.851   3.697   4.761  0.00  0.00    +0.000 A 
ATOM      6  C   UNL     1       4.880   2.296   4.719  0.00  0.00    +0.000 A 
ATOM      7  C   UNL     1       4.068   1.591   3.823  0.00  0.00    +0.000 A 
BRANCH   5   8
ATOM      8  C   UNL     1       5.712   4.458   5.751  0.00  0.00    +0.000 C 
BRANCH   8   9
ATOM      9  N   UNL     1       5.057   5.695   6.177  0.00  0.00    +0.000 NA
ATOM     10  H   UNL     1       4.162   5.460   6.606  0.00  0.00    +0.000 HD
BRANCH   9  11
ATOM     11  C   UNL     1       5.861   6.503   7.087  0.00  0.00    +0.000 C 
BRANCH  11  12
ATOM     12  C   UNL     1       5.094   7.792   7.429  0.00  0.00    +0.000 C 
ATOM     13  C   UNL     1       4.827   8.688   6.215  0.00  0.00    +0.000 C 
ATOM     14  C   UNL     1       5.771   9.858   6.394  0.00  0.00    +0.000 C 
ATOM     15  N   UNL     1       5.836  10.043   7.847  0.00  0.00    +0.000 NA
ATOM     16  C   UNL     1       5.874   8.683   8.400  0.00  0.00    +0.000 C 
ATOM     17  H   UNL     1       4.971  10.493   8.149  0.00  0.00    +0.000 HD
ENDBRANCH  11  12
ENDBRANCH   9  11
ENDBRANCH   8   9
ENDBRANCH   5   8
ENDBRANCH   1   2
BRANCH   1  20
ATOM     18  O   UNL     1       1.826   3.132  -0.238  0.00  0.00    +0.000 OA
ATOM     19  C   UNL     1       2.619   2.197  -0.324  0.00  0.00    +0.000 C 
ATOM     20  N   UNL     1       2.873   1.351   0.723  0.00  0.00    +0.000 N 
ATOM     21  H   UNL     1       3.650   0.701   0.665  0.00  0.00    +0.000 HD
BRANCH  19  22
ATOM     22  C   UNL     1       3.302   1.898  -1.586  0.00  0.00    +0.000 A 
ATOM     23  C   UNL     1       2.774   2.370  -2.781  0.00  0.00    +0.000 A 
ATOM     24  S   UNL     1       3.689   1.944  -4.154  0.00  0.00    +0.000 S 
ATOM     25  C   UNL     1       4.851   1.150  -3.197  0.00  0.00    +0.000 A 
ATOM     26  N   UNL     1       5.952   0.587  -3.763  0.00  0.00    +0.000 NA
ATOM     27  C   UNL     1       6.772   0.054  -2.920  0.00  0.00    +0.000 A 
ATOM     28  N   UNL     1       6.583   0.017  -1.565  0.00  0.00    +0.000 N 
ATOM     29  C   UNL     1       5.446   0.493  -0.958  0.00  0.00    +0.000 A 
ATOM     30  O   UNL     1       5.238   0.311   0.237  0.00  0.00    +0.000 OA
ATOM     31  C   UNL     1       4.524   1.168  -1.852  0.00  0.00    +0.000 A 
ATOM     32  H   UNL     1       7.245  -0.448  -0.962  0.00  0.00    +0.000 HD
ENDBRANCH  19  22
ENDBRANCH   1  20
TORSDOF 7
