REMARK  Name = 
REMARK  5 active torsions:
REMARK  status: ('A' for Active; 'I' for Inactive)
REMARK    1  A    between atoms: C_2  and  C_4
REMARK    2  A    between atoms: C_7  and  N_8
REMARK    3  A    between atoms: N_8  and  C_9
REMARK    4  A    between atoms: C_9  and  C_10
REMARK    5  A    between atoms: C_15  and  C_16
REMARK                            x       y       z     vdW  Elec       q    Type
REMARK                         _______ _______ _______ _____ _____    ______ ____
ROOT
ATOM      1  C   UNL     1       4.817  -0.414   6.072  0.00  0.00    +0.000 C 
ENDROOT
BRANCH   1   2
ATOM      2  C   UNL     1       5.727  -0.156   7.256  0.00  0.00    +0.000 A 
ATOM      3  C   UNL     1       6.307  -1.217   7.950  0.00  0.00    +0.000 A 
ATOM      4  C   UNL     1       7.084  -0.965   9.078  0.00  0.00    +0.000 A 
ATOM      5  C   UNL     1       7.294   0.348   9.531  0.00  0.00    +0.000 A 
ATOM      6 CL   UNL     1       8.159   0.477  11.029  0.00  0.00    +0.000 Cl
ATOM      7  C   UNL     1       6.773   1.459   8.830  0.00  0.00    +0.000 A 
ATOM      8  C   UNL     1       5.979   1.160   7.695  0.00  0.00    +0.000 A 
BRANCH   7   9
ATOM      9  C   UNL     1       6.999   2.884   9.200  0.00  0.00    +0.000 A 
ATOM     10  C   UNL     1       8.223   3.371   9.684  0.00  0.00    +0.000 A 
ATOM     11  C   UNL     1       8.388   4.718  10.015  0.00  0.00    +0.000 A 
ATOM     12  C   UNL     1       7.328   5.579   9.810  0.00  0.00    +0.000 A 
ATOM     13  N   UNL     1       6.139   5.182   9.321  0.00  0.00    +0.000 NA
ATOM     14  C   UNL     1       6.005   3.859   9.043  0.00  0.00    +0.000 A 
ENDBRANCH   7   9
ENDBRANCH   1   2
BRANCH   1  15
ATOM     15  N   UNL     1       5.344   0.282   4.905  0.00  0.00    +0.000 N 
ATOM     16  H   UNL     1       6.314   0.033   4.731  0.00  0.00    +0.000 HD
BRANCH  15  20
ATOM     17  C   UNL     1       3.195  -0.038   1.417  0.00  0.00    +0.000 A 
ATOM     18  C   UNL     1       2.762  -0.671   2.569  0.00  0.00    +0.000 A 
ATOM     19  N   UNL     1       3.446  -0.599   3.745  0.00  0.00    +0.000 NA
ATOM     20  C   UNL     1       4.588   0.122   3.735  0.00  0.00    +0.000 A 
ATOM     21  C   UNL     1       5.003   0.762   2.558  0.00  0.00    +0.000 A 
ATOM     22  N   UNL     1       4.338   0.699   1.375  0.00  0.00    +0.000 NA
BRANCH  17  24
ATOM     23  N   UNL     1       2.918   0.502  -0.925  0.00  0.00    +0.000 N 
ATOM     24  C   UNL     1       2.399  -0.144   0.162  0.00  0.00    +0.000 C 
ATOM     25  O   UNL     1       1.347  -0.768   0.107  0.00  0.00    +0.000 OA
ATOM     26  H   UNL     1       2.414   0.488  -1.802  0.00  0.00    +0.000 HD
ATOM     27  H   UNL     1       3.783   1.025  -0.837  0.00  0.00    +0.000 HD
ENDBRANCH  17  24
ENDBRANCH  15  20
ENDBRANCH   1  15
TORSDOF 5
