REMARK  Name = 
REMARK  5 active torsions:
REMARK  status: ('A' for Active; 'I' for Inactive)
REMARK    1  A    between atoms: C_2  and  C_3
REMARK    2  A    between atoms: C_6  and  N_7
REMARK    3  A    between atoms: N_7  and  C_8
REMARK    4  A    between atoms: C_8  and  C_9
REMARK    5  A    between atoms: C_9  and  C_12
REMARK                            x       y       z     vdW  Elec       q    Type
REMARK                         _______ _______ _______ _____ _____    ______ ____
ROOT
ATOM      1  N   UNL     1       8.031   0.162  -0.230  0.00  0.00    +0.000 N 
ATOM      2  H   UNL     1       8.259   0.947  -0.837  0.00  0.00    +0.000 HD
ENDROOT
BRANCH   1   6
ATOM      3  C   UNL     1       3.979  -0.070   0.434  0.00  0.00    +0.000 A 
ATOM      4  C   UNL     1       4.650  -1.089  -0.221  0.00  0.00    +0.000 A 
ATOM      5  N   UNL     1       5.987  -1.052  -0.466  0.00  0.00    +0.000 NA
ATOM      6  C   UNL     1       6.649   0.050  -0.054  0.00  0.00    +0.000 A 
ATOM      7  C   UNL     1       5.949   1.081   0.582  0.00  0.00    +0.000 A 
ATOM      8  N   UNL     1       4.615   1.052   0.846  0.00  0.00    +0.000 NA
BRANCH   3  10
ATOM      9  N   UNL     1       1.452  -0.312   0.965  0.00  0.00    +0.000 NA
ATOM     10  C   UNL     1       2.581  -0.179   0.734  0.00  0.00    +0.000 C 
ENDBRANCH   3  10
ENDBRANCH   1   6
BRANCH   1  11
ATOM     11  C   UNL     1       8.734  -1.087  -0.613  0.00  0.00    +0.000 C 
BRANCH  11  12
ATOM     12  C   UNL     1      10.224  -0.846  -0.960  0.00  0.00    +0.000 C 
ATOM     13  F   UNL     1      10.260  -0.067  -2.092  0.00  0.00    +0.000 F 
ATOM     14  F   UNL     1      10.783  -0.058   0.014  0.00  0.00    +0.000 F 
BRANCH  12  15
ATOM     15  C   UNL     1      11.013  -2.138  -1.144  0.00  0.00    +0.000 A 
ATOM     16  C   UNL     1      12.373  -2.056  -1.447  0.00  0.00    +0.000 A 
ATOM     17  C   UNL     1      13.106  -3.229  -1.610  0.00  0.00    +0.000 A 
ATOM     18  C   UNL     1      12.470  -4.455  -1.462  0.00  0.00    +0.000 A 
ATOM     19  C   UNL     1      11.121  -4.458  -1.156  0.00  0.00    +0.000 A 
ATOM     20  N   UNL     1      10.383  -3.337  -0.999  0.00  0.00    +0.000 NA
ENDBRANCH  12  15
ENDBRANCH  11  12
ENDBRANCH   1  11
TORSDOF 5
