REMARK  Name = 
REMARK  9 active torsions:
REMARK  status: ('A' for Active; 'I' for Inactive)
REMARK    1  A    between atoms: N_1  and  C_2
REMARK    2  A    between atoms: C_2  and  C_3
REMARK    3  A    between atoms: C_3  and  C_4
REMARK    4  A    between atoms: C_7  and  C_8
REMARK    5  A    between atoms: C_8  and  N_9
REMARK    6  A    between atoms: C_15  and  C_16
REMARK    7  A    between atoms: N_18  and  C_19
REMARK    8  A    between atoms: C_19  and  C_20
REMARK    9  A    between atoms: C_20  and  O_21
REMARK                            x       y       z     vdW  Elec       q    Type
REMARK                         _______ _______ _______ _____ _____    ______ ____
ROOT
ATOM      1  N   UNL     1      10.079   0.554   1.731  0.00  0.00    +0.000 N 
ATOM      2  C   UNL     1      10.364   1.810   1.238  0.00  0.00    +0.000 A 
ATOM      3  C   UNL     1      11.282   2.383   2.080  0.00  0.00    +0.000 A 
ATOM      4  C   UNL     1      11.969   1.285   2.648  0.00  0.00    +0.000 A 
ATOM      5  C   UNL     1      13.265   1.117   3.161  0.00  0.00    +0.000 A 
ATOM      6  C   UNL     1      13.607  -0.103   3.749  0.00  0.00    +0.000 A 
ATOM      7  C   UNL     1      12.633  -1.087   3.942  0.00  0.00    +0.000 A 
ATOM      8  C   UNL     1      11.358  -0.974   3.355  0.00  0.00    +0.000 A 
ATOM      9  C   UNL     1      11.087   0.194   2.619  0.00  0.00    +0.000 A 
ENDROOT
BRANCH   7  10
ATOM     10  C   UNL     1      13.013  -2.259   4.760  0.00  0.00    +0.000 C 
ATOM     11  O   UNL     1      14.144  -2.709   4.694  0.00  0.00    +0.000 OA
ATOM     12  N   UNL     1      12.043  -2.765   5.611  0.00  0.00    +0.000 N 
ATOM     13  H   UNL     1      11.172  -2.269   5.712  0.00  0.00    +0.000 HD
BRANCH  12  14
ATOM     14  C   UNL     1      12.333  -3.867   6.515  0.00  0.00    +0.000 C 
BRANCH  14  15
ATOM     15  C   UNL     1      12.985  -3.410   7.822  0.00  0.00    +0.000 C 
BRANCH  15  16
ATOM     16  O   UNL     1      12.114  -2.529   8.530  0.00  0.00    +0.000 OA
ATOM     17  H   UNL     1      12.099  -1.701   8.020  0.00  0.00    +0.000 HD
ENDBRANCH  15  16
ENDBRANCH  14  15
ENDBRANCH  12  14
ENDBRANCH   7  10
BRANCH   1  18
ATOM     18  C   UNL     1       9.093  -0.306   1.089  0.00  0.00    +0.000 C 
BRANCH  18  22
ATOM     19  C   UNL     1       6.123  -2.237   3.603  0.00  0.00    +0.000 A 
ATOM     20  C   UNL     1       6.118  -0.843   3.452  0.00  0.00    +0.000 A 
ATOM     21  C   UNL     1       7.089  -0.198   2.665  0.00  0.00    +0.000 A 
ATOM     22  C   UNL     1       8.071  -0.948   2.010  0.00  0.00    +0.000 A 
ATOM     23  C   UNL     1       8.051  -2.331   2.133  0.00  0.00    +0.000 A 
ATOM     24  C   UNL     1       7.094  -2.974   2.917  0.00  0.00    +0.000 A 
BRANCH  19  25
ATOM     25  C   UNL     1       5.131  -2.944   4.493  0.00  0.00    +0.000 C 
BRANCH  25  26
ATOM     26  C   UNL     1       3.861  -3.396   3.765  0.00  0.00    +0.000 C 
BRANCH  26  27
ATOM     27  N   UNL     1       2.972  -4.113   4.682  0.00  0.00    +0.000 NA
ATOM     28  H   UNL     1       2.124  -4.391   4.190  0.00  0.00    +0.000 HD
ATOM     29  H   UNL     1       2.675  -3.489   5.432  0.00  0.00    +0.000 HD
ENDBRANCH  26  27
ENDBRANCH  25  26
ENDBRANCH  19  25
ENDBRANCH  18  22
ENDBRANCH   1  18
TORSDOF 9
