REMARK  Name = 
REMARK  9 active torsions:
REMARK  status: ('A' for Active; 'I' for Inactive)
REMARK    1  A    between atoms: C_1  and  N_2
REMARK    2  A    between atoms: C_8  and  C_9
REMARK    3  A    between atoms: C_9  and  C_10
REMARK    4  A    between atoms: C_10  and  N_11
REMARK    5  A    between atoms: N_11  and  C_12
REMARK    6  A    between atoms: C_15  and  C_16
REMARK    7  A    between atoms: C_16  and  C_17
REMARK    8  A    between atoms: C_16  and  O_18
REMARK    9  A    between atoms: C_16  and  C_19
REMARK                            x       y       z     vdW  Elec       q    Type
REMARK                         _______ _______ _______ _____ _____    ______ ____
ROOT
ATOM      1  N   UNL     1      -0.747  -5.681  14.208  0.00  0.00    +0.000 N 
ATOM      2  H   UNL     1       0.057  -5.841  14.809  0.00  0.00    +0.000 HD
ENDROOT
BRANCH   1   3
ATOM      3  C   UNL     1      -0.379  -5.456  12.878  0.00  0.00    +0.000 A 
ATOM      4  C   UNL     1      -1.062  -4.594  12.019  0.00  0.00    +0.000 A 
ATOM      5  C   UNL     1      -0.720  -4.483  10.665  0.00  0.00    +0.000 A 
ATOM      6  C   UNL     1       0.303  -5.262  10.108  0.00  0.00    +0.000 A 
ATOM      7  C   UNL     1       0.992  -6.133  10.968  0.00  0.00    +0.000 A 
ATOM      8  C   UNL     1       0.645  -6.232  12.324  0.00  0.00    +0.000 A 
BRANCH   6   9
ATOM      9  C   UNL     1       0.632  -5.202   8.614  0.00  0.00    +0.000 C 
ATOM     10  C   UNL     1       2.050  -4.646   8.414  0.00  0.00    +0.000 C 
BRANCH   9  11
ATOM     11  C   UNL     1       0.483  -6.600   7.912  0.00  0.00    +0.000 C 
ATOM     12  F   UNL     1       0.051  -7.588   8.725  0.00  0.00    +0.000 F 
ATOM     13  F   UNL     1      -0.403  -6.518   6.884  0.00  0.00    +0.000 F 
ATOM     14  F   UNL     1       1.654  -7.017   7.371  0.00  0.00    +0.000 F 
ENDBRANCH   9  11
BRANCH   9  15
ATOM     15  O   UNL     1      -0.230  -4.215   7.983  0.00  0.00    +0.000 OA
ATOM     16  H   UNL     1      -0.183  -4.360   7.020  0.00  0.00    +0.000 HD
ENDBRANCH   9  15
ENDBRANCH   6   9
ENDBRANCH   1   3
BRANCH   1  17
ATOM     17  C   UNL     1      -1.830  -4.903  14.805  0.00  0.00    +0.000 C 
BRANCH  17  18
ATOM     18  C   UNL     1      -2.012  -5.272  16.278  0.00  0.00    +0.000 C 
BRANCH  18  26
ATOM     19  C   UNL     1      -2.094   2.487  19.554  0.00  0.00    +0.000 C 
ATOM     20  N   UNL     1      -2.791   1.216  19.750  0.00  0.00    +0.000 NA
ATOM     21  C   UNL     1      -3.895   1.062  18.768  0.00  0.00    +0.000 C 
ATOM     22  C   UNL     1      -4.620  -0.312  18.876  0.00  0.00    +0.000 C 
ATOM     23  N   UNL     1      -3.598  -1.345  18.713  0.00  0.00    +0.000 N 
ATOM     24  C   UNL     1      -3.916  -2.571  18.161  0.00  0.00    +0.000 A 
ATOM     25  C   UNL     1      -2.892  -3.293  17.542  0.00  0.00    +0.000 A 
ATOM     26  C   UNL     1      -3.141  -4.520  16.933  0.00  0.00    +0.000 A 
ATOM     27  C   UNL     1      -4.449  -4.992  16.941  0.00  0.00    +0.000 A 
ATOM     28  C   UNL     1      -5.421  -4.223  17.562  0.00  0.00    +0.000 A 
ATOM     29  N   UNL     1      -5.186  -3.023  18.150  0.00  0.00    +0.000 NA
ATOM     30  C   UNL     1      -2.541  -1.287  19.727  0.00  0.00    +0.000 C 
ATOM     31  C   UNL     1      -1.841   0.086  19.612  0.00  0.00    +0.000 C 
ENDBRANCH  18  26
ENDBRANCH  17  18
ENDBRANCH   1  17
TORSDOF 7
