REMARK  Name = 
REMARK  7 active torsions:
REMARK  status: ('A' for Active; 'I' for Inactive)
REMARK    1  A    between atoms: C_1  and  O_2
REMARK    2  A    between atoms: O_2  and  C_3
REMARK    3  A    between atoms: C_5  and  C_6
REMARK    4  A    between atoms: C_11  and  N_12
REMARK    5  A    between atoms: N_12  and  C_13
REMARK    6  A    between atoms: C_13  and  C_14
REMARK    7  A    between atoms: C_18  and  C_19
REMARK                            x       y       z     vdW  Elec       q    Type
REMARK                         _______ _______ _______ _____ _____    ______ ____
ROOT
ATOM      1  N   UNL     1       4.696   1.595   0.523  0.00  0.00    +0.000 N 
ATOM      2  H   UNL     1       5.274   2.303   0.971  0.00  0.00    +0.000 HD
ENDROOT
BRANCH   1   8
ATOM      3  C   UNL     1       2.978  -0.035   1.367  0.00  0.00    +0.000 A 
ATOM      4  C   UNL     1       2.677  -1.058   2.279  0.00  0.00    +0.000 A 
ATOM      5  C   UNL     1       3.601  -1.473   3.246  0.00  0.00    +0.000 A 
ATOM      6  C   UNL     1       4.851  -0.858   3.288  0.00  0.00    +0.000 A 
ATOM      7  C   UNL     1       5.156   0.168   2.382  0.00  0.00    +0.000 A 
ATOM      8  C   UNL     1       4.232   0.619   1.419  0.00  0.00    +0.000 A 
BRANCH   5   9
ATOM      9  C   UNL     1       3.180  -2.569   4.164  0.00  0.00    +0.000 C 
ATOM     10  N   UNL     1       4.068  -3.031   5.095  0.00  0.00    +0.000 N 
ATOM     11  O   UNL     1       2.057  -3.062   4.103  0.00  0.00    +0.000 OA
ATOM     12  H   UNL     1       5.017  -2.713   5.205  0.00  0.00    +0.000 HD
ATOM     13  H   UNL     1       3.747  -3.784   5.689  0.00  0.00    +0.000 HD
ENDBRANCH   5   9
BRANCH   3  15
ATOM     14  C   UNL     1       0.715   0.083   0.598  0.00  0.00    +0.000 C 
ATOM     15  O   UNL     1       2.096   0.338   0.384  0.00  0.00    +0.000 OA
ENDBRANCH   3  15
ENDBRANCH   1   8
BRANCH   1  16
ATOM     16  C   UNL     1       3.798   2.194  -0.472  0.00  0.00    +0.000 C 
BRANCH  16  17
ATOM     17  C   UNL     1       4.493   3.234  -1.342  0.00  0.00    +0.000 A 
ATOM     18  N   UNL     1       4.512   3.010  -2.673  0.00  0.00    +0.000 NA
ATOM     19  C   UNL     1       5.105   3.940  -3.432  0.00  0.00    +0.000 A 
ATOM     20  C   UNL     1       5.657   5.088  -2.922  0.00  0.00    +0.000 A 
ATOM     21  C   UNL     1       5.579   5.264  -1.551  0.00  0.00    +0.000 A 
ATOM     22  N   UNL     1       5.010   4.334  -0.747  0.00  0.00    +0.000 NA
BRANCH  21  23
ATOM     23  C   UNL     1       6.121   6.463  -0.878  0.00  0.00    +0.000 A 
ATOM     24  C   UNL     1       6.192   7.710  -1.518  0.00  0.00    +0.000 A 
ATOM     25  C   UNL     1       6.746   8.792  -0.850  0.00  0.00    +0.000 A 
ATOM     26  N   UNL     1       7.226   8.729   0.407  0.00  0.00    +0.000 NA
ATOM     27  C   UNL     1       7.134   7.535   1.026  0.00  0.00    +0.000 A 
ATOM     28  C   UNL     1       6.597   6.399   0.439  0.00  0.00    +0.000 A 
ENDBRANCH  21  23
ENDBRANCH  16  17
ENDBRANCH   1  16
TORSDOF 6
