REMARK  Name = 
REMARK  7 active torsions:
REMARK  status: ('A' for Active; 'I' for Inactive)
REMARK    1  A    between atoms: C_1  and  C_2
REMARK    2  A    between atoms: C_2  and  C_3
REMARK    3  A    between atoms: C_2  and  C_4
REMARK    4  A    between atoms: C_2  and  C_5
REMARK    5  A    between atoms: C_9  and  C_10
REMARK    6  A    between atoms: N_16  and  C_17
REMARK    7  A    between atoms: C_17  and  C_18
REMARK                            x       y       z     vdW  Elec       q    Type
REMARK                         _______ _______ _______ _____ _____    ______ ____
ROOT
ATOM      1  C   UNL     1       2.859   0.813   1.219  0.00  0.00    +0.000 A 
ATOM      2  N   UNL     1       2.613   2.109   1.368  0.00  0.00    +0.000 NA
ATOM      3  C   UNL     1       3.154   2.491   2.564  0.00  0.00    +0.000 A 
ATOM      4  C   UNL     1       3.134   3.746   3.173  0.00  0.00    +0.000 A 
ATOM      5  C   UNL     1       3.764   3.817   4.404  0.00  0.00    +0.000 A 
ATOM      6  N   UNL     1       4.413   2.779   5.010  0.00  0.00    +0.000 NA
ATOM      7  C   UNL     1       4.432   1.569   4.397  0.00  0.00    +0.000 A 
ATOM      8  C   UNL     1       3.776   1.418   3.183  0.00  0.00    +0.000 A 
ATOM      9  N   UNL     1       3.514   0.339   2.350  0.00  0.00    +0.000 N 
ENDROOT
BRANCH   5  10
ATOM     10  C   UNL     1       3.705   5.109   5.165  0.00  0.00    +0.000 C 
ATOM     11  N   UNL     1       4.293   5.097   6.405  0.00  0.00    +0.000 N 
ATOM     12  O   UNL     1       3.158   6.112   4.733  0.00  0.00    +0.000 OA
ATOM     13  H   UNL     1       4.704   4.243   6.760  0.00  0.00    +0.000 HD
ATOM     14  H   UNL     1       4.240   5.925   6.983  0.00  0.00    +0.000 HD
ENDBRANCH   5  10
BRANCH   1  16
ATOM     15  C   UNL     1       1.709   1.007  -0.993  0.00  0.00    +0.000 C 
ATOM     16  C   UNL     1       2.462   0.039  -0.041  0.00  0.00    +0.000 C 
ATOM     17  C   UNL     1       1.509  -1.135   0.228  0.00  0.00    +0.000 C 
ATOM     18  C   UNL     1       3.705  -0.467  -0.797  0.00  0.00    +0.000 C 
ENDBRANCH   1  16
BRANCH   9  19
ATOM     19  C   UNL     1       3.807  -1.045   2.698  0.00  0.00    +0.000 C 
BRANCH  19  20
ATOM     20  C   UNL     1       2.690  -1.751   3.440  0.00  0.00    +0.000 A 
ATOM     21  C   UNL     1       1.475  -1.143   3.780  0.00  0.00    +0.000 A 
ATOM     22  C   UNL     1       0.529  -1.873   4.485  0.00  0.00    +0.000 A 
ATOM     23  N   UNL     1       0.699  -3.156   4.859  0.00  0.00    +0.000 NA
ATOM     24  C   UNL     1       1.860  -3.741   4.504  0.00  0.00    +0.000 A 
ATOM     25  C   UNL     1       2.868  -3.093   3.803  0.00  0.00    +0.000 A 
ENDBRANCH  19  20
ENDBRANCH   9  19
TORSDOF 4
