REMARK  Name = 
REMARK  5 active torsions:
REMARK  status: ('A' for Active; 'I' for Inactive)
REMARK    1  A    between atoms: C_2  and  C_3
REMARK    2  A    between atoms: C_6  and  N_7
REMARK    3  A    between atoms: N_7  and  C_8
REMARK    4  A    between atoms: C_8  and  C_9
REMARK    5  A    between atoms: C_13  and  C_14
REMARK                            x       y       z     vdW  Elec       q    Type
REMARK                         _______ _______ _______ _____ _____    ______ ____
ROOT
ATOM      1  C   UNL     1       8.619  -0.940  -0.602  0.00  0.00    +0.000 C 
ATOM      2  C   UNL     1       8.503  -1.651  -1.950  0.00  0.00    +0.000 C 
ATOM      3  C   UNL     1       9.021  -2.388  -0.762  0.00  0.00    +0.000 C 
ENDROOT
BRANCH   1   4
ATOM      4  C   UNL     1       9.684   0.145  -0.459  0.00  0.00    +0.000 A 
ATOM      5  C   UNL     1      10.604   0.154   0.587  0.00  0.00    +0.000 A 
ATOM      6  C   UNL     1      11.364   1.298   0.813  0.00  0.00    +0.000 A 
ATOM      7  C   UNL     1      11.183   2.411  -0.003  0.00  0.00    +0.000 A 
ATOM      8  C   UNL     1      10.265   2.342  -1.045  0.00  0.00    +0.000 A 
ATOM      9  N   UNL     1       9.549   1.219  -1.280  0.00  0.00    +0.000 NA
BRANCH   8  10
ATOM     10  C   UNL     1       9.938   3.474  -1.931  0.00  0.00    +0.000 A 
ATOM     11  C   UNL     1       9.566   3.253  -3.270  0.00  0.00    +0.000 A 
ATOM     12  C   UNL     1       9.219   4.310  -4.116  0.00  0.00    +0.000 A 
ATOM     13  C   UNL     1       9.233   5.614  -3.636  0.00  0.00    +0.000 A 
ATOM     14  C   UNL     1       9.580   5.861  -2.310  0.00  0.00    +0.000 A 
ATOM     15  C   UNL     1       9.927   4.802  -1.466  0.00  0.00    +0.000 A 
ENDBRANCH   8  10
ENDBRANCH   1   4
BRANCH   1  16
ATOM     16  N   UNL     1       7.306  -0.450  -0.136  0.00  0.00    +0.000 N 
ATOM     17  H   UNL     1       7.134   0.513  -0.443  0.00  0.00    +0.000 HD
BRANCH  16  21
ATOM     18  C   UNL     1       5.479  -0.706   3.498  0.00  0.00    +0.000 A 
ATOM     19  C   UNL     1       5.454   0.451   2.746  0.00  0.00    +0.000 A 
ATOM     20  N   UNL     1       6.139   0.573   1.581  0.00  0.00    +0.000 NA
ATOM     21  C   UNL     1       6.850  -0.506   1.177  0.00  0.00    +0.000 A 
ATOM     22  C   UNL     1       6.927  -1.632   1.984  0.00  0.00    +0.000 A 
ATOM     23  N   UNL     1       6.251  -1.765   3.162  0.00  0.00    +0.000 NA
BRANCH  18  25
ATOM     24  N   UNL     1       3.883  -0.929   5.530  0.00  0.00    +0.000 NA
ATOM     25  C   UNL     1       4.619  -0.852   4.633  0.00  0.00    +0.000 C 
ENDBRANCH  18  25
ENDBRANCH  16  21
ENDBRANCH   1  16
TORSDOF 5
