REMARK  Name = 
REMARK  8 active torsions:
REMARK  status: ('A' for Active; 'I' for Inactive)
REMARK    1  A    between atoms: C_1  and  O_2
REMARK    2  A    between atoms: O_2  and  C_3
REMARK    3  A    between atoms: C_8  and  C_9
REMARK    4  A    between atoms: N_11  and  C_12
REMARK    5  A    between atoms: C_12  and  C_13
REMARK    6  A    between atoms: C_16  and  C_17
REMARK    7  A    between atoms: C_17  and  N_18
REMARK    8  A    between atoms: C_19  and  C_21
REMARK                            x       y       z     vdW  Elec       q    Type
REMARK                         _______ _______ _______ _____ _____    ______ ____
ROOT
ATOM      1  C   UNL     1       2.943   4.101   0.401  0.00  0.00    +0.000 A 
ATOM      2  C   UNL     1       1.778   3.523  -0.123  0.00  0.00    +0.000 A 
ATOM      3  C   UNL     1       0.801   4.314  -0.744  0.00  0.00    +0.000 A 
ATOM      4  C   UNL     1       0.974   5.698  -0.870  0.00  0.00    +0.000 A 
ATOM      5  C   UNL     1       2.124   6.280  -0.319  0.00  0.00    +0.000 A 
ATOM      6  C   UNL     1       3.101   5.490   0.299  0.00  0.00    +0.000 A 
ENDROOT
BRANCH   1   7
ATOM      7  C   UNL     1       4.004   3.252   1.058  0.00  0.00    +0.000 C 
BRANCH   7  10
ATOM      8  C   UNL     1       6.041   1.953   0.515  0.00  0.00    +0.000 C 
ATOM      9  O   UNL     1       6.182   1.593   1.679  0.00  0.00    +0.000 OA
ATOM     10  N   UNL     1       4.993   2.772   0.122  0.00  0.00    +0.000 N 
ATOM     11  H   UNL     1       4.967   3.051  -0.855  0.00  0.00    +0.000 HD
BRANCH   8  17
ATOM     12  C   UNL     1       8.116   0.761  -0.416  0.00  0.00    +0.000 A 
ATOM     13  C   UNL     1       8.889   0.468  -1.547  0.00  0.00    +0.000 A 
ATOM     14  C   UNL     1       8.526   0.967  -2.796  0.00  0.00    +0.000 A 
ATOM     15  C   UNL     1       7.393   1.751  -2.888  0.00  0.00    +0.000 A 
ATOM     16  N   UNL     1       6.610   2.063  -1.834  0.00  0.00    +0.000 NA
ATOM     17  C   UNL     1       6.977   1.556  -0.611  0.00  0.00    +0.000 A 
BRANCH  12  19
ATOM     18  C   UNL     1       9.757  -0.078   1.093  0.00  0.00    +0.000 C 
ATOM     19  O   UNL     1       8.401   0.266   0.826  0.00  0.00    +0.000 OA
ENDBRANCH  12  19
ENDBRANCH   8  17
ENDBRANCH   7  10
ENDBRANCH   1   7
BRANCH   4  20
ATOM     20  C   UNL     1      -0.060   6.553  -1.561  0.00  0.00    +0.000 C 
BRANCH  20  21
ATOM     21  N   UNL     1      -1.053   7.035  -0.635  0.00  0.00    +0.000 N 
ATOM     22  C   UNL     1      -2.139   7.761  -1.058  0.00  0.00    +0.000 C 
ATOM     23  O   UNL     1      -2.347   7.988  -2.249  0.00  0.00    +0.000 OA
ATOM     24  H   UNL     1      -0.784   7.071   0.342  0.00  0.00    +0.000 HD
BRANCH  22  25
ATOM     25  C   UNL     1      -3.077   8.202  -0.018  0.00  0.00    +0.000 A 
ATOM     26  C   UNL     1      -4.392   8.499  -0.354  0.00  0.00    +0.000 A 
ATOM     27  S   UNL     1      -5.360   8.930   0.983  0.00  0.00    +0.000 S 
ATOM     28  C   UNL     1      -4.043   8.791   2.051  0.00  0.00    +0.000 A 
ATOM     29  N   UNL     1      -4.190   9.048   3.380  0.00  0.00    +0.000 NA
ATOM     30  C   UNL     1      -3.104   8.938   4.068  0.00  0.00    +0.000 A 
ATOM     31  N   UNL     1      -1.883   8.592   3.548  0.00  0.00    +0.000 N 
ATOM     32  C   UNL     1      -1.692   8.298   2.219  0.00  0.00    +0.000 A 
ATOM     33  O   UNL     1      -0.594   7.957   1.793  0.00  0.00    +0.000 OA
ATOM     34  C   UNL     1      -2.884   8.410   1.399  0.00  0.00    +0.000 A 
ATOM     35  H   UNL     1      -1.069   8.518   4.141  0.00  0.00    +0.000 HD
ENDBRANCH  22  25
ENDBRANCH  20  21
ENDBRANCH   4  20
TORSDOF 7
