REMARK  Name = 
REMARK  7 active torsions:
REMARK  status: ('A' for Active; 'I' for Inactive)
REMARK    1  A    between atoms: C_1  and  C_2
REMARK    2  A    between atoms: C_2  and  N_3
REMARK    3  A    between atoms: C_2  and  C_16
REMARK    4  A    between atoms: C_4  and  C_6
REMARK    5  A    between atoms: C_19  and  C_20
REMARK    6  A    between atoms: C_20  and  N_21
REMARK    7  A    between atoms: C_22  and  C_24
REMARK                            x       y       z     vdW  Elec       q    Type
REMARK                         _______ _______ _______ _____ _____    ______ ____
ROOT
ATOM      1  C   UNL     1       3.661  -0.866  -0.328  0.00  0.00    +0.000 C 
ATOM      2  C   UNL     1       2.421  -0.024  -0.005  0.00  0.00    +0.000 C 
ENDROOT
BRANCH   2   3
ATOM      3  C   UNL     1       2.774   1.088   0.976  0.00  0.00    +0.000 A 
ATOM      4  C   UNL     1       2.665   2.434   0.605  0.00  0.00    +0.000 A 
ATOM      5  C   UNL     1       2.941   3.452   1.526  0.00  0.00    +0.000 A 
ATOM      6  C   UNL     1       3.339   3.145   2.836  0.00  0.00    +0.000 A 
ATOM      7  C   UNL     1       3.448   1.802   3.208  0.00  0.00    +0.000 A 
ATOM      8  C   UNL     1       3.176   0.785   2.289  0.00  0.00    +0.000 A 
BRANCH   6   9
ATOM      9  C   UNL     1       3.608   4.238   3.836  0.00  0.00    +0.000 C 
BRANCH   9  10
ATOM     10  N   UNL     1       2.416   4.578   4.581  0.00  0.00    +0.000 N 
ATOM     11  C   UNL     1       2.465   5.508   5.598  0.00  0.00    +0.000 C 
ATOM     12  O   UNL     1       3.495   6.102   5.901  0.00  0.00    +0.000 OA
ATOM     13  H   UNL     1       1.531   4.203   4.266  0.00  0.00    +0.000 HD
BRANCH  11  14
ATOM     14  C   UNL     1       1.128   5.749   6.288  0.00  0.00    +0.000 C 
ATOM     15  C   UNL     1       1.195   6.813   7.364  0.00  0.00    +0.000 C 
ATOM     16  C   UNL     1       1.642   6.031   8.579  0.00  0.00    +0.000 C 
ATOM     17  O   UNL     1       1.082   4.718   8.444  0.00  0.00    +0.000 OA
ATOM     18  C   UNL     1       0.691   4.526   7.075  0.00  0.00    +0.000 C 
ENDBRANCH  11  14
ENDBRANCH   9  10
ENDBRANCH   6   9
ENDBRANCH   2   3
BRANCH   2  19
ATOM     19  N   UNL     1       1.332  -0.810   0.558  0.00  0.00    +0.000 N 
ATOM     20  C   UNL     1       0.732  -1.856  -0.093  0.00  0.00    +0.000 C 
ATOM     21  O   UNL     1       1.097  -2.253  -1.195  0.00  0.00    +0.000 OA
ATOM     22  H   UNL     1       0.800  -0.352   1.292  0.00  0.00    +0.000 HD
BRANCH  20  23
ATOM     23  C   UNL     1      -0.340  -2.538   0.641  0.00  0.00    +0.000 A 
ATOM     24  C   UNL     1      -0.581  -3.885   0.409  0.00  0.00    +0.000 A 
ATOM     25  S   UNL     1      -1.837  -4.529   1.365  0.00  0.00    +0.000 S 
ATOM     26  C   UNL     1      -2.136  -3.018   2.086  0.00  0.00    +0.000 A 
ATOM     27  N   UNL     1      -3.135  -2.862   2.996  0.00  0.00    +0.000 NA
ATOM     28  C   UNL     1      -3.273  -1.656   3.434  0.00  0.00    +0.000 A 
ATOM     29  N   UNL     1      -2.495  -0.593   3.055  0.00  0.00    +0.000 N 
ATOM     30  C   UNL     1      -1.444  -0.712   2.177  0.00  0.00    +0.000 A 
ATOM     31  O   UNL     1      -0.717   0.241   1.916  0.00  0.00    +0.000 OA
ATOM     32  C   UNL     1      -1.268  -2.042   1.628  0.00  0.00    +0.000 A 
ATOM     33  H   UNL     1      -2.646   0.323   3.451  0.00  0.00    +0.000 HD
ENDBRANCH  20  23
ENDBRANCH   2  19
TORSDOF 6
