REMARK  Name = 
REMARK  7 active torsions:
REMARK  status: ('A' for Active; 'I' for Inactive)
REMARK    1  A    between atoms: C_1  and  C_2
REMARK    2  A    between atoms: C_7  and  C_8
REMARK    3  A    between atoms: N_10  and  C_11
REMARK    4  A    between atoms: C_11  and  C_12
REMARK    5  A    between atoms: C_15  and  C_16
REMARK    6  A    between atoms: C_16  and  N_17
REMARK    7  A    between atoms: N_17  and  C_18
REMARK                            x       y       z     vdW  Elec       q    Type
REMARK                         _______ _______ _______ _____ _____    ______ ____
ROOT
ATOM      1  C   UNL     1       9.150   1.244   1.636  0.00  0.00    +0.000 C 
ATOM      2  O   UNL     1       9.440   0.501   0.702  0.00  0.00    +0.000 OA
ATOM      3  N   UNL     1       8.665   2.511   1.414  0.00  0.00    +0.000 N 
ATOM      4  H   UNL     1       8.414   3.114   2.189  0.00  0.00    +0.000 HD
ENDROOT
BRANCH   1  11
ATOM      5  C   UNL     1       8.571   2.819   8.285  0.00  0.00    +0.000 C 
ATOM      6  C   UNL     1       8.776   2.259   6.908  0.00  0.00    +0.000 A 
ATOM      7  N   UNL     1       9.230   1.061   6.711  0.00  0.00    +0.000 NA
ATOM      8  C   UNL     1       9.360   0.705   5.403  0.00  0.00    +0.000 A 
ATOM      9  S   UNL     1       9.949  -0.829   4.967  0.00  0.00    +0.000 S 
ATOM     10  C   UNL     1       9.806  -0.472   3.303  0.00  0.00    +0.000 A 
ATOM     11  C   UNL     1       9.316   0.801   3.038  0.00  0.00    +0.000 A 
ATOM     12  C   UNL     1       9.056   1.477   4.297  0.00  0.00    +0.000 A 
ATOM     13  C   UNL     1       8.542   2.795   4.571  0.00  0.00    +0.000 A 
ATOM     14  O   UNL     1       8.198   3.604   3.711  0.00  0.00    +0.000 OA
ATOM     15  N   UNL     1       8.446   3.123   5.897  0.00  0.00    +0.000 N 
ATOM     16  H   UNL     1       8.088   4.048   6.092  0.00  0.00    +0.000 HD
ENDBRANCH   1  11
BRANCH   3  17
ATOM     17  C   UNL     1       8.473   3.032   0.080  0.00  0.00    +0.000 C 
BRANCH  17  18
ATOM     18  C   UNL     1       7.940   4.445   0.076  0.00  0.00    +0.000 A 
ATOM     19  C   UNL     1       8.811   5.546   0.076  0.00  0.00    +0.000 A 
ATOM     20  C   UNL     1       8.308   6.853   0.041  0.00  0.00    +0.000 A 
ATOM     21  C   UNL     1       6.926   7.076   0.003  0.00  0.00    +0.000 A 
ATOM     22  C   UNL     1       6.060   5.978   0.028  0.00  0.00    +0.000 A 
ATOM     23  C   UNL     1       6.560   4.677   0.069  0.00  0.00    +0.000 A 
BRANCH  21  24
ATOM     24  C   UNL     1       6.332   8.454   0.052  0.00  0.00    +0.000 C 
BRANCH  24  25
ATOM     25  N   UNL     1       6.718   9.300  -1.077  0.00  0.00    +0.000 NA
ATOM     26  H   UNL     1       6.442   8.827  -1.940  0.00  0.00    +0.000 HD
BRANCH  25  27
ATOM     27  C   UNL     1       6.038  10.602  -1.005  0.00  0.00    +0.000 C 
ATOM     28  C   UNL     1       6.440  11.460  -2.215  0.00  0.00    +0.000 C 
ATOM     29  C   UNL     1       5.767  12.833  -2.156  0.00  0.00    +0.000 C 
ATOM     30  C   UNL     1       6.068  13.555  -0.846  0.00  0.00    +0.000 C 
ATOM     31  C   UNL     1       5.696  12.707   0.360  0.00  0.00    +0.000 C 
ATOM     32  C   UNL     1       6.371  11.347   0.300  0.00  0.00    +0.000 C 
ENDBRANCH  25  27
ENDBRANCH  24  25
ENDBRANCH  21  24
ENDBRANCH  17  18
ENDBRANCH   3  17
TORSDOF 6
