REMARK  Name = 
REMARK  9 active torsions:
REMARK  status: ('A' for Active; 'I' for Inactive)
REMARK    1  A    between atoms: C_1  and  O_2
REMARK    2  A    between atoms: O_2  and  C_3
REMARK    3  A    between atoms: C_10  and  C_11
REMARK    4  A    between atoms: N_13  and  C_14
REMARK    5  A    between atoms: C_14  and  C_15
REMARK    6  A    between atoms: C_18  and  C_19
REMARK    7  A    between atoms: C_19  and  N_20
REMARK    8  A    between atoms: N_20  and  C_21
REMARK    9  A    between atoms: C_21  and  C_22
REMARK                            x       y       z     vdW  Elec       q    Type
REMARK                         _______ _______ _______ _____ _____    ______ ____
ROOT
ATOM      1  C   UNL     1       2.971  -1.271   3.164  0.00  0.00    +0.000 C 
ENDROOT
BRANCH   1   2
ATOM      2  C   UNL     1       1.827  -0.327   3.441  0.00  0.00    +0.000 A 
ATOM      3  C   UNL     1       0.557  -0.818   3.774  0.00  0.00    +0.000 A 
ATOM      4  C   UNL     1      -0.503   0.061   4.027  0.00  0.00    +0.000 A 
ATOM      5  C   UNL     1      -0.322   1.450   3.950  0.00  0.00    +0.000 A 
ATOM      6  C   UNL     1       0.939   1.937   3.581  0.00  0.00    +0.000 A 
ATOM      7  C   UNL     1       1.999   1.059   3.324  0.00  0.00    +0.000 A 
BRANCH   5   8
ATOM      8  C   UNL     1      -1.464   2.399   4.255  0.00  0.00    +0.000 C 
BRANCH   8   9
ATOM      9  N   UNL     1      -1.955   2.203   5.618  0.00  0.00    +0.000 NA
ATOM     10  H   UNL     1      -1.189   2.383   6.269  0.00  0.00    +0.000 HD
BRANCH   9  11
ATOM     11  C   UNL     1      -3.049   3.129   5.943  0.00  0.00    +0.000 C 
BRANCH  11  12
ATOM     12  C   UNL     1      -3.547   2.942   7.367  0.00  0.00    +0.000 A 
ATOM     13  C   UNL     1      -4.059   1.710   7.775  0.00  0.00    +0.000 A 
ATOM     14  C   UNL     1      -4.487   1.556   9.091  0.00  0.00    +0.000 A 
ATOM     15  C   UNL     1      -4.402   2.634   9.963  0.00  0.00    +0.000 A 
ATOM     16  C   UNL     1      -3.890   3.826   9.480  0.00  0.00    +0.000 A 
ATOM     17  N   UNL     1      -3.460   4.004   8.209  0.00  0.00    +0.000 NA
ENDBRANCH  11  12
ENDBRANCH   9  11
ENDBRANCH   8   9
ENDBRANCH   5   8
ENDBRANCH   1   2
BRANCH   1  20
ATOM     18  C   UNL     1       3.939  -2.492   1.252  0.00  0.00    +0.000 C 
ATOM     19  O   UNL     1       4.785  -3.025   1.965  0.00  0.00    +0.000 OA
ATOM     20  N   UNL     1       3.022  -1.619   1.767  0.00  0.00    +0.000 N 
ATOM     21  H   UNL     1       2.369  -1.153   1.154  0.00  0.00    +0.000 HD
BRANCH  18  29
ATOM     22  C   UNL     1       1.806  -1.468  -1.250  0.00  0.00    +0.000 A 
ATOM     23  N   UNL     1       1.133  -1.236  -2.396  0.00  0.00    +0.000 NA
ATOM     24  C   UNL     1       1.564  -1.834  -3.508  0.00  0.00    +0.000 A 
ATOM     25  N   UNL     1       2.606  -2.653  -3.625  0.00  0.00    +0.000 NA
ATOM     26  C   UNL     1       3.252  -2.852  -2.463  0.00  0.00    +0.000 A 
ATOM     27  S   UNL     1       4.609  -3.870  -2.425  0.00  0.00    +0.000 S 
ATOM     28  C   UNL     1       4.814  -3.617  -0.757  0.00  0.00    +0.000 A 
ATOM     29  C   UNL     1       3.869  -2.766  -0.195  0.00  0.00    +0.000 A 
ATOM     30  C   UNL     1       2.935  -2.305  -1.223  0.00  0.00    +0.000 A 
BRANCH  22  32
ATOM     31  C   UNL     1       0.012  -0.442  -0.150  0.00  0.00    +0.000 C 
ATOM     32  O   UNL     1       1.388  -0.813  -0.112  0.00  0.00    +0.000 OA
ENDBRANCH  22  32
ENDBRANCH  18  29
ENDBRANCH   1  20
TORSDOF 8
