REMARK  Name = 
REMARK  8 active torsions:
REMARK  status: ('A' for Active; 'I' for Inactive)
REMARK    1  A    between atoms: C_1  and  N_2
REMARK    2  A    between atoms: N_2  and  C_3
REMARK    3  A    between atoms: N_2  and  C_24
REMARK    4  A    between atoms: C_3  and  C_4
REMARK    5  A    between atoms: C_7  and  C_8
REMARK    6  A    between atoms: C_8  and  N_9
REMARK    7  A    between atoms: C_10  and  C_12
REMARK    8  A    between atoms: C_24  and  C_25
REMARK                            x       y       z     vdW  Elec       q    Type
REMARK                         _______ _______ _______ _____ _____    ______ ____
ROOT
ATOM      1  C   UNL     1       2.510   1.055  -2.230  0.00  0.00    +0.000 C 
ATOM      2  C   UNL     1       2.257   2.134  -2.996  0.00  0.00    +0.000 C 
ATOM      3  C   UNL     1       1.771   2.051  -4.413  0.00  0.00    +0.000 C 
ATOM      4  C   UNL     1       1.183   0.675  -4.773  0.00  0.00    +0.000 C 
ATOM      5  C   UNL     1       2.185  -0.394  -4.310  0.00  0.00    +0.000 C 
ATOM      6  C   UNL     1       2.423  -0.349  -2.791  0.00  0.00    +0.000 C 
ENDROOT
BRANCH   1   7
ATOM      7  C   UNL     1       2.924   1.201  -0.779  0.00  0.00    +0.000 C 
BRANCH   7   9
ATOM      8  C   UNL     1       0.844   2.191  -0.002  0.00  0.00    +0.000 C 
ATOM      9  N   UNL     1       1.810   1.096   0.186  0.00  0.00    +0.000 NA
BRANCH   9  10
ATOM     10  C   UNL     1       2.373   1.171   1.562  0.00  0.00    +0.000 C 
BRANCH  10  11
ATOM     11  C   UNL     1       1.344   1.024   2.674  0.00  0.00    +0.000 A 
ATOM     12  C   UNL     1       0.581  -0.137   2.772  0.00  0.00    +0.000 A 
ATOM     13  C   UNL     1      -0.405  -0.213   3.752  0.00  0.00    +0.000 A 
ATOM     14  C   UNL     1      -0.599   0.864   4.609  0.00  0.00    +0.000 A 
ATOM     15  C   UNL     1       0.211   1.976   4.454  0.00  0.00    +0.000 A 
ATOM     16  N   UNL     1       1.173   2.082   3.511  0.00  0.00    +0.000 NA
ENDBRANCH  10  11
ENDBRANCH   9  10
ENDBRANCH   7   9
ENDBRANCH   1   7
BRANCH   4  17
ATOM     17  C   UNL     1      -0.208   0.425  -4.156  0.00  0.00    +0.000 C 
BRANCH  17  18
ATOM     18  N   UNL     1      -1.202   1.372  -4.616  0.00  0.00    +0.000 N 
ATOM     19  C   UNL     1      -2.057   1.123  -5.657  0.00  0.00    +0.000 C 
ATOM     20  O   UNL     1      -2.041   0.070  -6.285  0.00  0.00    +0.000 OA
ATOM     21  H   UNL     1      -1.174   2.297  -4.200  0.00  0.00    +0.000 HD
BRANCH  19  22
ATOM     22  C   UNL     1      -3.042   2.173  -5.949  0.00  0.00    +0.000 A 
ATOM     23  C   UNL     1      -4.218   1.841  -6.608  0.00  0.00    +0.000 A 
ATOM     24  S   UNL     1      -5.268   3.163  -6.844  0.00  0.00    +0.000 S 
ATOM     25  C   UNL     1      -4.169   4.237  -6.117  0.00  0.00    +0.000 A 
ATOM     26  N   UNL     1      -4.449   5.564  -6.020  0.00  0.00    +0.000 NA
ATOM     27  C   UNL     1      -3.513   6.275  -5.488  0.00  0.00    +0.000 A 
ATOM     28  N   UNL     1      -2.321   5.772  -5.029  0.00  0.00    +0.000 N 
ATOM     29  C   UNL     1      -2.031   4.432  -5.032  0.00  0.00    +0.000 A 
ATOM     30  O   UNL     1      -1.014   4.007  -4.497  0.00  0.00    +0.000 OA
ATOM     31  C   UNL     1      -3.027   3.593  -5.673  0.00  0.00    +0.000 A 
ATOM     32  H   UNL     1      -1.637   6.376  -4.594  0.00  0.00    +0.000 HD
ENDBRANCH  19  22
ENDBRANCH  17  18
ENDBRANCH   4  17
TORSDOF 7
