REMARK  Name = 
REMARK  5 active torsions:
REMARK  status: ('A' for Active; 'I' for Inactive)
REMARK    1  A    between atoms: C_2  and  C_3
REMARK    2  A    between atoms: N_7  and  C_8
REMARK    3  A    between atoms: C_8  and  C_9
REMARK    4  A    between atoms: C_9  and  C_12
REMARK    5  A    between atoms: C_16  and  C_17
REMARK                            x       y       z     vdW  Elec       q    Type
REMARK                         _______ _______ _______ _____ _____    ______ ____
ROOT
ATOM      1  C   UNL     1      -5.811   1.082  -0.245  0.00  0.00    +0.000 C 
ATOM      2  F   UNL     1      -6.348   0.059   0.486  0.00  0.00    +0.000 F 
ATOM      3  F   UNL     1      -4.517   1.186   0.183  0.00  0.00    +0.000 F 
ENDROOT
BRANCH   1   4
ATOM      4  C   UNL     1      -6.579   2.378  -0.055  0.00  0.00    +0.000 A 
ATOM      5  C   UNL     1      -7.959   2.345   0.184  0.00  0.00    +0.000 A 
ATOM      6  C   UNL     1      -8.667   3.527   0.369  0.00  0.00    +0.000 A 
ATOM      7  C   UNL     1      -8.014   4.757   0.279  0.00  0.00    +0.000 A 
ATOM      8  C   UNL     1      -6.649   4.833  -0.030  0.00  0.00    +0.000 A 
ATOM      9  C   UNL     1      -5.936   3.626  -0.165  0.00  0.00    +0.000 A 
BRANCH   8  10
ATOM     10  C   UNL     1      -5.972   6.154  -0.398  0.00  0.00    +0.000 C 
ATOM     11  C   UNL     1      -5.978   7.275   0.658  0.00  0.00    +0.000 C 
ATOM     12  C   UNL     1      -7.265   8.100   0.700  0.00  0.00    +0.000 C 
ATOM     13  C   UNL     1      -7.791   8.463  -0.690  0.00  0.00    +0.000 C 
ATOM     14  N   UNL     1      -7.852   7.314  -1.588  0.00  0.00    +0.000 NA
ATOM     15  C   UNL     1      -6.534   6.685  -1.735  0.00  0.00    +0.000 C 
ATOM     16  H   UNL     1      -8.197   7.604  -2.502  0.00  0.00    +0.000 HD
ENDBRANCH   8  10
ENDBRANCH   1   4
BRANCH   1  17
ATOM     17  C   UNL     1      -5.803   0.668  -1.736  0.00  0.00    +0.000 C 
BRANCH  17  22
ATOM     18  C   UNL     1      -4.405  -2.319  -5.685  0.00  0.00    +0.000 A 
ATOM     19  C   UNL     1      -5.180  -1.169  -5.640  0.00  0.00    +0.000 A 
ATOM     20  C   UNL     1      -5.424  -0.566  -4.401  0.00  0.00    +0.000 A 
ATOM     21  C   UNL     1      -4.884  -1.110  -3.242  0.00  0.00    +0.000 A 
ATOM     22  N   UNL     1      -5.099  -0.583  -1.998  0.00  0.00    +0.000 N 
ATOM     23  N   UNL     1      -4.128  -2.222  -3.287  0.00  0.00    +0.000 NA
ATOM     24  C   UNL     1      -3.902  -2.803  -4.492  0.00  0.00    +0.000 A 
ATOM     25  H   UNL     1      -4.604  -1.055  -1.255  0.00  0.00    +0.000 HD
BRANCH  18  27
ATOM     26  N   UNL     1      -3.921  -3.512  -7.930  0.00  0.00    +0.000 NA
ATOM     27  C   UNL     1      -4.135  -2.982  -6.921  0.00  0.00    +0.000 C 
ENDBRANCH  18  27
ENDBRANCH  17  22
ENDBRANCH   1  17
TORSDOF 5
