REMARK  Name = 
REMARK  7 active torsions:
REMARK  status: ('A' for Active; 'I' for Inactive)
REMARK    1  A    between atoms: C_1  and  O_2
REMARK    2  A    between atoms: O_2  and  C_3
REMARK    3  A    between atoms: C_6  and  C_7
REMARK    4  A    between atoms: C_7  and  C_8
REMARK    5  A    between atoms: C_7  and  N_9
REMARK    6  A    between atoms: N_9  and  C_10
REMARK    7  A    between atoms: C_13  and  C_14
REMARK                            x       y       z     vdW  Elec       q    Type
REMARK                         _______ _______ _______ _____ _____    ______ ____
ROOT
ATOM      1  N   UNL     1       4.148   4.534  -4.130  0.00  0.00    +0.000 N 
ATOM      2  H   UNL     1       3.554   4.779  -3.339  0.00  0.00    +0.000 HD
ENDROOT
BRANCH   1   3
ATOM      3  C   UNL     1       4.835   5.660  -4.600  0.00  0.00    +0.000 A 
ATOM      4  C   UNL     1       5.964   5.593  -5.421  0.00  0.00    +0.000 A 
ATOM      5  C   UNL     1       6.578   6.749  -5.916  0.00  0.00    +0.000 A 
ATOM      6  C   UNL     1       6.058   8.010  -5.620  0.00  0.00    +0.000 A 
ATOM      7  C   UNL     1       4.906   8.102  -4.835  0.00  0.00    +0.000 A 
ATOM      8  C   UNL     1       4.297   6.934  -4.351  0.00  0.00    +0.000 A 
BRANCH   6   9
ATOM      9  C   UNL     1       6.782   9.199  -6.140  0.00  0.00    +0.000 C 
ATOM     10  N   UNL     1       6.072  10.358  -6.295  0.00  0.00    +0.000 N 
ATOM     11  O   UNL     1       7.965   9.148  -6.453  0.00  0.00    +0.000 OA
ATOM     12  H   UNL     1       5.063  10.382  -6.295  0.00  0.00    +0.000 HD
ATOM     13  H   UNL     1       6.562  11.116  -6.752  0.00  0.00    +0.000 HD
ENDBRANCH   6   9
ENDBRANCH   1   3
BRANCH   1  14
ATOM     14  C   UNL     1       4.852   3.263  -3.888  0.00  0.00    +0.000 C 
ATOM     15  C   UNL     1       4.826   2.368  -5.131  0.00  0.00    +0.000 C 
BRANCH  14  19
ATOM     16  C   UNL     1       2.928   1.254  -0.540  0.00  0.00    +0.000 A 
ATOM     17  C   UNL     1       4.273   1.616  -0.469  0.00  0.00    +0.000 A 
ATOM     18  C   UNL     1       4.890   2.259  -1.551  0.00  0.00    +0.000 A 
ATOM     19  C   UNL     1       4.173   2.545  -2.723  0.00  0.00    +0.000 A 
ATOM     20  C   UNL     1       2.825   2.160  -2.788  0.00  0.00    +0.000 A 
ATOM     21  C   UNL     1       2.213   1.521  -1.708  0.00  0.00    +0.000 A 
BRANCH  16  23
ATOM     22  C   UNL     1       2.868   0.414   1.683  0.00  0.00    +0.000 C 
ATOM     23  O   UNL     1       2.204   0.643   0.447  0.00  0.00    +0.000 OA
ENDBRANCH  16  23
ENDBRANCH  14  19
ENDBRANCH   1  14
TORSDOF 5
