REMARK  Name = 
REMARK  9 active torsions:
REMARK  status: ('A' for Active; 'I' for Inactive)
REMARK    1  A    between atoms: C_1  and  O_2
REMARK    2  A    between atoms: O_2  and  C_3
REMARK    3  A    between atoms: C_10  and  C_11
REMARK    4  A    between atoms: N_13  and  C_14
REMARK    5  A    between atoms: C_14  and  C_15
REMARK    6  A    between atoms: C_18  and  C_19
REMARK    7  A    between atoms: C_19  and  N_20
REMARK    8  A    between atoms: N_20  and  C_21
REMARK    9  A    between atoms: C_21  and  C_22
REMARK                            x       y       z     vdW  Elec       q    Type
REMARK                         _______ _______ _______ _____ _____    ______ ____
ROOT
ATOM      1  C   UNL     1       2.895   1.503   3.039  0.00  0.00    +0.000 C 
ENDROOT
BRANCH   1   2
ATOM      2  C   UNL     1       1.812   2.383   2.464  0.00  0.00    +0.000 A 
ATOM      3  C   UNL     1       0.577   1.844   2.080  0.00  0.00    +0.000 A 
ATOM      4  C   UNL     1      -0.404   2.651   1.486  0.00  0.00    +0.000 A 
ATOM      5  C   UNL     1      -0.178   4.018   1.269  0.00  0.00    +0.000 A 
ATOM      6  C   UNL     1       1.050   4.559   1.675  0.00  0.00    +0.000 A 
ATOM      7  C   UNL     1       2.036   3.751   2.258  0.00  0.00    +0.000 A 
BRANCH   5   8
ATOM      8  C   UNL     1      -1.211   4.882   0.572  0.00  0.00    +0.000 C 
BRANCH   8   9
ATOM      9  N   UNL     1      -2.477   4.917   1.304  0.00  0.00    +0.000 NA
ATOM     10  H   UNL     1      -2.301   5.280   2.241  0.00  0.00    +0.000 HD
BRANCH   9  11
ATOM     11  C   UNL     1      -3.464   5.775   0.643  0.00  0.00    +0.000 C 
BRANCH  11  12
ATOM     12  C   UNL     1      -4.759   5.814   1.414  0.00  0.00    +0.000 A 
ATOM     13  C   UNL     1      -5.498   4.654   1.670  0.00  0.00    +0.000 A 
ATOM     14  C   UNL     1      -6.681   4.730   2.401  0.00  0.00    +0.000 A 
ATOM     15  C   UNL     1      -7.097   5.973   2.846  0.00  0.00    +0.000 A 
ATOM     16  N   UNL     1      -6.427   7.119   2.604  0.00  0.00    +0.000 NA
ATOM     17  C   UNL     1      -5.279   7.013   1.895  0.00  0.00    +0.000 A 
ENDBRANCH  11  12
ENDBRANCH   9  11
ENDBRANCH   8   9
ENDBRANCH   5   8
ENDBRANCH   1   2
BRANCH   1  20
ATOM     18  C   UNL     1       4.762   0.090   2.278  0.00  0.00    +0.000 C 
ATOM     19  O   UNL     1       5.011  -0.242   3.438  0.00  0.00    +0.000 OA
ATOM     20  N   UNL     1       3.735   0.952   1.999  0.00  0.00    +0.000 N 
ATOM     21  H   UNL     1       3.577   1.268   1.051  0.00  0.00    +0.000 HD
BRANCH  18  29
ATOM     22  C   UNL     1       4.552   0.454  -1.144  0.00  0.00    +0.000 A 
ATOM     23  N   UNL     1       4.714   0.431  -2.482  0.00  0.00    +0.000 NA
ATOM     24  C   UNL     1       5.721  -0.285  -2.986  0.00  0.00    +0.000 A 
ATOM     25  N   UNL     1       6.608  -1.000  -2.303  0.00  0.00    +0.000 NA
ATOM     26  C   UNL     1       6.420  -0.945  -0.975  0.00  0.00    +0.000 A 
ATOM     27  S   UNL     1       7.463  -1.806   0.050  0.00  0.00    +0.000 S 
ATOM     28  C   UNL     1       6.630  -1.267   1.429  0.00  0.00    +0.000 A 
ATOM     29  C   UNL     1       5.557  -0.428   1.151  0.00  0.00    +0.000 A 
ATOM     30  C   UNL     1       5.430  -0.241  -0.293  0.00  0.00    +0.000 A 
BRANCH  22  32
ATOM     31  C   UNL     1       2.433   1.328  -1.545  0.00  0.00    +0.000 C 
ATOM     32  O   UNL     1       3.527   1.225  -0.637  0.00  0.00    +0.000 OA
ENDBRANCH  22  32
ENDBRANCH  18  29
ENDBRANCH   1  20
TORSDOF 8
