REMARK  Name = 
REMARK  4 active torsions:
REMARK  status: ('A' for Active; 'I' for Inactive)
REMARK    1  A    between atoms: C_2  and  C_4
REMARK    2  A    between atoms: N_8  and  C_9
REMARK    3  A    between atoms: C_9  and  C_10
REMARK    4  A    between atoms: C_14  and  C_15
REMARK                            x       y       z     vdW  Elec       q    Type
REMARK                         _______ _______ _______ _____ _____    ______ ____
ROOT
ATOM      1  C   UNL     1       5.092   3.517   4.730  0.00  0.00    +0.000 C 
ENDROOT
BRANCH   1   6
ATOM      2  C   UNL     1       7.731   1.577   0.779  0.00  0.00    +0.000 A 
ATOM      3  C   UNL     1       7.350   0.963   1.962  0.00  0.00    +0.000 A 
ATOM      4  C   UNL     1       6.494   1.635   2.837  0.00  0.00    +0.000 A 
ATOM      5  C   UNL     1       6.055   2.916   2.525  0.00  0.00    +0.000 A 
ATOM      6  N   UNL     1       5.153   3.619   3.289  0.00  0.00    +0.000 N 
ATOM      7  N   UNL     1       6.424   3.526   1.381  0.00  0.00    +0.000 NA
ATOM      8  C   UNL     1       7.256   2.858   0.539  0.00  0.00    +0.000 A 
ATOM      9  H   UNL     1       5.073   4.555   2.905  0.00  0.00    +0.000 HD
BRANCH   2  11
ATOM     10  N   UNL     1       8.657  -0.431  -0.223  0.00  0.00    +0.000 N 
ATOM     11  C   UNL     1       8.614   0.936  -0.219  0.00  0.00    +0.000 C 
ATOM     12  O   UNL     1       9.256   1.591  -1.025  0.00  0.00    +0.000 OA
ATOM     13  H   UNL     1       9.189  -0.858  -0.969  0.00  0.00    +0.000 HD
ATOM     14  H   UNL     1       7.962  -1.002   0.237  0.00  0.00    +0.000 HD
ENDBRANCH   2  11
ENDBRANCH   1   6
BRANCH   1  15
ATOM     15  C   UNL     1       6.056   4.438   5.441  0.00  0.00    +0.000 A 
ATOM     16  C   UNL     1       5.976   5.826   5.286  0.00  0.00    +0.000 A 
ATOM     17  C   UNL     1       6.777   6.667   6.055  0.00  0.00    +0.000 A 
ATOM     18  C   UNL     1       7.649   6.131   7.007  0.00  0.00    +0.000 A 
ATOM     19  C   UNL     1       7.743   4.744   7.214  0.00  0.00    +0.000 A 
ATOM     20  C   UNL     1       6.959   3.915   6.386  0.00  0.00    +0.000 A 
BRANCH  19  21
ATOM     21  C   UNL     1       8.528   4.171   8.333  0.00  0.00    +0.000 A 
ATOM     22  C   UNL     1       8.586   4.821   9.580  0.00  0.00    +0.000 A 
ATOM     23  C   UNL     1       9.209   4.225  10.676  0.00  0.00    +0.000 A 
ATOM     24  F   UNL     1       9.216   4.865  11.853  0.00  0.00    +0.000 F 
ATOM     25  C   UNL     1       9.792   2.974  10.577  0.00  0.00    +0.000 A 
ATOM     26  C   UNL     1       9.768   2.333   9.349  0.00  0.00    +0.000 A 
ATOM     27  F   UNL     1      10.315   1.116   9.233  0.00  0.00    +0.000 F 
ATOM     28  C   UNL     1       9.161   2.918   8.236  0.00  0.00    +0.000 A 
ENDBRANCH  19  21
ENDBRANCH   1  15
TORSDOF 4
