REMARK  Name = 
REMARK  8 active torsions:
REMARK  status: ('A' for Active; 'I' for Inactive)
REMARK    1  A    between atoms: C_1  and  C_2
REMARK    2  A    between atoms: C_2  and  N_3
REMARK    3  A    between atoms: C_2  and  C_4
REMARK    4  A    between atoms: C_4  and  C_5
REMARK    5  A    between atoms: C_8  and  C_9
REMARK    6  A    between atoms: C_9  and  N_10
REMARK    7  A    between atoms: C_15  and  C_16
REMARK    8  A    between atoms: C_16  and  O_18
REMARK                            x       y       z     vdW  Elec       q    Type
REMARK                         _______ _______ _______ _____ _____    ______ ____
ROOT
ATOM      1  C   UNL     1       8.998  -1.468  -1.261  0.00  0.00    +0.000 C 
ENDROOT
BRANCH   1   2
ATOM      2  N   UNL     1       9.544  -2.417  -0.303  0.00  0.00    +0.000 N 
ATOM      3  C   UNL     1      10.139  -2.072   0.880  0.00  0.00    +0.000 A 
ATOM      4  C   UNL     1      10.308  -3.251   1.567  0.00  0.00    +0.000 A 
ATOM      5  C   UNL     1      10.634  -4.157   0.538  0.00  0.00    +0.000 A 
ATOM      6  C   UNL     1      11.508  -5.257   0.431  0.00  0.00    +0.000 A 
ATOM      7  C   UNL     1      11.542  -5.941  -0.796  0.00  0.00    +0.000 A 
ATOM      8  C   UNL     1      10.582  -5.665  -1.787  0.00  0.00    +0.000 A 
ATOM      9  C   UNL     1       9.739  -4.561  -1.688  0.00  0.00    +0.000 A 
ATOM     10  C   UNL     1       9.919  -3.723  -0.578  0.00  0.00    +0.000 A 
BRANCH   7  11
ATOM     11  C   UNL     1      12.596  -6.925  -1.058  0.00  0.00    +0.000 C 
ATOM     12  O   UNL     1      12.392  -7.991  -1.620  0.00  0.00    +0.000 OA
BRANCH  11  13
ATOM     13  O   UNL     1      13.834  -6.479  -0.733  0.00  0.00    +0.000 OA
ATOM     14  H   UNL     1      13.863  -5.531  -0.483  0.00  0.00    +0.000 HD
ENDBRANCH  11  13
ENDBRANCH   7  11
ENDBRANCH   1   2
BRANCH   1  18
ATOM     15  C   UNL     1       4.681  -0.948  -1.112  0.00  0.00    +0.000 A 
ATOM     16  C   UNL     1       5.518  -0.169  -0.303  0.00  0.00    +0.000 A 
ATOM     17  C   UNL     1       6.911  -0.345  -0.339  0.00  0.00    +0.000 A 
ATOM     18  C   UNL     1       7.503  -1.309  -1.173  0.00  0.00    +0.000 A 
ATOM     19  C   UNL     1       6.659  -2.091  -1.972  0.00  0.00    +0.000 A 
ATOM     20  C   UNL     1       5.273  -1.915  -1.939  0.00  0.00    +0.000 A 
BRANCH  15  21
ATOM     21  C   UNL     1       3.168  -0.869  -1.065  0.00  0.00    +0.000 C 
BRANCH  21  23
ATOM     22  C   UNL     1       0.989   0.355  -0.747  0.00  0.00    +0.000 C 
ATOM     23  C   UNL     1       2.513   0.503  -0.790  0.00  0.00    +0.000 C 
BRANCH  23  24
ATOM     24  N   UNL     1       2.847   1.508  -1.805  0.00  0.00    +0.000 NA
ATOM     25  H   UNL     1       2.502   1.205  -2.716  0.00  0.00    +0.000 HD
ATOM     26  H   UNL     1       3.861   1.564  -1.903  0.00  0.00    +0.000 HD
ENDBRANCH  23  24
ENDBRANCH  21  23
ENDBRANCH  15  21
ENDBRANCH   1  18
TORSDOF 7
