REMARK  Name = 
REMARK  5 active torsions:
REMARK  status: ('A' for Active; 'I' for Inactive)
REMARK    1  A    between atoms: C_2  and  C_3
REMARK    2  A    between atoms: C_6  and  N_7
REMARK    3  A    between atoms: N_7  and  C_8
REMARK    4  A    between atoms: C_8  and  C_9
REMARK    5  A    between atoms: C_13  and  C_14
REMARK                            x       y       z     vdW  Elec       q    Type
REMARK                         _______ _______ _______ _____ _____    ______ ____
ROOT
ATOM      1  C   UNL     1       4.576  -1.079   0.156  0.00  0.00    +0.000 C 
ATOM      2  C   UNL     1       4.823  -2.184  -0.861  0.00  0.00    +0.000 C 
ATOM      3  C   UNL     1       4.363  -2.553   0.506  0.00  0.00    +0.000 C 
ENDROOT
BRANCH   1   4
ATOM      4  C   UNL     1       5.653  -0.459   1.050  0.00  0.00    +0.000 A 
ATOM      5  C   UNL     1       5.287   0.234   2.221  0.00  0.00    +0.000 A 
ATOM      6  C   UNL     1       6.229   0.610   3.182  0.00  0.00    +0.000 A 
ATOM      7  C   UNL     1       7.571   0.308   2.985  0.00  0.00    +0.000 A 
ATOM      8  C   UNL     1       7.974  -0.313   1.801  0.00  0.00    +0.000 A 
ATOM      9  C   UNL     1       7.024  -0.670   0.836  0.00  0.00    +0.000 A 
BRANCH   8  10
ATOM     10  C   UNL     1       9.349  -0.642   1.595  0.00  0.00    +0.000 C 
ATOM     11  N   UNL     1      10.466  -0.922   1.422  0.00  0.00    +0.000 NA
ENDBRANCH   8  10
ENDBRANCH   1   4
BRANCH   1  12
ATOM     12  N   UNL     1       3.422  -0.189  -0.123  0.00  0.00    +0.000 N 
ATOM     13  H   UNL     1       2.514  -0.545   0.156  0.00  0.00    +0.000 HD
BRANCH  12  17
ATOM     14  C   UNL     1       3.211   1.970  -3.761  0.00  0.00    +0.000 A 
ATOM     15  C   UNL     1       2.053   1.699  -3.025  0.00  0.00    +0.000 A 
ATOM     16  C   UNL     1       2.138   1.004  -1.813  0.00  0.00    +0.000 A 
ATOM     17  C   UNL     1       3.371   0.542  -1.334  0.00  0.00    +0.000 A 
ATOM     18  C   UNL     1       4.527   0.878  -2.051  0.00  0.00    +0.000 A 
ATOM     19  C   UNL     1       4.451   1.572  -3.263  0.00  0.00    +0.000 A 
BRANCH  14  21
ATOM     20  N   UNL     1       3.061   3.177  -6.052  0.00  0.00    +0.000 NA
ATOM     21  C   UNL     1       3.127   2.644  -5.023  0.00  0.00    +0.000 C 
ENDBRANCH  14  21
ENDBRANCH  12  17
ENDBRANCH   1  12
TORSDOF 5
