REMARK  Name = 
REMARK  8 active torsions:
REMARK  status: ('A' for Active; 'I' for Inactive)
REMARK    1  A    between atoms: C_1  and  O_2
REMARK    2  A    between atoms: O_2  and  C_3
REMARK    3  A    between atoms: C_8  and  C_9
REMARK    4  A    between atoms: N_11  and  C_12
REMARK    5  A    between atoms: C_12  and  C_13
REMARK    6  A    between atoms: C_16  and  C_17
REMARK    7  A    between atoms: C_17  and  N_18
REMARK    8  A    between atoms: C_19  and  C_21
REMARK                            x       y       z     vdW  Elec       q    Type
REMARK                         _______ _______ _______ _____ _____    ______ ____
ROOT
ATOM      1  C   UNL     1       2.686   1.456   4.096  0.00  0.00    +0.000 A 
ATOM      2  C   UNL     1       1.429   1.000   4.491  0.00  0.00    +0.000 A 
ATOM      3  C   UNL     1       0.439   1.930   4.819  0.00  0.00    +0.000 A 
ATOM      4  C   UNL     1       0.712   3.296   4.729  0.00  0.00    +0.000 A 
ATOM      5  C   UNL     1       1.994   3.656   4.329  0.00  0.00    +0.000 A 
ATOM      6  N   UNL     1       2.972   2.779   4.000  0.00  0.00    +0.000 NA
ENDROOT
BRANCH   1   7
ATOM      7  C   UNL     1       3.772   0.474   3.710  0.00  0.00    +0.000 C 
BRANCH   7  10
ATOM      8  C   UNL     1       4.151  -1.036   1.787  0.00  0.00    +0.000 C 
ATOM      9  O   UNL     1       4.581  -1.934   2.508  0.00  0.00    +0.000 OA
ATOM     10  N   UNL     1       3.736   0.169   2.296  0.00  0.00    +0.000 N 
ATOM     11  H   UNL     1       3.551   0.931   1.651  0.00  0.00    +0.000 HD
BRANCH   8  17
ATOM     12  C   UNL     1       3.479  -0.319  -0.600  0.00  0.00    +0.000 A 
ATOM     13  C   UNL     1       3.284  -0.694  -1.939  0.00  0.00    +0.000 A 
ATOM     14  C   UNL     1       3.621  -1.974  -2.383  0.00  0.00    +0.000 A 
ATOM     15  C   UNL     1       4.182  -2.890  -1.502  0.00  0.00    +0.000 A 
ATOM     16  C   UNL     1       4.375  -2.534  -0.167  0.00  0.00    +0.000 A 
ATOM     17  C   UNL     1       4.012  -1.258   0.307  0.00  0.00    +0.000 A 
BRANCH  12  19
ATOM     18  C   UNL     1       2.250   1.708  -0.857  0.00  0.00    +0.000 C 
ATOM     19  O   UNL     1       3.224   0.951  -0.146  0.00  0.00    +0.000 OA
ENDBRANCH  12  19
ENDBRANCH   8  17
ENDBRANCH   7  10
ENDBRANCH   1   7
BRANCH   4  20
ATOM     20  C   UNL     1      -0.306   4.349   5.067  0.00  0.00    +0.000 C 
BRANCH  20  21
ATOM     21  N   UNL     1      -0.244   4.724   6.458  0.00  0.00    +0.000 N 
ATOM     22  C   UNL     1      -1.114   5.642   6.995  0.00  0.00    +0.000 C 
ATOM     23  O   UNL     1      -2.010   6.158   6.332  0.00  0.00    +0.000 OA
ATOM     24  H   UNL     1       0.623   4.533   6.949  0.00  0.00    +0.000 HD
BRANCH  22  25
ATOM     25  C   UNL     1      -0.954   5.927   8.427  0.00  0.00    +0.000 A 
ATOM     26  C   UNL     1      -2.036   6.383   9.169  0.00  0.00    +0.000 A 
ATOM     27  S   UNL     1      -1.684   6.608  10.824  0.00  0.00    +0.000 S 
ATOM     28  C   UNL     1      -0.061   6.158  10.595  0.00  0.00    +0.000 A 
ATOM     29  N   UNL     1       0.823   6.162  11.635  0.00  0.00    +0.000 NA
ATOM     30  C   UNL     1       2.028   5.833  11.310  0.00  0.00    +0.000 A 
ATOM     31  N   UNL     1       2.432   5.491  10.046  0.00  0.00    +0.000 N 
ATOM     32  C   UNL     1       1.570   5.436   8.976  0.00  0.00    +0.000 A 
ATOM     33  O   UNL     1       1.947   5.072   7.867  0.00  0.00    +0.000 OA
ATOM     34  C   UNL     1       0.205   5.818   9.282  0.00  0.00    +0.000 A 
ATOM     35  H   UNL     1       3.388   5.229   9.860  0.00  0.00    +0.000 HD
ENDBRANCH  22  25
ENDBRANCH  20  21
ENDBRANCH   4  20
TORSDOF 7
