REMARK  Name = 
REMARK  7 active torsions:
REMARK  status: ('A' for Active; 'I' for Inactive)
REMARK    1  A    between atoms: C_1  and  C_2
REMARK    2  A    between atoms: C_2  and  N_3
REMARK    3  A    between atoms: C_2  and  C_16
REMARK    4  A    between atoms: C_4  and  C_6
REMARK    5  A    between atoms: C_19  and  C_20
REMARK    6  A    between atoms: C_20  and  N_21
REMARK    7  A    between atoms: C_22  and  C_24
REMARK                            x       y       z     vdW  Elec       q    Type
REMARK                         _______ _______ _______ _____ _____    ______ ____
ROOT
ATOM      1  C   UNL     1       1.011   0.290  -0.326  0.00  0.00    +0.000 C 
ATOM      2  C   UNL     1       2.479   0.066   0.066  0.00  0.00    +0.000 C 
ENDROOT
BRANCH   2   3
ATOM      3  C   UNL     1       3.015  -1.195  -0.603  0.00  0.00    +0.000 A 
ATOM      4  C   UNL     1       4.094  -1.124  -1.497  0.00  0.00    +0.000 A 
ATOM      5  C   UNL     1       4.542  -2.268  -2.171  0.00  0.00    +0.000 A 
ATOM      6  C   UNL     1       3.917  -3.506  -1.972  0.00  0.00    +0.000 A 
ATOM      7  C   UNL     1       2.884  -3.592  -1.031  0.00  0.00    +0.000 A 
ATOM      8  C   UNL     1       2.437  -2.451  -0.358  0.00  0.00    +0.000 A 
BRANCH   6   9
ATOM      9  C   UNL     1       4.332  -4.721  -2.763  0.00  0.00    +0.000 C 
BRANCH   9  10
ATOM     10  N   UNL     1       5.376  -5.464  -2.109  0.00  0.00    +0.000 N 
ATOM     11  C   UNL     1       5.822  -6.672  -2.609  0.00  0.00    +0.000 C 
ATOM     12  O   UNL     1       5.342  -7.161  -3.629  0.00  0.00    +0.000 OA
ATOM     13  H   UNL     1       5.848  -5.063  -1.309  0.00  0.00    +0.000 HD
BRANCH  11  14
ATOM     14  C   UNL     1       6.891  -7.313  -1.848  0.00  0.00    +0.000 A 
ATOM     15  C   UNL     1       7.541  -8.495  -2.161  0.00  0.00    +0.000 A 
ATOM     16  C   UNL     1       8.529  -8.853  -1.196  0.00  0.00    +0.000 A 
ATOM     17  C   UNL     1       8.602  -7.936  -0.173  0.00  0.00    +0.000 A 
ATOM     18  S   UNL     1       7.495  -6.652  -0.383  0.00  0.00    +0.000 S 
ENDBRANCH  11  14
ENDBRANCH   9  10
ENDBRANCH   6   9
ENDBRANCH   2   3
BRANCH   2  19
ATOM     19  N   UNL     1       2.662  -0.024   1.505  0.00  0.00    +0.000 N 
ATOM     20  C   UNL     1       2.354   1.008   2.358  0.00  0.00    +0.000 C 
ATOM     21  O   UNL     1       1.849   2.059   1.976  0.00  0.00    +0.000 OA
ATOM     22  H   UNL     1       3.334  -0.715   1.824  0.00  0.00    +0.000 HD
BRANCH  20  23
ATOM     23  C   UNL     1       2.600   0.768   3.784  0.00  0.00    +0.000 A 
ATOM     24  C   UNL     1       1.814   1.405   4.734  0.00  0.00    +0.000 A 
ATOM     25  S   UNL     1       2.234   1.013   6.340  0.00  0.00    +0.000 S 
ATOM     26  C   UNL     1       3.508   0.013   5.819  0.00  0.00    +0.000 A 
ATOM     27  N   UNL     1       4.318  -0.614   6.715  0.00  0.00    +0.000 NA
ATOM     28  C   UNL     1       5.265  -1.310   6.180  0.00  0.00    +0.000 A 
ATOM     29  N   UNL     1       5.467  -1.449   4.831  0.00  0.00    +0.000 N 
ATOM     30  C   UNL     1       4.648  -0.872   3.890  0.00  0.00    +0.000 A 
ATOM     31  O   UNL     1       4.808  -1.073   2.691  0.00  0.00    +0.000 OA
ATOM     32  C   UNL     1       3.590  -0.049   4.440  0.00  0.00    +0.000 A 
ATOM     33  H   UNL     1       6.216  -2.026   4.477  0.00  0.00    +0.000 HD
ENDBRANCH  20  23
ENDBRANCH   2  19
TORSDOF 6
