REMARK  Name = 
REMARK  10 active torsions:
REMARK  status: ('A' for Active; 'I' for Inactive)
REMARK    1  A    between atoms: C_1  and  O_2
REMARK    2  A    between atoms: O_2  and  C_3
REMARK    3  A    between atoms: C_10  and  C_11
REMARK    4  A    between atoms: N_13  and  C_14
REMARK    5  A    between atoms: C_14  and  C_15
REMARK    6  A    between atoms: C_18  and  C_19
REMARK    7  A    between atoms: C_19  and  N_20
REMARK    8  A    between atoms: N_20  and  C_21
REMARK    9  A    between atoms: C_21  and  C_22
REMARK   10  A    between atoms: N_25  and  C_26
REMARK                            x       y       z     vdW  Elec       q    Type
REMARK                         _______ _______ _______ _____ _____    ______ ____
ROOT
ATOM      1  C   UNL     1       1.641   3.128  -0.862  0.00  0.00    +0.000 A 
ATOM      2  C   UNL     1       1.443   1.910  -1.525  0.00  0.00    +0.000 A 
ATOM      3  C   UNL     1       0.282   1.688  -2.268  0.00  0.00    +0.000 A 
ATOM      4  C   UNL     1      -0.708   2.673  -2.358  0.00  0.00    +0.000 A 
ATOM      5  C   UNL     1      -0.461   3.926  -1.778  0.00  0.00    +0.000 A 
ATOM      6  C   UNL     1       0.703   4.153  -1.037  0.00  0.00    +0.000 A 
ENDROOT
BRANCH   1   7
ATOM      7  C   UNL     1       2.839   3.320   0.029  0.00  0.00    +0.000 C 
BRANCH   7  10
ATOM      8  C   UNL     1       5.168   4.065  -0.069  0.00  0.00    +0.000 C 
ATOM      9  O   UNL     1       5.325   3.808   1.123  0.00  0.00    +0.000 OA
ATOM     10  N   UNL     1       3.967   3.851  -0.689  0.00  0.00    +0.000 N 
ATOM     11  H   UNL     1       3.850   4.048  -1.673  0.00  0.00    +0.000 HD
BRANCH   8  19
ATOM     12  C   UNL     1       5.469   4.895  -3.395  0.00  0.00    +0.000 A 
ATOM     13  N   UNL     1       5.816   5.387  -4.601  0.00  0.00    +0.000 NA
ATOM     14  C   UNL     1       7.020   5.955  -4.721  0.00  0.00    +0.000 A 
ATOM     15  N   UNL     1       7.946   6.082  -3.774  0.00  0.00    +0.000 NA
ATOM     16  C   UNL     1       7.551   5.593  -2.587  0.00  0.00    +0.000 A 
ATOM     17  S   UNL     1       8.611   5.656  -1.262  0.00  0.00    +0.000 S 
ATOM     18  C   UNL     1       7.458   4.936  -0.244  0.00  0.00    +0.000 A 
ATOM     19  C   UNL     1       6.254   4.646  -0.875  0.00  0.00    +0.000 A 
ATOM     20  C   UNL     1       6.327   5.006  -2.287  0.00  0.00    +0.000 A 
BRANCH  12  22
ATOM     21  C   UNL     1       3.741   3.760  -4.491  0.00  0.00    +0.000 C 
ATOM     22  O   UNL     1       4.232   4.299  -3.267  0.00  0.00    +0.000 OA
ENDBRANCH  12  22
ENDBRANCH   8  19
ENDBRANCH   7  10
ENDBRANCH   1   7
BRANCH   4  23
ATOM     23  C   UNL     1      -1.996   2.440  -3.111  0.00  0.00    +0.000 C 
BRANCH  23  24
ATOM     24  N   UNL     1      -2.457   1.042  -3.065  0.00  0.00    +0.000 NA
ATOM     25  H   UNL     1      -2.623   0.784  -2.092  0.00  0.00    +0.000 HD
BRANCH  24  26
ATOM     26  C   UNL     1      -3.697   0.926  -3.829  0.00  0.00    +0.000 C 
BRANCH  26  27
ATOM     27  C   UNL     1      -4.266  -0.507  -3.921  0.00  0.00    +0.000 C 
ATOM     28  C   UNL     1      -3.316  -1.528  -4.558  0.00  0.00    +0.000 C 
ATOM     29  C   UNL     1      -3.045  -1.221  -6.033  0.00  0.00    +0.000 C 
ATOM     30  N   UNL     1      -4.274  -1.068  -6.829  0.00  0.00    +0.000 NA
ATOM     31  C   UNL     1      -3.931  -0.626  -8.185  0.00  0.00    +0.000 C 
ATOM     32  C   UNL     1      -5.251  -0.148  -6.233  0.00  0.00    +0.000 C 
ATOM     33  C   UNL     1      -5.550  -0.487  -4.768  0.00  0.00    +0.000 C 
ENDBRANCH  26  27
ENDBRANCH  24  26
ENDBRANCH  23  24
ENDBRANCH   4  23
TORSDOF 8
