REMARK  Name = 
REMARK  5 active torsions:
REMARK  status: ('A' for Active; 'I' for Inactive)
REMARK    1  A    between atoms: N_1  and  C_2
REMARK    2  A    between atoms: C_2  and  C_3
REMARK    3  A    between atoms: C_6  and  O_7
REMARK    4  A    between atoms: O_7  and  C_8
REMARK    5  A    between atoms: C_8  and  C_9
REMARK                            x       y       z     vdW  Elec       q    Type
REMARK                         _______ _______ _______ _____ _____    ______ ____
ROOT
ATOM      1  C   UNL     1       2.783   1.299   0.558  0.00  0.00    +0.000 A 
ATOM      2  C   UNL     1       2.491   2.490  -0.123  0.00  0.00    +0.000 A 
ATOM      3  C   UNL     1       2.811   3.728   0.441  0.00  0.00    +0.000 A 
ATOM      4  C   UNL     1       3.413   3.791   1.696  0.00  0.00    +0.000 A 
ATOM      5  C   UNL     1       3.766   2.609   2.349  0.00  0.00    +0.000 A 
ATOM      6  C   UNL     1       3.442   1.372   1.790  0.00  0.00    +0.000 A 
ENDROOT
BRANCH   1   7
ATOM      7  C   UNL     1       2.374  -0.038  -0.005  0.00  0.00    +0.000 C 
BRANCH   7   8
ATOM      8  N   UNL     1       3.009  -0.301  -1.289  0.00  0.00    +0.000 NA
ATOM      9  H   UNL     1       2.814  -1.261  -1.562  0.00  0.00    +0.000 HD
ATOM     10  H   UNL     1       4.019  -0.234  -1.173  0.00  0.00    +0.000 HD
ENDBRANCH   7   8
ENDBRANCH   1   7
BRANCH   4  11
ATOM     11  O   UNL     1       3.611   5.049   2.206  0.00  0.00    +0.000 OA
BRANCH  11  12
ATOM     12  C   UNL     1       3.670   5.099   3.637  0.00  0.00    +0.000 C 
BRANCH  12  13
ATOM     13  C   UNL     1       3.352   6.476   4.177  0.00  0.00    +0.000 A 
ATOM     14  C   UNL     1       2.492   7.343   3.500  0.00  0.00    +0.000 A 
ATOM     15  C   UNL     1       2.161   8.564   4.086  0.00  0.00    +0.000 A 
ATOM     16  C   UNL     1       2.685   8.873   5.330  0.00  0.00    +0.000 A 
ATOM     17  F   UNL     1       2.378  10.033   5.923  0.00  0.00    +0.000 F 
ATOM     18  C   UNL     1       3.518   7.962   5.950  0.00  0.00    +0.000 A 
ATOM     19  N   UNL     1       3.860   6.770   5.405  0.00  0.00    +0.000 NA
ENDBRANCH  12  13
ENDBRANCH  11  12
ENDBRANCH   4  11
TORSDOF 5
