REMARK  Name = 
REMARK  8 active torsions:
REMARK  status: ('A' for Active; 'I' for Inactive)
REMARK    1  A    between atoms: N_1  and  C_2
REMARK    2  A    between atoms: C_2  and  C_3
REMARK    3  A    between atoms: C_6  and  O_7
REMARK    4  A    between atoms: O_7  and  C_8
REMARK    5  A    between atoms: C_8  and  C_9
REMARK    6  A    between atoms: C_9  and  C_12
REMARK    7  A    between atoms: C_15  and  S_16
REMARK    8  A    between atoms: S_16  and  N_17
REMARK                            x       y       z     vdW  Elec       q    Type
REMARK                         _______ _______ _______ _____ _____    ______ ____
ROOT
ATOM      1  C   UNL     1       5.080  -5.112  -5.504  0.00  0.00    +0.000 C 
ATOM      2  F   UNL     1       3.847  -5.538  -5.909  0.00  0.00    +0.000 F 
ATOM      3  F   UNL     1       5.687  -4.674  -6.655  0.00  0.00    +0.000 F 
ENDROOT
BRANCH   1   4
ATOM      4  C   UNL     1       5.890  -6.209  -4.843  0.00  0.00    +0.000 A 
ATOM      5  C   UNL     1       5.268  -7.229  -4.103  0.00  0.00    +0.000 A 
ATOM      6  C   UNL     1       6.026  -8.245  -3.519  0.00  0.00    +0.000 A 
ATOM      7  C   UNL     1       7.413  -8.232  -3.675  0.00  0.00    +0.000 A 
ATOM      8  C   UNL     1       8.051  -7.211  -4.377  0.00  0.00    +0.000 A 
ATOM      9  C   UNL     1       7.290  -6.205  -4.964  0.00  0.00    +0.000 A 
BRANCH   7  10
ATOM     10  S   UNL     1       8.379  -9.549  -3.005  0.00  0.00    +0.000 S 
ATOM     11  O   UNL     1       9.737  -9.089  -2.813  0.00  0.00    +0.000 OA
ATOM     12  O   UNL     1       7.631 -10.221  -1.972  0.00  0.00    +0.000 OA
BRANCH  10  13
ATOM     13  N   UNL     1       8.410 -10.587  -4.322  0.00  0.00    +0.000 NA
ATOM     14  H   UNL     1       9.358 -10.700  -4.677  0.00  0.00    +0.000 HD
ATOM     15  H   UNL     1       7.916 -11.453  -4.110  0.00  0.00    +0.000 HD
ENDBRANCH  10  13
ENDBRANCH   7  10
ENDBRANCH   1   4
BRANCH   1  16
ATOM     16  C   UNL     1       4.913  -3.886  -4.598  0.00  0.00    +0.000 C 
BRANCH  16  17
ATOM     17  O   UNL     1       4.160  -4.184  -3.417  0.00  0.00    +0.000 OA
BRANCH  17  21
ATOM     18  C   UNL     1       3.400  -1.121  -0.664  0.00  0.00    +0.000 A 
ATOM     19  C   UNL     1       4.155  -0.834  -1.810  0.00  0.00    +0.000 A 
ATOM     20  C   UNL     1       4.437  -1.830  -2.747  0.00  0.00    +0.000 A 
ATOM     21  C   UNL     1       3.966  -3.131  -2.562  0.00  0.00    +0.000 A 
ATOM     22  C   UNL     1       3.228  -3.430  -1.419  0.00  0.00    +0.000 A 
ATOM     23  C   UNL     1       2.950  -2.435  -0.475  0.00  0.00    +0.000 A 
BRANCH  18  24
ATOM     24  C   UNL     1       3.111  -0.046   0.351  0.00  0.00    +0.000 C 
BRANCH  24  25
ATOM     25  N   UNL     1       2.372   1.073  -0.223  0.00  0.00    +0.000 NA
ATOM     26  H   UNL     1       2.142   1.732   0.518  0.00  0.00    +0.000 HD
ATOM     27  H   UNL     1       1.484   0.732  -0.590  0.00  0.00    +0.000 HD
ENDBRANCH  24  25
ENDBRANCH  18  24
ENDBRANCH  17  21
ENDBRANCH  16  17
ENDBRANCH   1  16
TORSDOF 8
