REMARK  Name = 
REMARK  7 active torsions:
REMARK  status: ('A' for Active; 'I' for Inactive)
REMARK    1  A    between atoms: C_2  and  C_4
REMARK    2  A    between atoms: N_8  and  C_9
REMARK    3  A    between atoms: C_9  and  C_10
REMARK    4  A    between atoms: C_10  and  C_13
REMARK    5  A    between atoms: C_15  and  N_16
REMARK    6  A    between atoms: N_16  and  C_17
REMARK    7  A    between atoms: C_19  and  O_20
REMARK                            x       y       z     vdW  Elec       q    Type
REMARK                         _______ _______ _______ _____ _____    ______ ____
ROOT
ATOM      1  C   UNL     1       6.200   4.319   5.495  0.00  0.00    +0.000 C 
ATOM      2  F   UNL     1       6.802   3.093   5.352  0.00  0.00    +0.000 F 
ATOM      3  F   UNL     1       7.147   5.213   5.087  0.00  0.00    +0.000 F 
ENDROOT
BRANCH   1   4
ATOM      4  C   UNL     1       5.751   4.556   6.916  0.00  0.00    +0.000 A 
ATOM      5  C   UNL     1       5.423   3.485   7.765  0.00  0.00    +0.000 A 
ATOM      6  C   UNL     1       4.996   3.701   9.086  0.00  0.00    +0.000 A 
ATOM      7  C   UNL     1       4.929   5.014   9.560  0.00  0.00    +0.000 A 
ATOM      8  C   UNL     1       5.235   6.089   8.721  0.00  0.00    +0.000 A 
ATOM      9  C   UNL     1       5.642   5.852   7.412  0.00  0.00    +0.000 A 
ATOM     10  F   UNL     1       5.924   6.899   6.627  0.00  0.00    +0.000 F 
BRANCH   6  11
ATOM     11  N   UNL     1       4.782   2.585   9.910  0.00  0.00    +0.000 N 
ATOM     12  H   UNL     1       4.457   1.757   9.418  0.00  0.00    +0.000 HD
BRANCH  11  13
ATOM     13  C   UNL     1       4.737   2.534  11.336  0.00  0.00    +0.000 C 
ATOM     14  C   UNL     1       6.133   2.702  11.967  0.00  0.00    +0.000 C 
ATOM     15  C   UNL     1       5.927   1.390  12.743  0.00  0.00    +0.000 C 
ATOM     16  C   UNL     1       4.706   1.085  11.860  0.00  0.00    +0.000 C 
BRANCH  15  17
ATOM     17  O   UNL     1       5.688   1.506  14.162  0.00  0.00    +0.000 OA
ATOM     18  H   UNL     1       4.976   2.158  14.261  0.00  0.00    +0.000 HD
ENDBRANCH  15  17
ENDBRANCH  11  13
ENDBRANCH   6  11
ENDBRANCH   1   4
BRANCH   1  19
ATOM     19  C   UNL     1       4.998   4.354   4.517  0.00  0.00    +0.000 C 
BRANCH  19  24
ATOM     20  C   UNL     1       2.360   3.993   0.284  0.00  0.00    +0.000 A 
ATOM     21  C   UNL     1       3.686   3.866  -0.122  0.00  0.00    +0.000 A 
ATOM     22  C   UNL     1       4.697   3.927   0.839  0.00  0.00    +0.000 A 
ATOM     23  C   UNL     1       4.373   4.102   2.184  0.00  0.00    +0.000 A 
ATOM     24  N   UNL     1       5.417   4.234   3.103  0.00  0.00    +0.000 N 
ATOM     25  N   UNL     1       3.091   4.232   2.585  0.00  0.00    +0.000 NA
ATOM     26  C   UNL     1       2.118   4.186   1.635  0.00  0.00    +0.000 A 
ATOM     27  H   UNL     1       6.127   3.518   2.970  0.00  0.00    +0.000 HD
BRANCH  20  29
ATOM     28  N   UNL     1       1.384   3.279  -1.823  0.00  0.00    +0.000 N 
ATOM     29  C   UNL     1       1.220   3.971  -0.654  0.00  0.00    +0.000 C 
ATOM     30  O   UNL     1       0.159   4.517  -0.386  0.00  0.00    +0.000 OA
ATOM     31  H   UNL     1       0.567   3.195  -2.416  0.00  0.00    +0.000 HD
ATOM     32  H   UNL     1       2.139   2.626  -1.972  0.00  0.00    +0.000 HD
ENDBRANCH  20  29
ENDBRANCH  19  24
ENDBRANCH   1  19
TORSDOF 7
