REMARK  Name = 
REMARK  4 active torsions:
REMARK  status: ('A' for Active; 'I' for Inactive)
REMARK    1  A    between atoms: C_2  and  C_4
REMARK    2  A    between atoms: C_7  and  N_8
REMARK    3  A    between atoms: N_8  and  C_9
REMARK    4  A    between atoms: C_9  and  C_10
REMARK                            x       y       z     vdW  Elec       q    Type
REMARK                         _______ _______ _______ _____ _____    ______ ____
ROOT
ATOM      1  C   UNL     1       3.308  -0.437  -1.272  0.00  0.00    +0.000 A 
ATOM      2  C   UNL     1       3.715  -1.691  -0.853  0.00  0.00    +0.000 A 
ATOM      3  N   UNL     1       4.325  -2.572  -1.689  0.00  0.00    +0.000 NA
ATOM      4  C   UNL     1       4.485  -2.187  -2.974  0.00  0.00    +0.000 A 
ATOM      5  C   UNL     1       4.108  -0.895  -3.360  0.00  0.00    +0.000 A 
ATOM      6  N   UNL     1       3.506   0.006  -2.543  0.00  0.00    +0.000 NA
ENDROOT
BRANCH   1   8
ATOM      7  N   UNL     1       2.186   1.663  -0.878  0.00  0.00    +0.000 N 
ATOM      8  C   UNL     1       2.613   0.482  -0.332  0.00  0.00    +0.000 C 
ATOM      9  O   UNL     1       2.425   0.203   0.842  0.00  0.00    +0.000 OA
ATOM     10  H   UNL     1       1.695   2.332  -0.303  0.00  0.00    +0.000 HD
ATOM     11  H   UNL     1       2.344   1.849  -1.862  0.00  0.00    +0.000 HD
ENDBRANCH   1   8
BRANCH   4  12
ATOM     12  N   UNL     1       5.076  -3.116  -3.819  0.00  0.00    +0.000 N 
ATOM     13  H   UNL     1       6.077  -3.139  -3.639  0.00  0.00    +0.000 HD
BRANCH  12  14
ATOM     14  C   UNL     1       4.771  -3.023  -5.236  0.00  0.00    +0.000 C 
BRANCH  14  15
ATOM     15  C   UNL     1       5.008  -4.353  -5.903  0.00  0.00    +0.000 A 
ATOM     16  C   UNL     1       4.325  -5.500  -5.462  0.00  0.00    +0.000 A 
ATOM     17  C   UNL     1       4.493  -6.726  -6.110  0.00  0.00    +0.000 A 
ATOM     18  C   UNL     1       5.345  -6.818  -7.207  0.00  0.00    +0.000 A 
ATOM     19  C   UNL     1       6.021  -5.685  -7.646  0.00  0.00    +0.000 A 
ATOM     20  F   UNL     1       6.834  -5.771  -8.707  0.00  0.00    +0.000 F 
ATOM     21  C   UNL     1       5.861  -4.458  -7.009  0.00  0.00    +0.000 A 
ENDBRANCH  14  15
ENDBRANCH  12  14
ENDBRANCH   4  12
TORSDOF 4
