REMARK  Name = 
REMARK  5 active torsions:
REMARK  status: ('A' for Active; 'I' for Inactive)
REMARK    1  A    between atoms: C_2  and  C_3
REMARK    2  A    between atoms: C_6  and  N_7
REMARK    3  A    between atoms: N_7  and  C_8
REMARK    4  A    between atoms: C_8  and  C_9
REMARK    5  A    between atoms: C_13  and  C_14
REMARK                            x       y       z     vdW  Elec       q    Type
REMARK                         _______ _______ _______ _____ _____    ______ ____
ROOT
ATOM      1  C   UNL     1      10.068  -0.867  -1.137  0.00  0.00    +0.000 A 
ATOM      2  C   UNL     1      10.975  -1.894  -1.358  0.00  0.00    +0.000 A 
ATOM      3  N   UNL     1      12.272  -1.702  -1.676  0.00  0.00    +0.000 NA
ATOM      4  C   UNL     1      12.695  -0.416  -1.776  0.00  0.00    +0.000 A 
ATOM      5  C   UNL     1      11.900   0.710  -1.556  0.00  0.00    +0.000 A 
ATOM      6  C   UNL     1      10.565   0.444  -1.214  0.00  0.00    +0.000 A 
ENDROOT
BRANCH   5   7
ATOM      7  C   UNL     1      12.417   2.093  -1.669  0.00  0.00    +0.000 A 
ATOM      8  C   UNL     1      13.748   2.419  -1.345  0.00  0.00    +0.000 A 
ATOM      9  C   UNL     1      14.226   3.733  -1.439  0.00  0.00    +0.000 A 
ATOM     10  C   UNL     1      13.377   4.754  -1.851  0.00  0.00    +0.000 A 
ATOM     11  C   UNL     1      12.065   4.451  -2.176  0.00  0.00    +0.000 A 
ATOM     12  F   UNL     1      11.238   5.429  -2.570  0.00  0.00    +0.000 F 
ATOM     13  C   UNL     1      11.587   3.144  -2.098  0.00  0.00    +0.000 A 
ENDBRANCH   5   7
BRANCH   1  14
ATOM     14  C   UNL     1       8.650  -1.174  -0.728  0.00  0.00    +0.000 C 
BRANCH  14  15
ATOM     15  N   UNL     1       7.753  -0.104  -1.135  0.00  0.00    +0.000 N 
ATOM     16  H   UNL     1       7.618  -0.032  -2.143  0.00  0.00    +0.000 HD
BRANCH  15  20
ATOM     17  C   UNL     1       4.104   0.542   0.607  0.00  0.00    +0.000 A 
ATOM     18  C   UNL     1       4.320   0.705  -0.750  0.00  0.00    +0.000 A 
ATOM     19  N   UNL     1       5.523   0.459  -1.338  0.00  0.00    +0.000 NA
ATOM     20  C   UNL     1       6.523   0.053  -0.529  0.00  0.00    +0.000 A 
ATOM     21  C   UNL     1       6.290  -0.086   0.842  0.00  0.00    +0.000 A 
ATOM     22  N   UNL     1       5.089   0.134   1.439  0.00  0.00    +0.000 NA
BRANCH  17  24
ATOM     23  N   UNL     1       1.766   1.019   1.624  0.00  0.00    +0.000 NA
ATOM     24  C   UNL     1       2.821   0.802   1.190  0.00  0.00    +0.000 C 
ENDBRANCH  17  24
ENDBRANCH  15  20
ENDBRANCH  14  15
ENDBRANCH   1  14
TORSDOF 5
