REMARK  Name = 
REMARK  7 active torsions:
REMARK  status: ('A' for Active; 'I' for Inactive)
REMARK    1  A    between atoms: C_1  and  C_2
REMARK    2  A    between atoms: C_2  and  C_3
REMARK    3  A    between atoms: C_2  and  C_4
REMARK    4  A    between atoms: C_2  and  C_5
REMARK    5  A    between atoms: C_9  and  C_10
REMARK    6  A    between atoms: N_16  and  C_17
REMARK    7  A    between atoms: C_17  and  C_18
REMARK                            x       y       z     vdW  Elec       q    Type
REMARK                         _______ _______ _______ _____ _____    ______ ____
ROOT
ATOM      1  C   UNL     1       3.035  -1.381  -0.023  0.00  0.00    +0.000 A 
ATOM      2  N   UNL     1       4.307  -1.696  -0.219  0.00  0.00    +0.000 NA
ATOM      3  C   UNL     1       4.378  -3.066  -0.293  0.00  0.00    +0.000 A 
ATOM      4  C   UNL     1       5.501  -3.899  -0.461  0.00  0.00    +0.000 A 
ATOM      5  C   UNL     1       5.317  -5.289  -0.512  0.00  0.00    +0.000 A 
ATOM      6  C   UNL     1       4.022  -5.822  -0.428  0.00  0.00    +0.000 A 
ATOM      7  C   UNL     1       2.896  -5.006  -0.269  0.00  0.00    +0.000 A 
ATOM      8  C   UNL     1       3.114  -3.626  -0.172  0.00  0.00    +0.000 A 
ATOM      9  N   UNL     1       2.283  -2.546   0.091  0.00  0.00    +0.000 N 
ENDROOT
BRANCH   5  10
ATOM     10  C   UNL     1       6.449  -6.268  -0.636  0.00  0.00    +0.000 C 
ATOM     11  N   UNL     1       7.717  -5.797  -0.742  0.00  0.00    +0.000 N 
ATOM     12  O   UNL     1       6.242  -7.477  -0.636  0.00  0.00    +0.000 OA
ATOM     13  H   UNL     1       7.987  -4.823  -0.761  0.00  0.00    +0.000 HD
ATOM     14  H   UNL     1       8.456  -6.488  -0.830  0.00  0.00    +0.000 HD
ENDBRANCH   5  10
BRANCH   1  16
ATOM     15  C   UNL     1       3.670   1.079  -0.054  0.00  0.00    +0.000 C 
ATOM     16  C   UNL     1       2.514   0.057   0.082  0.00  0.00    +0.000 C 
ATOM     17  C   UNL     1       1.883   0.318   1.457  0.00  0.00    +0.000 C 
ATOM     18  C   UNL     1       1.524   0.373  -1.056  0.00  0.00    +0.000 C 
ENDBRANCH   1  16
BRANCH   9  19
ATOM     19  C   UNL     1       0.870  -2.686   0.433  0.00  0.00    +0.000 C 
BRANCH  19  20
ATOM     20  C   UNL     1       0.573  -2.763   1.909  0.00  0.00    +0.000 A 
ATOM     21  C   UNL     1       1.428  -3.346   2.847  0.00  0.00    +0.000 A 
ATOM     22  C   UNL     1       1.013  -3.493   4.169  0.00  0.00    +0.000 A 
ATOM     23  C   UNL     1      -0.245  -3.037   4.521  0.00  0.00    +0.000 A 
ATOM     24  N   UNL     1      -1.084  -2.427   3.660  0.00  0.00    +0.000 NA
ATOM     25  C   UNL     1      -0.660  -2.308   2.382  0.00  0.00    +0.000 A 
ENDBRANCH  19  20
ENDBRANCH   9  19
TORSDOF 4
