REMARK  Name = 
REMARK  4 active torsions:
REMARK  status: ('A' for Active; 'I' for Inactive)
REMARK    1  A    between atoms: C_2  and  C_4
REMARK    2  A    between atoms: C_7  and  O_8
REMARK    3  A    between atoms: O_8  and  C_9
REMARK    4  A    between atoms: C_9  and  C_10
REMARK                            x       y       z     vdW  Elec       q    Type
REMARK                         _______ _______ _______ _____ _____    ______ ____
ROOT
ATOM      1  C   UNL     1       2.658   0.194  -1.459  0.00  0.00    +0.000 A 
ATOM      2  C   UNL     1       2.491  -0.001  -2.838  0.00  0.00    +0.000 A 
ATOM      3  C   UNL     1       3.387   0.577  -3.744  0.00  0.00    +0.000 A 
ATOM      4  C   UNL     1       4.425   1.376  -3.271  0.00  0.00    +0.000 A 
ATOM      5  C   UNL     1       4.620   1.539  -1.898  0.00  0.00    +0.000 A 
ATOM      6  C   UNL     1       3.733   0.961  -0.993  0.00  0.00    +0.000 A 
ENDROOT
BRANCH   1   8
ATOM      7  N   UNL     1       0.992  -1.467  -0.824  0.00  0.00    +0.000 N 
ATOM      8  C   UNL     1       1.700  -0.354  -0.464  0.00  0.00    +0.000 C 
ATOM      9  O   UNL     1       1.565   0.146   0.648  0.00  0.00    +0.000 OA
ATOM     10  H   UNL     1       0.410  -1.879  -0.107  0.00  0.00    +0.000 HD
ATOM     11  H   UNL     1       1.258  -2.046  -1.607  0.00  0.00    +0.000 HD
ENDBRANCH   1   8
BRANCH   4  12
ATOM     12  O   UNL     1       5.315   2.039  -4.072  0.00  0.00    +0.000 OA
BRANCH  12  13
ATOM     13  C   UNL     1       4.841   2.590  -5.331  0.00  0.00    +0.000 C 
ATOM     14  C   UNL     1       4.699   4.109  -5.242  0.00  0.00    +0.000 C 
ATOM     15  C   UNL     1       3.483   3.267  -5.432  0.00  0.00    +0.000 C 
BRANCH  13  16
ATOM     16  C   UNL     1       5.482   2.009  -6.586  0.00  0.00    +0.000 A 
ATOM     17  C   UNL     1       6.859   2.145  -6.796  0.00  0.00    +0.000 A 
ATOM     18  C   UNL     1       7.446   1.622  -7.945  0.00  0.00    +0.000 A 
ATOM     19  C   UNL     1       6.650   0.967  -8.872  0.00  0.00    +0.000 A 
ATOM     20  C   UNL     1       5.297   0.863  -8.605  0.00  0.00    +0.000 A 
ATOM     21  N   UNL     1       4.704   1.360  -7.495  0.00  0.00    +0.000 NA
ENDBRANCH  13  16
ENDBRANCH  12  13
ENDBRANCH   4  12
TORSDOF 4
