REMARK  Name = 
REMARK  7 active torsions:
REMARK  status: ('A' for Active; 'I' for Inactive)
REMARK    1  A    between atoms: C_1  and  C_2
REMARK    2  A    between atoms: C_2  and  N_3
REMARK    3  A    between atoms: C_2  and  C_16
REMARK    4  A    between atoms: C_4  and  C_6
REMARK    5  A    between atoms: C_19  and  C_20
REMARK    6  A    between atoms: C_20  and  N_21
REMARK    7  A    between atoms: C_22  and  C_24
REMARK                            x       y       z     vdW  Elec       q    Type
REMARK                         _______ _______ _______ _____ _____    ______ ____
ROOT
ATOM      1  C   UNL     1       3.055   0.326  -1.417  0.00  0.00    +0.000 C 
ATOM      2  C   UNL     1       2.381   0.072  -0.066  0.00  0.00    +0.000 C 
ENDROOT
BRANCH   2   3
ATOM      3  C   UNL     1       2.851  -1.275   0.496  0.00  0.00    +0.000 A 
ATOM      4  C   UNL     1       3.540  -1.367   1.713  0.00  0.00    +0.000 A 
ATOM      5  C   UNL     1       3.897  -2.614   2.256  0.00  0.00    +0.000 A 
ATOM      6  C   UNL     1       3.584  -3.811   1.593  0.00  0.00    +0.000 A 
ATOM      7  C   UNL     1       2.924  -3.718   0.361  0.00  0.00    +0.000 A 
ATOM      8  C   UNL     1       2.581  -2.474  -0.186  0.00  0.00    +0.000 A 
BRANCH   6   9
ATOM      9  C   UNL     1       3.945  -5.163   2.166  0.00  0.00    +0.000 C 
BRANCH   9  10
ATOM     10  N   UNL     1       2.923  -5.727   3.014  0.00  0.00    +0.000 N 
ATOM     11  C   UNL     1       3.064  -6.976   3.595  0.00  0.00    +0.000 C 
ATOM     12  O   UNL     1       4.058  -7.688   3.439  0.00  0.00    +0.000 OA
ATOM     13  H   UNL     1       2.220  -5.125   3.438  0.00  0.00    +0.000 HD
BRANCH  11  14
ATOM     14  C   UNL     1       1.921  -7.418   4.463  0.00  0.00    +0.000 A 
ATOM     15  C   UNL     1       1.968  -8.647   5.116  0.00  0.00    +0.000 A 
ATOM     16  C   UNL     1       0.889  -9.016   5.917  0.00  0.00    +0.000 A 
ATOM     17  C   UNL     1      -0.196  -8.154   6.037  0.00  0.00    +0.000 A 
ATOM     18  C   UNL     1      -0.161  -6.952   5.346  0.00  0.00    +0.000 A 
ATOM     19  N   UNL     1       0.870  -6.555   4.565  0.00  0.00    +0.000 NA
ENDBRANCH  11  14
ENDBRANCH   9  10
ENDBRANCH   6   9
ENDBRANCH   2   3
BRANCH   2  20
ATOM     20  N   UNL     1       0.922   0.103  -0.181  0.00  0.00    +0.000 N 
ATOM     21  C   UNL     1       0.213   1.202  -0.623  0.00  0.00    +0.000 C 
ATOM     22  O   UNL     1       0.735   2.245  -0.973  0.00  0.00    +0.000 OA
ATOM     23  H   UNL     1       0.432  -0.532   0.444  0.00  0.00    +0.000 HD
BRANCH  21  24
ATOM     24  C   UNL     1      -1.251   1.016  -0.695  0.00  0.00    +0.000 A 
ATOM     25  C   UNL     1      -1.996   1.713  -1.634  0.00  0.00    +0.000 A 
ATOM     26  S   UNL     1      -3.677   1.427  -1.521  0.00  0.00    +0.000 S 
ATOM     27  C   UNL     1      -3.464   0.373  -0.200  0.00  0.00    +0.000 A 
ATOM     28  N   UNL     1      -4.530  -0.198   0.428  0.00  0.00    +0.000 NA
ATOM     29  C   UNL     1      -4.212  -0.959   1.422  0.00  0.00    +0.000 A 
ATOM     30  N   UNL     1      -2.929  -1.227   1.828  0.00  0.00    +0.000 N 
ATOM     31  C   UNL     1      -1.831  -0.719   1.189  0.00  0.00    +0.000 A 
ATOM     32  O   UNL     1      -0.690  -1.052   1.518  0.00  0.00    +0.000 OA
ATOM     33  C   UNL     1      -2.127   0.196   0.106  0.00  0.00    +0.000 A 
ATOM     34  H   UNL     1      -2.746  -1.869   2.586  0.00  0.00    +0.000 HD
ENDBRANCH  21  24
ENDBRANCH   2  20
TORSDOF 6
