REMARK  Name = 
REMARK  7 active torsions:
REMARK  status: ('A' for Active; 'I' for Inactive)
REMARK    1  A    between atoms: C_1  and  C_2
REMARK    2  A    between atoms: C_5  and  C_6
REMARK    3  A    between atoms: C_6  and  N_7
REMARK    4  A    between atoms: N_7  and  C_8
REMARK    5  A    between atoms: C_11  and  C_12
REMARK    6  A    between atoms: C_12  and  N_13
REMARK    7  A    between atoms: C_14  and  C_16
REMARK                            x       y       z     vdW  Elec       q    Type
REMARK                         _______ _______ _______ _____ _____    ______ ____
ROOT
ATOM      1  C   UNL     1      -5.092   1.845  -0.265  0.00  0.00    +0.000 A 
ATOM      2  C   UNL     1      -5.908   1.152   0.640  0.00  0.00    +0.000 A 
ATOM      3  C   UNL     1      -7.275   1.450   0.766  0.00  0.00    +0.000 A 
ATOM      4  C   UNL     1      -7.852   2.470   0.001  0.00  0.00    +0.000 A 
ATOM      5  C   UNL     1      -7.021   3.230  -0.825  0.00  0.00    +0.000 A 
ATOM      6  C   UNL     1      -5.662   2.928  -0.944  0.00  0.00    +0.000 A 
ENDROOT
BRANCH   1   7
ATOM      7  N   UNL     1      -3.722   1.528  -0.353  0.00  0.00    +0.000 N 
ATOM      8  H   UNL     1      -3.550   0.571  -0.048  0.00  0.00    +0.000 HD
BRANCH   7   9
ATOM      9  C   UNL     1      -3.086   1.754  -1.660  0.00  0.00    +0.000 C 
BRANCH   9  14
ATOM     10  C   UNL     1       2.521   0.408  -1.803  0.00  0.00    +0.000 C 
ATOM     11  C   UNL     1       1.077   0.784  -1.718  0.00  0.00    +0.000 A 
ATOM     12  C   UNL     1       0.627   1.796  -0.872  0.00  0.00    +0.000 A 
ATOM     13  C   UNL     1      -0.731   2.106  -0.830  0.00  0.00    +0.000 A 
ATOM     14  C   UNL     1      -1.614   1.392  -1.638  0.00  0.00    +0.000 A 
ATOM     15  N   UNL     1      -1.198   0.399  -2.465  0.00  0.00    +0.000 NA
ATOM     16  C   UNL     1       0.126   0.123  -2.487  0.00  0.00    +0.000 A 
ENDBRANCH   9  14
ENDBRANCH   7   9
ENDBRANCH   1   7
BRANCH   4  17
ATOM     17  C   UNL     1      -9.321   2.789   0.078  0.00  0.00    +0.000 C 
BRANCH  17  18
ATOM     18  N   UNL     1      -9.595   3.789   1.076  0.00  0.00    +0.000 N 
ATOM     19  C   UNL     1     -10.878   4.204   1.325  0.00  0.00    +0.000 C 
ATOM     20  O   UNL     1     -11.846   3.706   0.756  0.00  0.00    +0.000 OA
ATOM     21  H   UNL     1      -8.817   4.373   1.367  0.00  0.00    +0.000 HD
BRANCH  19  22
ATOM     22  C   UNL     1     -11.045   5.238   2.353  0.00  0.00    +0.000 A 
ATOM     23  C   UNL     1     -12.256   5.356   3.021  0.00  0.00    +0.000 A 
ATOM     24  S   UNL     1     -12.265   6.577   4.212  0.00  0.00    +0.000 S 
ATOM     25  C   UNL     1     -10.664   7.023   3.843  0.00  0.00    +0.000 A 
ATOM     26  N   UNL     1     -10.056   8.049   4.498  0.00  0.00    +0.000 NA
ATOM     27  C   UNL     1      -8.850   8.294   4.101  0.00  0.00    +0.000 A 
ATOM     28  N   UNL     1      -8.200   7.606   3.111  0.00  0.00    +0.000 N 
ATOM     29  C   UNL     1      -8.768   6.552   2.437  0.00  0.00    +0.000 A 
ATOM     30  O   UNL     1      -8.149   5.934   1.578  0.00  0.00    +0.000 OA
ATOM     31  C   UNL     1     -10.126   6.239   2.840  0.00  0.00    +0.000 A 
ATOM     32  H   UNL     1      -7.254   7.842   2.853  0.00  0.00    +0.000 HD
ENDBRANCH  19  22
ENDBRANCH  17  18
ENDBRANCH   4  17
TORSDOF 6
