REMARK  Name = 
REMARK  6 active torsions:
REMARK  status: ('A' for Active; 'I' for Inactive)
REMARK    1  A    between atoms: C_1  and  C_2
REMARK    2  A    between atoms: C_5  and  C_6
REMARK    3  A    between atoms: C_6  and  C_7
REMARK    4  A    between atoms: C_10  and  C_11
REMARK    5  A    between atoms: C_11  and  N_12
REMARK    6  A    between atoms: C_13  and  C_15
REMARK                            x       y       z     vdW  Elec       q    Type
REMARK                         _______ _______ _______ _____ _____    ______ ____
ROOT
ATOM      1  C   UNL     1      -4.964   5.658  -0.121  0.00  0.00    +0.000 C 
ENDROOT
BRANCH   1   5
ATOM      2  C   UNL     1      -3.744   1.576  -0.084  0.00  0.00    +0.000 A 
ATOM      3  C   UNL     1      -3.420   2.354  -1.193  0.00  0.00    +0.000 A 
ATOM      4  C   UNL     1      -3.840   3.682  -1.230  0.00  0.00    +0.000 A 
ATOM      5  C   UNL     1      -4.576   4.209  -0.167  0.00  0.00    +0.000 A 
ATOM      6  C   UNL     1      -4.860   3.358   0.893  0.00  0.00    +0.000 A 
ATOM      7  N   UNL     1      -4.471   2.063   0.955  0.00  0.00    +0.000 NA
BRANCH   2   8
ATOM      8  C   UNL     1      -3.207   0.168   0.047  0.00  0.00    +0.000 C 
BRANCH   8  13
ATOM      9  C   UNL     1       2.032   0.052   2.459  0.00  0.00    +0.000 C 
ATOM     10  C   UNL     1       0.654   0.086   1.881  0.00  0.00    +0.000 A 
ATOM     11  C   UNL     1      -0.436   0.546   2.615  0.00  0.00    +0.000 A 
ATOM     12  C   UNL     1      -1.700   0.561   2.033  0.00  0.00    +0.000 A 
ATOM     13  C   UNL     1      -1.851   0.124   0.717  0.00  0.00    +0.000 A 
ATOM     14  N   UNL     1      -0.806  -0.345  -0.010  0.00  0.00    +0.000 NA
ATOM     15  C   UNL     1       0.409  -0.359   0.587  0.00  0.00    +0.000 A 
ENDBRANCH   8  13
ENDBRANCH   2   8
ENDBRANCH   1   5
BRANCH   1  16
ATOM     16  N   UNL     1      -3.918   6.439   0.490  0.00  0.00    +0.000 N 
ATOM     17  C   UNL     1      -4.088   7.765   0.797  0.00  0.00    +0.000 C 
ATOM     18  O   UNL     1      -5.155   8.344   0.611  0.00  0.00    +0.000 OA
ATOM     19  H   UNL     1      -2.975   6.067   0.429  0.00  0.00    +0.000 HD
BRANCH  17  20
ATOM     20  C   UNL     1      -2.945   8.437   1.429  0.00  0.00    +0.000 A 
ATOM     21  C   UNL     1      -3.153   9.582   2.188  0.00  0.00    +0.000 A 
ATOM     22  S   UNL     1      -1.731  10.179   2.923  0.00  0.00    +0.000 S 
ATOM     23  C   UNL     1      -0.781   8.962   2.206  0.00  0.00    +0.000 A 
ATOM     24  N   UNL     1       0.560   8.899   2.424  0.00  0.00    +0.000 NA
ATOM     25  C   UNL     1       1.160   7.944   1.793  0.00  0.00    +0.000 A 
ATOM     26  N   UNL     1       0.540   7.048   0.962  0.00  0.00    +0.000 N 
ATOM     27  C   UNL     1      -0.813   7.063   0.725  0.00  0.00    +0.000 A 
ATOM     28  O   UNL     1      -1.342   6.235  -0.010  0.00  0.00    +0.000 OA
ATOM     29  C   UNL     1      -1.537   8.112   1.418  0.00  0.00    +0.000 A 
ATOM     30  H   UNL     1       1.066   6.324   0.495  0.00  0.00    +0.000 HD
ENDBRANCH  17  20
ENDBRANCH   1  16
TORSDOF 5
