REMARK  Name = 
REMARK  10 active torsions:
REMARK  status: ('A' for Active; 'I' for Inactive)
REMARK    1  A    between atoms: C_1  and  C_2
REMARK    2  A    between atoms: C_2  and  C_3
REMARK    3  A    between atoms: C_3  and  N_4
REMARK    4  A    between atoms: C_3  and  C_21
REMARK    5  A    between atoms: N_4  and  C_5
REMARK    6  A    between atoms: C_5  and  C_6
REMARK    7  A    between atoms: C_9  and  C_10
REMARK    8  A    between atoms: C_10  and  N_11
REMARK    9  A    between atoms: N_11  and  C_12
REMARK   10  A    between atoms: C_12  and  C_13
REMARK                            x       y       z     vdW  Elec       q    Type
REMARK                         _______ _______ _______ _____ _____    ______ ____
ROOT
ATOM      1  C   UNL     1       1.045   0.094   2.639  0.00  0.00    +0.000 C 
ENDROOT
BRANCH   1   2
ATOM      2  C   UNL     1       0.750  -0.786   3.830  0.00  0.00    +0.000 A 
ATOM      3  C   UNL     1       0.800  -2.181   3.720  0.00  0.00    +0.000 A 
ATOM      4  C   UNL     1       0.526  -2.985   4.828  0.00  0.00    +0.000 A 
ATOM      5  C   UNL     1       0.197  -2.413   6.067  0.00  0.00    +0.000 A 
ATOM      6  C   UNL     1       0.119  -1.018   6.168  0.00  0.00    +0.000 A 
ATOM      7  C   UNL     1       0.391  -0.214   5.059  0.00  0.00    +0.000 A 
BRANCH   5   8
ATOM      8  C   UNL     1      -0.075  -3.289   7.265  0.00  0.00    +0.000 C 
BRANCH   8   9
ATOM      9  N   UNL     1       1.093  -4.108   7.584  0.00  0.00    +0.000 NA
ATOM     10  H   UNL     1       1.889  -3.494   7.752  0.00  0.00    +0.000 HD
BRANCH   9  11
ATOM     11  C   UNL     1       0.855  -4.927   8.767  0.00  0.00    +0.000 C 
BRANCH  11  12
ATOM     12  C   UNL     1       2.074  -5.743   9.114  0.00  0.00    +0.000 A 
ATOM     13  C   UNL     1       2.714  -5.590  10.346  0.00  0.00    +0.000 A 
ATOM     14  C   UNL     1       3.824  -6.374  10.621  0.00  0.00    +0.000 A 
ATOM     15  N   UNL     1       4.333  -7.286   9.766  0.00  0.00    +0.000 NA
ATOM     16  C   UNL     1       3.703  -7.417   8.579  0.00  0.00    +0.000 A 
ATOM     17  C   UNL     1       2.587  -6.682   8.213  0.00  0.00    +0.000 A 
ENDBRANCH  11  12
ENDBRANCH   9  11
ENDBRANCH   8   9
ENDBRANCH   5   8
ENDBRANCH   1   2
BRANCH   1  18
ATOM     18  N   UNL     1      -0.189   0.406   1.935  0.00  0.00    +0.000 NA
ATOM     19  H   UNL     1      -0.639  -0.484   1.717  0.00  0.00    +0.000 HD
BRANCH  18  20
ATOM     20  C   UNL     1      -0.055   1.156   0.676  0.00  0.00    +0.000 C 
BRANCH  20  21
ATOM     21  C   UNL     1      -1.468   1.171   0.065  0.00  0.00    +0.000 A 
ATOM     22  C   UNL     1      -2.631   1.290   0.817  0.00  0.00    +0.000 A 
ATOM     23  S   UNL     1      -4.056   1.295  -0.115  0.00  0.00    +0.000 S 
ATOM     24  C   UNL     1      -3.172   1.189  -1.564  0.00  0.00    +0.000 A 
ATOM     25  N   UNL     1      -3.805   1.189  -2.767  0.00  0.00    +0.000 NA
ATOM     26  C   UNL     1      -3.013   1.128  -3.784  0.00  0.00    +0.000 A 
ATOM     27  N   UNL     1      -1.644   1.059  -3.708  0.00  0.00    +0.000 N 
ATOM     28  C   UNL     1      -0.959   1.032  -2.509  0.00  0.00    +0.000 A 
ATOM     29  O   UNL     1       0.264   0.945  -2.474  0.00  0.00    +0.000 OA
ATOM     30  C   UNL     1      -1.811   1.119  -1.338  0.00  0.00    +0.000 A 
ATOM     31  H   UNL     1      -1.086   1.009  -4.545  0.00  0.00    +0.000 HD
ENDBRANCH  20  21
BRANCH  20  33
ATOM     32  C   UNL     1       1.836   2.847   1.351  0.00  0.00    +0.000 C 
ATOM     33  C   UNL     1       0.431   2.623   0.806  0.00  0.00    +0.000 C 
ENDBRANCH  20  33
ENDBRANCH  18  20
ENDBRANCH   1  18
TORSDOF 9
