REMARK  Name = 
REMARK  5 active torsions:
REMARK  status: ('A' for Active; 'I' for Inactive)
REMARK    1  A    between atoms: N_1  and  C_2
REMARK    2  A    between atoms: C_2  and  C_3
REMARK    3  A    between atoms: C_6  and  O_7
REMARK    4  A    between atoms: O_7  and  C_8
REMARK    5  A    between atoms: C_8  and  C_9
REMARK                            x       y       z     vdW  Elec       q    Type
REMARK                         _______ _______ _______ _____ _____    ______ ____
ROOT
ATOM      1  C   UNL     1       2.900   0.417  -1.196  0.00  0.00    +0.000 A 
ATOM      2  C   UNL     1       2.773   1.772  -1.538  0.00  0.00    +0.000 A 
ATOM      3  C   UNL     1       3.314   2.259  -2.732  0.00  0.00    +0.000 A 
ATOM      4  C   UNL     1       3.999   1.401  -3.592  0.00  0.00    +0.000 A 
ATOM      5  C   UNL     1       4.077   0.041  -3.285  0.00  0.00    +0.000 A 
ATOM      6  C   UNL     1       3.543  -0.444  -2.090  0.00  0.00    +0.000 A 
ENDROOT
BRANCH   1   7
ATOM      7  C   UNL     1       2.381  -0.102   0.119  0.00  0.00    +0.000 C 
BRANCH   7   8
ATOM      8  N   UNL     1       0.935   0.038   0.221  0.00  0.00    +0.000 NA
ATOM      9  H   UNL     1       0.616  -0.431   1.066  0.00  0.00    +0.000 HD
ATOM     10  H   UNL     1       0.504  -0.452  -0.562  0.00  0.00    +0.000 HD
ENDBRANCH   7   8
ENDBRANCH   1   7
BRANCH   4  11
ATOM     11  O   UNL     1       4.561   1.983  -4.699  0.00  0.00    +0.000 OA
BRANCH  11  12
ATOM     12  C   UNL     1       5.683   1.272  -5.243  0.00  0.00    +0.000 C 
BRANCH  12  13
ATOM     13  C   UNL     1       6.568   2.190  -6.059  0.00  0.00    +0.000 A 
ATOM     14  C   UNL     1       6.006   3.262  -6.774  0.00  0.00    +0.000 A 
ATOM     15  C   UNL     1       6.812   4.118  -7.528  0.00  0.00    +0.000 A 
ATOM     16  C   UNL     1       8.186   3.906  -7.585  0.00  0.00    +0.000 A 
ATOM     17 CL   UNL     1       9.180   4.974  -8.495  0.00  0.00    +0.000 Cl
ATOM     18  C   UNL     1       8.761   2.831  -6.915  0.00  0.00    +0.000 A 
ATOM     19  C   UNL     1       7.954   1.969  -6.167  0.00  0.00    +0.000 A 
ATOM     20 CL   UNL     1       8.735   0.627  -5.405  0.00  0.00    +0.000 Cl
ENDBRANCH  12  13
ENDBRANCH  11  12
ENDBRANCH   4  11
TORSDOF 5
