REMARK  Name = 
REMARK  5 active torsions:
REMARK  status: ('A' for Active; 'I' for Inactive)
REMARK    1  A    between atoms: C_1  and  C_2
REMARK    2  A    between atoms: C_9  and  C_10
REMARK    3  A    between atoms: C_10  and  N_11
REMARK    4  A    between atoms: N_11  and  C_12
REMARK    5  A    between atoms: C_21  and  C_22
REMARK                            x       y       z     vdW  Elec       q    Type
REMARK                         _______ _______ _______ _____ _____    ______ ____
ROOT
ATOM      1  C   UNL     1       2.933   2.427   0.160  0.00  0.00    +0.000 C 
ATOM      2  C   UNL     1       3.809   1.296  -0.376  0.00  0.00    +0.000 C 
ATOM      3  C   UNL     1       3.894   1.280  -1.916  0.00  0.00    +0.000 C 
ATOM      4  N   UNL     1       2.654   0.765  -2.483  0.00  0.00    +0.000 N 
ATOM      5  C   UNL     1       1.888   1.520  -3.326  0.00  0.00    +0.000 A 
ATOM      6  N   UNL     1       0.723   1.028  -3.777  0.00  0.00    +0.000 NA
ATOM      7  C   UNL     1       0.018   1.779  -4.644  0.00  0.00    +0.000 A 
ATOM      8  C   UNL     1       0.427   3.010  -5.088  0.00  0.00    +0.000 A 
ATOM      9  C   UNL     1       1.638   3.445  -4.596  0.00  0.00    +0.000 A 
ATOM     10  N   UNL     1       2.353   2.721  -3.707  0.00  0.00    +0.000 NA
ATOM     11  C   UNL     1       2.197  -0.513  -1.951  0.00  0.00    +0.000 C 
ATOM     12  C   UNL     1       2.148  -0.445  -0.409  0.00  0.00    +0.000 C 
ATOM     13  C   UNL     1       1.879  -1.823   0.183  0.00  0.00    +0.000 C 
ATOM     14  O   UNL     1       3.397   0.018   0.148  0.00  0.00    +0.000 OA
ENDROOT
BRANCH   9  15
ATOM     15  C   UNL     1       2.254   4.734  -5.093  0.00  0.00    +0.000 C 
BRANCH  15  16
ATOM     16  N   UNL     1       1.731   5.890  -4.380  0.00  0.00    +0.000 N 
ATOM     17  H   UNL     1       1.762   5.800  -3.365  0.00  0.00    +0.000 HD
BRANCH  16  18
ATOM     18  C   UNL     1       2.296   7.129  -4.690  0.00  0.00    +0.000 A 
ATOM     19  N   UNL     1       2.434   7.972  -3.644  0.00  0.00    +0.000 NA
ATOM     20  C   UNL     1       2.916   9.217  -3.883  0.00  0.00    +0.000 A 
ATOM     21  C   UNL     1       3.291   9.674  -5.134  0.00  0.00    +0.000 A 
ATOM     22  C   UNL     1       3.153   8.807  -6.207  0.00  0.00    +0.000 A 
ATOM     23  C   UNL     1       2.642   7.534  -5.985  0.00  0.00    +0.000 A 
ATOM     24  F   UNL     1       2.503   6.722  -7.043  0.00  0.00    +0.000 F 
ENDBRANCH  16  18
ENDBRANCH  15  16
ENDBRANCH   9  15
TORSDOF 3
