REMARK  Name = 
REMARK  5 active torsions:
REMARK  status: ('A' for Active; 'I' for Inactive)
REMARK    1  A    between atoms: C_2  and  C_4
REMARK    2  A    between atoms: C_7  and  O_8
REMARK    3  A    between atoms: O_8  and  C_9
REMARK    4  A    between atoms: C_9  and  C_10
REMARK    5  A    between atoms: C_15  and  C_16
REMARK                            x       y       z     vdW  Elec       q    Type
REMARK                         _______ _______ _______ _____ _____    ______ ____
ROOT
ATOM      1  C   UNL     1       5.035  -1.641  -5.601  0.00  0.00    +0.000 C 
ENDROOT
BRANCH   1   2
ATOM      2  C   UNL     1       5.922  -2.366  -6.588  0.00  0.00    +0.000 A 
ATOM      3  C   UNL     1       6.802  -1.641  -7.395  0.00  0.00    +0.000 A 
ATOM      4  C   UNL     1       7.565  -2.303  -8.346  0.00  0.00    +0.000 A 
ATOM      5  F   UNL     1       8.410  -1.603  -9.115  0.00  0.00    +0.000 F 
ATOM      6  C   UNL     1       7.459  -3.680  -8.528  0.00  0.00    +0.000 A 
ATOM      7  C   UNL     1       6.578  -4.444  -7.745  0.00  0.00    +0.000 A 
ATOM      8  C   UNL     1       5.820  -3.757  -6.776  0.00  0.00    +0.000 A 
BRANCH   7   9
ATOM      9  C   UNL     1       6.438  -5.905  -7.930  0.00  0.00    +0.000 A 
ATOM     10  C   UNL     1       7.507  -6.718  -8.335  0.00  0.00    +0.000 A 
ATOM     11  C   UNL     1       7.336  -8.093  -8.499  0.00  0.00    +0.000 A 
ATOM     12  C   UNL     1       6.090  -8.637  -8.243  0.00  0.00    +0.000 A 
ATOM     13  N   UNL     1       5.029  -7.908  -7.849  0.00  0.00    +0.000 NA
ATOM     14  C   UNL     1       5.228  -6.573  -7.711  0.00  0.00    +0.000 A 
ENDBRANCH   7   9
ENDBRANCH   1   2
BRANCH   1  15
ATOM     15  O   UNL     1       4.757  -2.476  -4.472  0.00  0.00    +0.000 OA
BRANCH  15  19
ATOM     16  C   UNL     1       2.311  -0.674  -1.698  0.00  0.00    +0.000 A 
ATOM     17  C   UNL     1       2.760  -1.979  -1.479  0.00  0.00    +0.000 A 
ATOM     18  C   UNL     1       3.580  -2.584  -2.433  0.00  0.00    +0.000 A 
ATOM     19  C   UNL     1       3.923  -1.858  -3.564  0.00  0.00    +0.000 A 
ATOM     20  N   UNL     1       3.492  -0.603  -3.808  0.00  0.00    +0.000 NA
ATOM     21  C   UNL     1       2.686  -0.042  -2.876  0.00  0.00    +0.000 A 
BRANCH  16  23
ATOM     22  N   UNL     1       1.551  -0.265   0.571  0.00  0.00    +0.000 N 
ATOM     23  C   UNL     1       1.455   0.065  -0.751  0.00  0.00    +0.000 C 
ATOM     24  O   UNL     1       0.722   0.971  -1.128  0.00  0.00    +0.000 OA
ATOM     25  H   UNL     1       1.051   0.337   1.214  0.00  0.00    +0.000 HD
ATOM     26  H   UNL     1       2.317  -0.809   0.942  0.00  0.00    +0.000 HD
ENDBRANCH  16  23
ENDBRANCH  15  19
ENDBRANCH   1  15
TORSDOF 5
