REMARK  Name = 
REMARK  8 active torsions:
REMARK  status: ('A' for Active; 'I' for Inactive)
REMARK    1  A    between atoms: C_1  and  O_2
REMARK    2  A    between atoms: O_2  and  C_3
REMARK    3  A    between atoms: C_6  and  C_7
REMARK    4  A    between atoms: C_7  and  C_8
REMARK    5  A    between atoms: C_7  and  C_9
REMARK    6  A    between atoms: C_9  and  O_10
REMARK    7  A    between atoms: O_10  and  C_11
REMARK    8  A    between atoms: C_14  and  C_15
REMARK                            x       y       z     vdW  Elec       q    Type
REMARK                         _______ _______ _______ _____ _____    ______ ____
ROOT
ATOM      1  C   UNL     1       4.382   5.033  -3.500  0.00  0.00    +0.000 C 
ENDROOT
BRANCH   1   2
ATOM      2  C   UNL     1       4.942   3.608  -3.618  0.00  0.00    +0.000 C 
ATOM      3  C   UNL     1       4.780   3.046  -5.030  0.00  0.00    +0.000 C 
BRANCH   2   7
ATOM      4  C   UNL     1       2.994   1.077  -0.760  0.00  0.00    +0.000 A 
ATOM      5  C   UNL     1       4.331   0.852  -1.069  0.00  0.00    +0.000 A 
ATOM      6  C   UNL     1       4.974   1.670  -2.001  0.00  0.00    +0.000 A 
ATOM      7  C   UNL     1       4.265   2.704  -2.603  0.00  0.00    +0.000 A 
ATOM      8  N   UNL     1       2.954   2.929  -2.330  0.00  0.00    +0.000 NA
ATOM      9  C   UNL     1       2.358   2.120  -1.420  0.00  0.00    +0.000 A 
BRANCH   4  11
ATOM     10  C   UNL     1       2.893  -0.686   0.819  0.00  0.00    +0.000 C 
ATOM     11  O   UNL     1       2.237   0.374   0.132  0.00  0.00    +0.000 OA
ENDBRANCH   4  11
ENDBRANCH   2   7
ENDBRANCH   1   2
BRANCH   1  12
ATOM     12  O   UNL     1       5.053   5.932  -4.393  0.00  0.00    +0.000 OA
BRANCH  12  13
ATOM     13  C   UNL     1       4.626   7.235  -4.343  0.00  0.00    +0.000 A 
ATOM     14  C   UNL     1       3.628   7.727  -3.497  0.00  0.00    +0.000 A 
ATOM     15  C   UNL     1       3.292   9.082  -3.512  0.00  0.00    +0.000 A 
ATOM     16  C   UNL     1       3.948   9.965  -4.377  0.00  0.00    +0.000 A 
ATOM     17  C   UNL     1       4.936   9.472  -5.235  0.00  0.00    +0.000 A 
ATOM     18 CL   UNL     1       5.781  10.500  -6.339  0.00  0.00    +0.000 Cl
ATOM     19  C   UNL     1       5.270   8.112  -5.218  0.00  0.00    +0.000 A 
BRANCH  16  20
ATOM     20  C   UNL     1       3.582  11.351  -4.344  0.00  0.00    +0.000 C 
ATOM     21  N   UNL     1       3.258  12.463  -4.276  0.00  0.00    +0.000 NA
ENDBRANCH  16  20
ENDBRANCH  12  13
ENDBRANCH   1  12
TORSDOF 6
