REMARK  Name = 
REMARK  5 active torsions:
REMARK  status: ('A' for Active; 'I' for Inactive)
REMARK    1  A    between atoms: C_2  and  C_4
REMARK    2  A    between atoms: N_8  and  C_9
REMARK    3  A    between atoms: C_9  and  C_10
REMARK    4  A    between atoms: C_10  and  C_13
REMARK    5  A    between atoms: C_17  and  C_18
REMARK                            x       y       z     vdW  Elec       q    Type
REMARK                         _______ _______ _______ _____ _____    ______ ____
ROOT
ATOM      1  C   UNL     1       6.056   3.924   5.806  0.00  0.00    +0.000 C 
ATOM      2  F   UNL     1       7.259   3.299   5.600  0.00  0.00    +0.000 F 
ATOM      3  F   UNL     1       6.226   5.182   5.291  0.00  0.00    +0.000 F 
ENDROOT
BRANCH   1   4
ATOM      4  C   UNL     1       5.689   3.973   7.275  0.00  0.00    +0.000 A 
ATOM      5  C   UNL     1       6.050   2.945   8.152  0.00  0.00    +0.000 A 
ATOM      6  C   UNL     1       5.706   3.024   9.499  0.00  0.00    +0.000 A 
ATOM      7  C   UNL     1       5.012   4.137   9.983  0.00  0.00    +0.000 A 
ATOM      8  C   UNL     1       4.654   5.205   9.143  0.00  0.00    +0.000 A 
ATOM      9  C   UNL     1       4.990   5.087   7.782  0.00  0.00    +0.000 A 
BRANCH   8  10
ATOM     10  C   UNL     1       3.977   6.415   9.670  0.00  0.00    +0.000 A 
ATOM     11  C   UNL     1       3.056   7.146   8.894  0.00  0.00    +0.000 A 
ATOM     12  C   UNL     1       2.419   8.286   9.397  0.00  0.00    +0.000 A 
ATOM     13  C   UNL     1       2.684   8.707  10.692  0.00  0.00    +0.000 A 
ATOM     14  F   UNL     1       2.048   9.789  11.163  0.00  0.00    +0.000 F 
ATOM     15  C   UNL     1       3.594   8.015  11.481  0.00  0.00    +0.000 A 
ATOM     16 CL   UNL     1       3.928   8.525  13.092  0.00  0.00    +0.000 Cl
ATOM     17  C   UNL     1       4.243   6.887  10.971  0.00  0.00    +0.000 A 
ENDBRANCH   8  10
ENDBRANCH   1   4
BRANCH   1  18
ATOM     18  C   UNL     1       4.989   3.181   4.962  0.00  0.00    +0.000 C 
BRANCH  18  23
ATOM     19  C   UNL     1       2.774   1.069   1.008  0.00  0.00    +0.000 A 
ATOM     20  C   UNL     1       3.873   1.730   0.472  0.00  0.00    +0.000 A 
ATOM     21  C   UNL     1       4.715   2.447   1.329  0.00  0.00    +0.000 A 
ATOM     22  C   UNL     1       4.452   2.479   2.698  0.00  0.00    +0.000 A 
ATOM     23  N   UNL     1       5.282   3.254   3.513  0.00  0.00    +0.000 N 
ATOM     24  N   UNL     1       3.379   1.852   3.221  0.00  0.00    +0.000 NA
ATOM     25  C   UNL     1       2.563   1.171   2.375  0.00  0.00    +0.000 A 
ATOM     26  H   UNL     1       6.264   3.082   3.311  0.00  0.00    +0.000 HD
BRANCH  19  28
ATOM     27  N   UNL     1       2.285  -0.247  -0.972  0.00  0.00    +0.000 N 
ATOM     28  C   UNL     1       1.813   0.299   0.191  0.00  0.00    +0.000 C 
ATOM     29  O   UNL     1       0.659   0.124   0.552  0.00  0.00    +0.000 OA
ATOM     30  H   UNL     1       1.649  -0.854  -1.475  0.00  0.00    +0.000 HD
ATOM     31  H   UNL     1       3.272  -0.334  -1.176  0.00  0.00    +0.000 HD
ENDBRANCH  19  28
ENDBRANCH  18  23
ENDBRANCH   1  18
TORSDOF 5
