REMARK  Name = 
REMARK  5 active torsions:
REMARK  status: ('A' for Active; 'I' for Inactive)
REMARK    1  A    between atoms: C_2  and  C_3
REMARK    2  A    between atoms: C_6  and  N_7
REMARK    3  A    between atoms: N_7  and  C_8
REMARK    4  A    between atoms: C_8  and  C_9
REMARK    5  A    between atoms: C_13  and  C_14
REMARK                            x       y       z     vdW  Elec       q    Type
REMARK                         _______ _______ _______ _____ _____    ______ ____
ROOT
ATOM      1  C   UNL     1       8.572  -0.814  -0.769  0.00  0.00    +0.000 C 
ATOM      2  C   UNL     1       7.755  -1.073   0.499  0.00  0.00    +0.000 C 
ATOM      3  C   UNL     1       7.125  -0.373  -0.652  0.00  0.00    +0.000 C 
ENDROOT
BRANCH   1   4
ATOM      4  C   UNL     1       9.618   0.297  -0.679  0.00  0.00    +0.000 A 
ATOM      5  C   UNL     1       9.670   1.327  -1.625  0.00  0.00    +0.000 A 
ATOM      6  C   UNL     1      10.461   2.453  -1.408  0.00  0.00    +0.000 A 
ATOM      7  C   UNL     1      11.260   2.545  -0.265  0.00  0.00    +0.000 A 
ATOM      8  C   UNL     1      11.327   1.494   0.662  0.00  0.00    +0.000 A 
ATOM      9  C   UNL     1      10.493   0.384   0.424  0.00  0.00    +0.000 A 
BRANCH   8  10
ATOM     10  C   UNL     1      12.217   1.530   1.848  0.00  0.00    +0.000 A 
ATOM     11  C   UNL     1      12.845   0.352   2.307  0.00  0.00    +0.000 A 
ATOM     12  C   UNL     1      13.676   0.347   3.433  0.00  0.00    +0.000 A 
ATOM     13  C   UNL     1      13.919   1.528   4.123  0.00  0.00    +0.000 A 
ATOM     14  C   UNL     1      13.325   2.710   3.690  0.00  0.00    +0.000 A 
ATOM     15  C   UNL     1      12.483   2.703   2.573  0.00  0.00    +0.000 A 
ATOM     16  F   UNL     1      11.916   3.868   2.223  0.00  0.00    +0.000 F 
ENDBRANCH   8  10
ENDBRANCH   1   4
BRANCH   1  17
ATOM     17  N   UNL     1       9.032  -2.018  -1.455  0.00  0.00    +0.000 N 
ATOM     18  H   UNL     1       9.900  -2.451  -1.155  0.00  0.00    +0.000 HD
BRANCH  17  22
ATOM     19  C   UNL     1       8.076  -3.666  -5.095  0.00  0.00    +0.000 A 
ATOM     20  C   UNL     1       9.173  -4.066  -4.354  0.00  0.00    +0.000 A 
ATOM     21  N   UNL     1       9.500  -3.494  -3.164  0.00  0.00    +0.000 NA
ATOM     22  C   UNL     1       8.705  -2.493  -2.718  0.00  0.00    +0.000 A 
ATOM     23  C   UNL     1       7.624  -2.083  -3.495  0.00  0.00    +0.000 A 
ATOM     24  N   UNL     1       7.280  -2.653  -4.688  0.00  0.00    +0.000 NA
BRANCH  19  26
ATOM     25  N   UNL     1       7.484  -4.920  -7.291  0.00  0.00    +0.000 NA
ATOM     26  C   UNL     1       7.731  -4.341  -6.317  0.00  0.00    +0.000 C 
ENDBRANCH  19  26
ENDBRANCH  17  22
ENDBRANCH   1  17
TORSDOF 5
