REMARK  Name = 
REMARK  3 active torsions:
REMARK  status: ('A' for Active; 'I' for Inactive)
REMARK    1  A    between atoms: C_2  and  C_4
REMARK    2  A    between atoms: N_8  and  C_9
REMARK    3  A    between atoms: C_9  and  C_10
REMARK                            x       y       z     vdW  Elec       q    Type
REMARK                         _______ _______ _______ _____ _____    ______ ____
ROOT
ATOM      1  C   UNL     1       3.630  -2.115   6.716  0.00  0.00    +0.000 A 
ATOM      2  C   UNL     1       3.954  -1.236   5.686  0.00  0.00    +0.000 A 
ATOM      3  C   UNL     1       4.417  -1.753   4.470  0.00  0.00    +0.000 A 
ATOM      4  C   UNL     1       4.581  -3.128   4.326  0.00  0.00    +0.000 A 
ATOM      5  N   UNL     1       4.890  -3.645   3.043  0.00  0.00    +0.000 N 
ATOM      6  N   UNL     1       4.336  -3.971   5.353  0.00  0.00    +0.000 NA
ATOM      7  C   UNL     1       3.864  -3.461   6.516  0.00  0.00    +0.000 A 
ATOM      8  H   UNL     1       4.048  -3.564   2.480  0.00  0.00    +0.000 HD
ENDROOT
BRANCH   1  10
ATOM      9  N   UNL     1       2.243  -0.556   7.959  0.00  0.00    +0.000 N 
ATOM     10  C   UNL     1       3.028  -1.687   7.988  0.00  0.00    +0.000 C 
ATOM     11  O   UNL     1       3.142  -2.340   9.014  0.00  0.00    +0.000 OA
ATOM     12  H   UNL     1       1.709  -0.368   8.795  0.00  0.00    +0.000 HD
ATOM     13  H   UNL     1       1.921  -0.149   7.093  0.00  0.00    +0.000 HD
ENDBRANCH   1  10
BRANCH   5  14
ATOM     14  C   UNL     1       5.549  -4.972   2.963  0.00  0.00    +0.000 C 
ATOM     15  C   UNL     1       4.978  -6.126   2.132  0.00  0.00    +0.000 C 
ATOM     16  C   UNL     1       4.852  -6.159   3.610  0.00  0.00    +0.000 C 
BRANCH  14  17
ATOM     17  C   UNL     1       7.058  -4.881   2.749  0.00  0.00    +0.000 A 
ATOM     18  C   UNL     1       7.985  -5.395   3.665  0.00  0.00    +0.000 A 
ATOM     19  C   UNL     1       9.337  -5.522   3.327  0.00  0.00    +0.000 A 
ATOM     20  C   UNL     1       9.791  -5.107   2.078  0.00  0.00    +0.000 A 
ATOM     21  C   UNL     1       8.901  -4.518   1.189  0.00  0.00    +0.000 A 
ATOM     22 CL   UNL     1       9.448  -4.012  -0.364  0.00  0.00    +0.000 Cl
ATOM     23  C   UNL     1       7.557  -4.391   1.522  0.00  0.00    +0.000 A 
ENDBRANCH  14  17
ENDBRANCH   5  14
TORSDOF 3
