REMARK  Name = 
REMARK  7 active torsions:
REMARK  status: ('A' for Active; 'I' for Inactive)
REMARK    1  A    between atoms: C_1  and  O_2
REMARK    2  A    between atoms: O_2  and  C_3
REMARK    3  A    between atoms: C_6  and  C_7
REMARK    4  A    between atoms: C_7  and  C_8
REMARK    5  A    between atoms: C_11  and  C_12
REMARK    6  A    between atoms: C_12  and  N_13
REMARK    7  A    between atoms: C_14  and  C_16
REMARK                            x       y       z     vdW  Elec       q    Type
REMARK                         _______ _______ _______ _____ _____    ______ ____
ROOT
ATOM      1  C   UNL     1       2.848   4.363   8.418  0.00  0.00    +0.000 C 
ENDROOT
BRANCH   1   5
ATOM      2  C   UNL     1       4.668   3.893   4.588  0.00  0.00    +0.000 A 
ATOM      3  C   UNL     1       4.579   2.792   5.440  0.00  0.00    +0.000 A 
ATOM      4  C   UNL     1       3.995   2.934   6.695  0.00  0.00    +0.000 A 
ATOM      5  C   UNL     1       3.525   4.185   7.082  0.00  0.00    +0.000 A 
ATOM      6  N   UNL     1       3.607   5.273   6.275  0.00  0.00    +0.000 NA
ATOM      7  C   UNL     1       4.165   5.103   5.056  0.00  0.00    +0.000 A 
BRANCH   2   8
ATOM      8  C   UNL     1       5.241   3.769   3.204  0.00  0.00    +0.000 C 
BRANCH   8  12
ATOM      9  C   UNL     1       2.312   3.055   0.213  0.00  0.00    +0.000 A 
ATOM     10  C   UNL     1       2.872   1.954   0.838  0.00  0.00    +0.000 A 
ATOM     11  C   UNL     1       3.831   2.169   1.825  0.00  0.00    +0.000 A 
ATOM     12  C   UNL     1       4.204   3.476   2.152  0.00  0.00    +0.000 A 
ATOM     13  C   UNL     1       3.562   4.510   1.477  0.00  0.00    +0.000 A 
ATOM     14  N   UNL     1       2.631   4.330   0.516  0.00  0.00    +0.000 NA
BRANCH   9  16
ATOM     15  C   UNL     1       0.871   3.988  -1.368  0.00  0.00    +0.000 C 
ATOM     16  O   UNL     1       1.386   2.798  -0.779  0.00  0.00    +0.000 OA
ENDBRANCH   9  16
ENDBRANCH   8  12
ENDBRANCH   2   8
ENDBRANCH   1   5
BRANCH   1  17
ATOM     17  N   UNL     1       1.419   4.152   8.338  0.00  0.00    +0.000 N 
ATOM     18  C   UNL     1       0.832   2.965   8.686  0.00  0.00    +0.000 C 
ATOM     19  O   UNL     1       1.491   2.006   9.082  0.00  0.00    +0.000 OA
ATOM     20  H   UNL     1       0.900   4.835   7.795  0.00  0.00    +0.000 HD
BRANCH  18  21
ATOM     21  C   UNL     1      -0.636   2.913   8.636  0.00  0.00    +0.000 A 
ATOM     22  C   UNL     1      -1.311   1.966   9.396  0.00  0.00    +0.000 A 
ATOM     23  S   UNL     1      -3.008   2.064   9.268  0.00  0.00    +0.000 S 
ATOM     24  C   UNL     1      -2.903   3.347   8.156  0.00  0.00    +0.000 A 
ATOM     25  N   UNL     1      -4.025   3.895   7.616  0.00  0.00    +0.000 NA
ATOM     26  C   UNL     1      -3.800   4.835   6.760  0.00  0.00    +0.000 A 
ATOM     27  N   UNL     1      -2.555   5.287   6.406  0.00  0.00    +0.000 N 
ATOM     28  C   UNL     1      -1.399   4.802   6.968  0.00  0.00    +0.000 A 
ATOM     29  O   UNL     1      -0.307   5.292   6.701  0.00  0.00    +0.000 OA
ATOM     30  C   UNL     1      -1.592   3.714   7.906  0.00  0.00    +0.000 A 
ATOM     31  H   UNL     1      -2.446   6.042   5.745  0.00  0.00    +0.000 HD
ENDBRANCH  18  21
ENDBRANCH   1  17
TORSDOF 6
