REMARK  Name = 
REMARK  11 active torsions:
REMARK  status: ('A' for Active; 'I' for Inactive)
REMARK    1  A    between atoms: C_1  and  C_2
REMARK    2  A    between atoms: C_2  and  N_3
REMARK    3  A    between atoms: C_2  and  C_21
REMARK    4  A    between atoms: N_3  and  C_4
REMARK    5  A    between atoms: C_4  and  C_5
REMARK    6  A    between atoms: C_8  and  C_9
REMARK    7  A    between atoms: C_9  and  N_10
REMARK    8  A    between atoms: N_10  and  C_11
REMARK    9  A    between atoms: C_11  and  C_12
REMARK   10  A    between atoms: C_11  and  C_13
REMARK   11  A    between atoms: C_11  and  C_14
REMARK                            x       y       z     vdW  Elec       q    Type
REMARK                         _______ _______ _______ _____ _____    ______ ____
ROOT
ATOM      1  C   UNL     1       3.100  -3.552   0.647  0.00  0.00    +0.000 A 
ATOM      2  C   UNL     1       4.467  -3.801   0.468  0.00  0.00    +0.000 A 
ATOM      3  C   UNL     1       4.934  -5.107   0.308  0.00  0.00    +0.000 A 
ATOM      4  C   UNL     1       4.043  -6.188   0.321  0.00  0.00    +0.000 A 
ATOM      5  C   UNL     1       2.680  -5.943   0.526  0.00  0.00    +0.000 A 
ATOM      6  C   UNL     1       2.213  -4.638   0.680  0.00  0.00    +0.000 A 
ENDROOT
BRANCH   1   7
ATOM      7  C   UNL     1       2.578  -2.150   0.851  0.00  0.00    +0.000 C 
BRANCH   7   8
ATOM      8  N   UNL     1       2.802  -1.296  -0.320  0.00  0.00    +0.000 NA
ATOM      9  H   UNL     1       3.804  -1.237  -0.482  0.00  0.00    +0.000 HD
BRANCH   8  11
ATOM     10  C   UNL     1       0.768   0.104   0.071  0.00  0.00    +0.000 C 
ATOM     11  C   UNL     1       2.294   0.067  -0.099  0.00  0.00    +0.000 C 
BRANCH  11  12
ATOM     12  C   UNL     1       2.686   0.944  -1.275  0.00  0.00    +0.000 A 
ATOM     13  C   UNL     1       2.820   0.531  -2.593  0.00  0.00    +0.000 A 
ATOM     14  S   UNL     1       3.144   1.817  -3.672  0.00  0.00    +0.000 S 
ATOM     15  C   UNL     1       3.085   2.968  -2.418  0.00  0.00    +0.000 A 
ATOM     16  N   UNL     1       3.212   4.300  -2.665  0.00  0.00    +0.000 NA
ATOM     17  C   UNL     1       3.114   5.045  -1.614  0.00  0.00    +0.000 A 
ATOM     18  N   UNL     1       2.927   4.582  -0.335  0.00  0.00    +0.000 N 
ATOM     19  C   UNL     1       2.820   3.246  -0.031  0.00  0.00    +0.000 A 
ATOM     20  O   UNL     1       2.689   2.860   1.125  0.00  0.00    +0.000 OA
ATOM     21  C   UNL     1       2.877   2.372  -1.189  0.00  0.00    +0.000 A 
ATOM     22  H   UNL     1       2.880   5.219   0.446  0.00  0.00    +0.000 HD
ENDBRANCH  11  12
ENDBRANCH   8  11
ENDBRANCH   7   8
ENDBRANCH   1   7
BRANCH   4  23
ATOM     23  C   UNL     1       4.540  -7.599   0.115  0.00  0.00    +0.000 C 
BRANCH  23  24
ATOM     24  N   UNL     1       4.877  -8.232   1.388  0.00  0.00    +0.000 NA
ATOM     25  H   UNL     1       4.063  -8.173   2.000  0.00  0.00    +0.000 HD
BRANCH  24  26
ATOM     26  C   UNL     1       5.319  -9.644   1.314  0.00  0.00    +0.000 C 
ATOM     27  C   UNL     1       4.204 -10.514   0.689  0.00  0.00    +0.000 C 
ATOM     28  C   UNL     1       6.604  -9.764   0.467  0.00  0.00    +0.000 C 
BRANCH  26  29
ATOM     29  C   UNL     1       5.649 -10.107   2.740  0.00  0.00    +0.000 A 
ATOM     30  C   UNL     1       6.102  -9.361   3.818  0.00  0.00    +0.000 A 
ATOM     31  N   UNL     1       6.334 -10.049   4.995  0.00  0.00    +0.000 NA
ATOM     32  C   UNL     1       6.082 -11.323   4.803  0.00  0.00    +0.000 A 
ATOM     33  S   UNL     1       5.576 -11.763   3.232  0.00  0.00    +0.000 S 
ENDBRANCH  26  29
ENDBRANCH  24  26
ENDBRANCH  23  24
ENDBRANCH   4  23
TORSDOF 8
