REMARK  Name = 
REMARK  8 active torsions:
REMARK  status: ('A' for Active; 'I' for Inactive)
REMARK    1  A    between atoms: C_1  and  O_2
REMARK    2  A    between atoms: O_2  and  C_3
REMARK    3  A    between atoms: C_10  and  C_11
REMARK    4  A    between atoms: N_13  and  C_14
REMARK    5  A    between atoms: C_14  and  C_15
REMARK    6  A    between atoms: C_18  and  N_19
REMARK    7  A    between atoms: N_19  and  C_20
REMARK    8  A    between atoms: C_20  and  C_21
REMARK                            x       y       z     vdW  Elec       q    Type
REMARK                         _______ _______ _______ _____ _____    ______ ____
ROOT
ATOM      1  C   UNL     1       2.767   1.024  -3.220  0.00  0.00    +0.000 C 
ENDROOT
BRANCH   1   2
ATOM      2  C   UNL     1       1.611   0.059  -3.213  0.00  0.00    +0.000 A 
ATOM      3  C   UNL     1       1.835  -1.321  -3.247  0.00  0.00    +0.000 A 
ATOM      4  C   UNL     1       0.761  -2.221  -3.213  0.00  0.00    +0.000 A 
ATOM      5  C   UNL     1      -0.565  -1.776  -3.174  0.00  0.00    +0.000 A 
ATOM      6  C   UNL     1      -0.777  -0.390  -3.175  0.00  0.00    +0.000 A 
ATOM      7  C   UNL     1       0.292   0.515  -3.205  0.00  0.00    +0.000 A 
BRANCH   5   8
ATOM      8  N   UNL     1      -1.661  -2.610  -2.993  0.00  0.00    +0.000 N 
ATOM      9  H   UNL     1      -2.503  -2.288  -3.464  0.00  0.00    +0.000 HD
BRANCH   8  10
ATOM     10  C   UNL     1      -1.555  -4.052  -2.825  0.00  0.00    +0.000 C 
BRANCH  10  11
ATOM     11  C   UNL     1      -2.752  -4.567  -1.997  0.00  0.00    +0.000 C 
ATOM     12  C   UNL     1      -2.790  -3.966  -0.577  0.00  0.00    +0.000 C 
ATOM     13  C   UNL     1      -1.749  -4.581   0.358  0.00  0.00    +0.000 C 
ATOM     14  N   UNL     1      -1.856  -6.040   0.416  0.00  0.00    +0.000 NA
ATOM     15  F   UNL     1      -3.045  -6.422   0.994  0.00  0.00    +0.000 F 
ATOM     16  C   UNL     1      -1.707  -6.635  -0.911  0.00  0.00    +0.000 C 
ATOM     17  C   UNL     1      -2.743  -6.102  -1.904  0.00  0.00    +0.000 C 
ENDBRANCH  10  11
ENDBRANCH   8  10
ENDBRANCH   5   8
ENDBRANCH   1   2
BRANCH   1  20
ATOM     18  C   UNL     1       4.257   2.123  -4.835  0.00  0.00    +0.000 C 
ATOM     19  O   UNL     1       4.926   2.619  -3.931  0.00  0.00    +0.000 OA
ATOM     20  N   UNL     1       3.176   1.332  -4.566  0.00  0.00    +0.000 N 
ATOM     21  H   UNL     1       2.592   0.996  -5.319  0.00  0.00    +0.000 HD
BRANCH  18  29
ATOM     22  C   UNL     1       2.947   0.959  -7.799  0.00  0.00    +0.000 A 
ATOM     23  N   UNL     1       2.664   0.639  -9.077  0.00  0.00    +0.000 NA
ATOM     24  C   UNL     1       3.421   1.170 -10.041  0.00  0.00    +0.000 A 
ATOM     25  N   UNL     1       4.447   2.001  -9.886  0.00  0.00    +0.000 NA
ATOM     26  C   UNL     1       4.696   2.294  -8.598  0.00  0.00    +0.000 A 
ATOM     27  S   UNL     1       5.970   3.348  -8.212  0.00  0.00    +0.000 S 
ATOM     28  C   UNL     1       5.657   3.196  -6.549  0.00  0.00    +0.000 A 
ATOM     29  C   UNL     1       4.591   2.354  -6.251  0.00  0.00    +0.000 A 
ATOM     30  C   UNL     1       4.008   1.825  -7.483  0.00  0.00    +0.000 A 
BRANCH  22  32
ATOM     31  C   UNL     1       1.458  -0.742  -7.182  0.00  0.00    +0.000 C 
ATOM     32  O   UNL     1       2.125   0.461  -6.808  0.00  0.00    +0.000 OA
ENDBRANCH  22  32
ENDBRANCH  18  29
ENDBRANCH   1  20
TORSDOF 7
