REMARK  Name = 
REMARK  4 active torsions:
REMARK  status: ('A' for Active; 'I' for Inactive)
REMARK    1  A    between atoms: C_2  and  C_4
REMARK    2  A    between atoms: C_7  and  N_8
REMARK    3  A    between atoms: N_8  and  C_9
REMARK    4  A    between atoms: C_9  and  C_10
REMARK                            x       y       z     vdW  Elec       q    Type
REMARK                         _______ _______ _______ _____ _____    ______ ____
ROOT
ATOM      1  C   UNL     1       3.185  -0.905  -0.748  0.00  0.00    +0.000 A 
ATOM      2  C   UNL     1       2.851  -1.119  -2.088  0.00  0.00    +0.000 A 
ATOM      3  C   UNL     1       3.624  -1.983  -2.874  0.00  0.00    +0.000 A 
ATOM      4  C   UNL     1       4.746  -2.630  -2.345  0.00  0.00    +0.000 A 
ATOM      5  C   UNL     1       5.033  -2.447  -0.986  0.00  0.00    +0.000 A 
ATOM      6  C   UNL     1       4.280  -1.572  -0.198  0.00  0.00    +0.000 A 
ENDROOT
BRANCH   1   8
ATOM      7  N   UNL     1       1.110   0.247  -0.194  0.00  0.00    +0.000 N 
ATOM      8  C   UNL     1       2.426   0.039   0.112  0.00  0.00    +0.000 C 
ATOM      9  O   UNL     1       2.941   0.589   1.079  0.00  0.00    +0.000 OA
ATOM     10  H   UNL     1       0.584   0.805   0.466  0.00  0.00    +0.000 HD
ATOM     11  H   UNL     1       0.595  -0.375  -0.800  0.00  0.00    +0.000 HD
ENDBRANCH   1   8
BRANCH   4  12
ATOM     12  N   UNL     1       5.563  -3.498  -3.067  0.00  0.00    +0.000 N 
ATOM     13  H   UNL     1       5.370  -4.479  -2.860  0.00  0.00    +0.000 HD
BRANCH  12  14
ATOM     14  C   UNL     1       5.712  -3.300  -4.515  0.00  0.00    +0.000 C 
BRANCH  14  15
ATOM     15  C   UNL     1       6.663  -4.315  -5.136  0.00  0.00    +0.000 A 
ATOM     16  N   UNL     1       6.630  -5.587  -4.674  0.00  0.00    +0.000 NA
ATOM     17  C   UNL     1       7.468  -6.460  -5.264  0.00  0.00    +0.000 A 
ATOM     18  C   UNL     1       8.307  -6.127  -6.301  0.00  0.00    +0.000 A 
ATOM     19  C   UNL     1       8.244  -4.820  -6.719  0.00  0.00    +0.000 A 
ATOM     20  N   UNL     1       7.433  -3.900  -6.166  0.00  0.00    +0.000 NA
ENDBRANCH  14  15
ENDBRANCH  12  14
ENDBRANCH   4  12
TORSDOF 4
