REMARK  Name = 
REMARK  5 active torsions:
REMARK  status: ('A' for Active; 'I' for Inactive)
REMARK    1  A    between atoms: C_2  and  C_3
REMARK    2  A    between atoms: C_6  and  N_7
REMARK    3  A    between atoms: N_7  and  C_8
REMARK    4  A    between atoms: C_8  and  C_9
REMARK    5  A    between atoms: C_13  and  C_14
REMARK                            x       y       z     vdW  Elec       q    Type
REMARK                         _______ _______ _______ _____ _____    ______ ____
ROOT
ATOM      1  C   UNL     1       5.993  -1.012   0.383  0.00  0.00    +0.000 A 
ATOM      2  C   UNL     1       6.874  -2.082   0.461  0.00  0.00    +0.000 A 
ATOM      3  N   UNL     1       8.211  -1.953   0.581  0.00  0.00    +0.000 NA
ATOM      4  C   UNL     1       8.701  -0.688   0.618  0.00  0.00    +0.000 A 
ATOM      5  C   UNL     1       7.937   0.475   0.527  0.00  0.00    +0.000 A 
ATOM      6  C   UNL     1       6.552   0.278   0.390  0.00  0.00    +0.000 A 
ENDROOT
BRANCH   5   7
ATOM      7  C   UNL     1       8.542   1.823   0.574  0.00  0.00    +0.000 A 
ATOM      8  C   UNL     1       9.818   2.097   0.060  0.00  0.00    +0.000 A 
ATOM      9  C   UNL     1      10.362   3.380   0.143  0.00  0.00    +0.000 A 
ATOM     10  C   UNL     1       9.609   4.376   0.736  0.00  0.00    +0.000 A 
ATOM     11  N   UNL     1       8.378   4.173   1.242  0.00  0.00    +0.000 NA
ATOM     12  C   UNL     1       7.882   2.913   1.152  0.00  0.00    +0.000 A 
ENDBRANCH   5   7
BRANCH   1  13
ATOM     13  C   UNL     1       4.524  -1.264   0.161  0.00  0.00    +0.000 C 
BRANCH  13  14
ATOM     14  N   UNL     1       3.711  -0.191   0.716  0.00  0.00    +0.000 N 
ATOM     15  H   UNL     1       3.816  -0.074   1.721  0.00  0.00    +0.000 HD
BRANCH  14  19
ATOM     16  C   UNL     1      -0.106   0.872  -0.730  0.00  0.00    +0.000 A 
ATOM     17  C   UNL     1       0.563  -0.213  -1.296  0.00  0.00    +0.000 A 
ATOM     18  C   UNL     1       1.815  -0.602  -0.805  0.00  0.00    +0.000 A 
ATOM     19  C   UNL     1       2.418   0.064   0.269  0.00  0.00    +0.000 A 
ATOM     20  C   UNL     1       1.728   1.154   0.824  0.00  0.00    +0.000 A 
ATOM     21  C   UNL     1       0.479   1.556   0.335  0.00  0.00    +0.000 A 
BRANCH  16  23
ATOM     22  N   UNL     1      -2.400   1.621  -1.681  0.00  0.00    +0.000 NA
ATOM     23  C   UNL     1      -1.374   1.288  -1.252  0.00  0.00    +0.000 C 
ENDBRANCH  16  23
ENDBRANCH  14  19
ENDBRANCH  13  14
ENDBRANCH   1  13
TORSDOF 5
