REMARK  Name = 
REMARK  6 active torsions:
REMARK  status: ('A' for Active; 'I' for Inactive)
REMARK    1  A    between atoms: N_1  and  C_2
REMARK    2  A    between atoms: C_2  and  C_3
REMARK    3  A    between atoms: C_3  and  C_4
REMARK    4  A    between atoms: C_7  and  C_8
REMARK    5  A    between atoms: C_8  and  N_9
REMARK    6  A    between atoms: C_15  and  C_16
REMARK                            x       y       z     vdW  Elec       q    Type
REMARK                         _______ _______ _______ _____ _____    ______ ____
ROOT
ATOM      1  N   UNL     1       9.746  -0.962   0.945  0.00  0.00    +0.000 N 
ATOM      2  C   UNL     1      10.112  -2.118   1.601  0.00  0.00    +0.000 A 
ATOM      3  C   UNL     1      11.439  -2.354   1.326  0.00  0.00    +0.000 A 
ATOM      4  C   UNL     1      11.852  -1.412   0.347  0.00  0.00    +0.000 A 
ATOM      5  C   UNL     1      13.071  -1.158  -0.290  0.00  0.00    +0.000 A 
ATOM      6  N   UNL     1      13.152  -0.250  -1.290  0.00  0.00    +0.000 NA
ATOM      7  C   UNL     1      12.014   0.412  -1.659  0.00  0.00    +0.000 A 
ATOM      8  C   UNL     1      10.778   0.287  -1.029  0.00  0.00    +0.000 A 
ATOM      9  C   UNL     1      10.729  -0.642   0.018  0.00  0.00    +0.000 A 
ENDROOT
BRANCH   7  10
ATOM     10  C   UNL     1      12.170   1.310  -2.848  0.00  0.00    +0.000 C 
ATOM     11  N   UNL     1      13.439   1.377  -3.359  0.00  0.00    +0.000 N 
ATOM     12  O   UNL     1      11.234   1.931  -3.344  0.00  0.00    +0.000 OA
ATOM     13  H   UNL     1      14.164   0.801  -2.943  0.00  0.00    +0.000 HD
ATOM     14  H   UNL     1      13.620   1.910  -4.197  0.00  0.00    +0.000 HD
ENDBRANCH   7  10
BRANCH   1  15
ATOM     15  C   UNL     1       8.827   0.013   1.540  0.00  0.00    +0.000 C 
BRANCH  15  19
ATOM     16  C   UNL     1       4.604  -0.557   1.427  0.00  0.00    +0.000 A 
ATOM     17  C   UNL     1       5.202   0.184   0.412  0.00  0.00    +0.000 A 
ATOM     18  C   UNL     1       6.592   0.321   0.398  0.00  0.00    +0.000 A 
ATOM     19  C   UNL     1       7.360  -0.268   1.402  0.00  0.00    +0.000 A 
ATOM     20  C   UNL     1       6.676  -1.008   2.363  0.00  0.00    +0.000 A 
ATOM     21  N   UNL     1       5.330  -1.158   2.400  0.00  0.00    +0.000 NA
BRANCH  16  22
ATOM     22  C   UNL     1       3.103  -0.708   1.495  0.00  0.00    +0.000 C 
BRANCH  22  23
ATOM     23  C   UNL     1       2.446   0.390   2.339  0.00  0.00    +0.000 C 
BRANCH  23  24
ATOM     24  N   UNL     1       0.992   0.212   2.401  0.00  0.00    +0.000 NA
ATOM     25  H   UNL     1       0.588   0.942   2.989  0.00  0.00    +0.000 HD
ATOM     26  H   UNL     1       0.781  -0.669   2.871  0.00  0.00    +0.000 HD
ENDBRANCH  23  24
ENDBRANCH  22  23
ENDBRANCH  16  22
ENDBRANCH  15  19
ENDBRANCH   1  15
TORSDOF 6
