REMARK  Name = 
REMARK  6 active torsions:
REMARK  status: ('A' for Active; 'I' for Inactive)
REMARK    1  A    between atoms: C_1  and  C_2
REMARK    2  A    between atoms: C_9  and  C_10
REMARK    3  A    between atoms: C_10  and  N_11
REMARK    4  A    between atoms: N_11  and  C_12
REMARK    5  A    between atoms: C_15  and  C_16
REMARK    6  A    between atoms: C_25  and  C_26
REMARK                            x       y       z     vdW  Elec       q    Type
REMARK                         _______ _______ _______ _____ _____    ______ ____
ROOT
ATOM      1  C   UNL     1       2.346   4.525  -4.850  0.00  0.00    +0.000 C 
ATOM      2  C   UNL     1       2.708   4.714  -6.309  0.00  0.00    +0.000 C 
ATOM      3  C   UNL     1       3.773   4.287  -5.358  0.00  0.00    +0.000 C 
ENDROOT
BRANCH   1  12
ATOM      4  C   UNL     1       3.528  -1.304  -4.686  0.00  0.00    +0.000 C 
ATOM      5  C   UNL     1       3.575  -1.482  -3.170  0.00  0.00    +0.000 C 
ATOM      6  C   UNL     1       2.350  -0.903  -2.425  0.00  0.00    +0.000 C 
ATOM      7  N   UNL     1       2.420   0.553  -2.318  0.00  0.00    +0.000 N 
ATOM      8  C   UNL     1       1.718   1.298  -3.241  0.00  0.00    +0.000 A 
ATOM      9  N   UNL     1       0.613   0.811  -3.823  0.00  0.00    +0.000 NA
ATOM     10  C   UNL     1      -0.028   1.606  -4.701  0.00  0.00    +0.000 A 
ATOM     11  C   UNL     1       0.417   2.854  -5.060  0.00  0.00    +0.000 A 
ATOM     12  C   UNL     1       1.586   3.265  -4.459  0.00  0.00    +0.000 A 
ATOM     13  N   UNL     1       2.188   2.511  -3.521  0.00  0.00    +0.000 NA
ATOM     14  C   UNL     1       3.715   1.074  -1.853  0.00  0.00    +0.000 C 
ATOM     15  C   UNL     1       4.891   0.453  -2.634  0.00  0.00    +0.000 C 
ATOM     16  C   UNL     1       6.222   0.835  -1.992  0.00  0.00    +0.000 C 
ATOM     17  O   UNL     1       4.817  -0.985  -2.633  0.00  0.00    +0.000 OA
ENDBRANCH   1  12
BRANCH   1  18
ATOM     18  N   UNL     1       2.288   5.601  -3.836  0.00  0.00    +0.000 N 
ATOM     19  H   UNL     1       2.454   5.266  -2.885  0.00  0.00    +0.000 HD
BRANCH  18  20
ATOM     20  C   UNL     1       1.378   6.668  -3.875  0.00  0.00    +0.000 A 
ATOM     21  C   UNL     1       1.356   7.586  -2.816  0.00  0.00    +0.000 A 
ATOM     22  C   UNL     1       0.535   8.712  -2.873  0.00  0.00    +0.000 A 
ATOM     23  C   UNL     1      -0.238   8.892  -4.009  0.00  0.00    +0.000 A 
ATOM     24  N   UNL     1      -0.234   8.041  -5.074  0.00  0.00    +0.000 NA
ATOM     25  C   UNL     1       0.584   6.969  -4.977  0.00  0.00    +0.000 A 
BRANCH  23  26
ATOM     26  C   UNL     1      -1.146  10.079  -4.132  0.00  0.00    +0.000 C 
ATOM     27  N   UNL     1      -1.843  10.119  -5.307  0.00  0.00    +0.000 N 
ATOM     28  O   UNL     1      -1.260  10.935  -3.268  0.00  0.00    +0.000 OA
ATOM     29  H   UNL     1      -1.704   9.381  -5.991  0.00  0.00    +0.000 HD
ATOM     30  H   UNL     1      -2.484  10.875  -5.499  0.00  0.00    +0.000 HD
ENDBRANCH  23  26
ENDBRANCH  18  20
ENDBRANCH   1  18
TORSDOF 4
