REMARK  Name = 
REMARK  5 active torsions:
REMARK  status: ('A' for Active; 'I' for Inactive)
REMARK    1  A    between atoms: C_2  and  C_18
REMARK    2  A    between atoms: N_3  and  C_4
REMARK    3  A    between atoms: C_4  and  C_5
REMARK    4  A    between atoms: C_8  and  O_9
REMARK    5  A    between atoms: O_9  and  C_10
REMARK                            x       y       z     vdW  Elec       q    Type
REMARK                         _______ _______ _______ _____ _____    ______ ____
ROOT
ATOM      1  O   UNL     1       2.416   0.201  -2.829  0.00  0.00    +0.000 OA
ATOM      2  C   UNL     1       1.486  -0.594  -2.954  0.00  0.00    +0.000 C 
ATOM      3  N   UNL     1       1.354  -1.704  -2.163  0.00  0.00    +0.000 N 
ATOM      4  H   UNL     1       0.695  -2.425  -2.435  0.00  0.00    +0.000 HD
ENDROOT
BRANCH   2   5
ATOM      5  C   UNL     1       0.417  -0.375  -3.935  0.00  0.00    +0.000 A 
ATOM      6  C   UNL     1       0.172   0.904  -4.413  0.00  0.00    +0.000 A 
ATOM      7  S   UNL     1      -1.122   0.981  -5.522  0.00  0.00    +0.000 S 
ATOM      8  C   UNL     1      -1.365  -0.701  -5.440  0.00  0.00    +0.000 A 
ATOM      9  N   UNL     1      -2.325  -1.307  -6.190  0.00  0.00    +0.000 NA
ATOM     10  C   UNL     1      -2.371  -2.593  -6.063  0.00  0.00    +0.000 A 
ATOM     11  N   UNL     1      -1.550  -3.325  -5.244  0.00  0.00    +0.000 N 
ATOM     12  C   UNL     1      -0.621  -2.748  -4.414  0.00  0.00    +0.000 A 
ATOM     13  O   UNL     1      -0.002  -3.422  -3.594  0.00  0.00    +0.000 OA
ATOM     14  C   UNL     1      -0.493  -1.310  -4.556  0.00  0.00    +0.000 A 
ATOM     15  H   UNL     1      -1.659  -4.325  -5.166  0.00  0.00    +0.000 HD
ENDBRANCH   2   5
BRANCH   3  16
ATOM     16  C   UNL     1       2.362  -2.113  -1.219  0.00  0.00    +0.000 C 
BRANCH  16  17
ATOM     17  C   UNL     1       3.307  -3.105  -1.843  0.00  0.00    +0.000 A 
ATOM     18  C   UNL     1       4.446  -2.653  -2.520  0.00  0.00    +0.000 A 
ATOM     19  C   UNL     1       5.332  -3.561  -3.099  0.00  0.00    +0.000 A 
ATOM     20  C   UNL     1       5.119  -4.935  -2.961  0.00  0.00    +0.000 A 
ATOM     21  C   UNL     1       3.949  -5.392  -2.353  0.00  0.00    +0.000 A 
ATOM     22  C   UNL     1       3.042  -4.482  -1.802  0.00  0.00    +0.000 A 
BRANCH  20  23
ATOM     23  O   UNL     1       5.975  -5.901  -3.440  0.00  0.00    +0.000 OA
BRANCH  23  24
ATOM     24  C   UNL     1       7.334  -5.674  -3.428  0.00  0.00    +0.000 A 
ATOM     25  C   UNL     1       8.000  -4.907  -2.474  0.00  0.00    +0.000 A 
ATOM     26  C   UNL     1       9.364  -4.725  -2.620  0.00  0.00    +0.000 A 
ATOM     27  N   UNL     1      10.096  -5.295  -3.599  0.00  0.00    +0.000 NA
ATOM     28  C   UNL     1       9.435  -6.090  -4.468  0.00  0.00    +0.000 A 
ATOM     29  C   UNL     1       8.069  -6.309  -4.424  0.00  0.00    +0.000 A 
ENDBRANCH  23  24
ENDBRANCH  20  23
ENDBRANCH  16  17
ENDBRANCH   3  16
TORSDOF 5
