REMARK  Name = 
REMARK  4 active torsions:
REMARK  status: ('A' for Active; 'I' for Inactive)
REMARK    1  A    between atoms: C_2  and  C_4
REMARK    2  A    between atoms: N_8  and  C_9
REMARK    3  A    between atoms: C_9  and  C_10
REMARK    4  A    between atoms: C_14  and  N_15
REMARK                            x       y       z     vdW  Elec       q    Type
REMARK                         _______ _______ _______ _____ _____    ______ ____
ROOT
ATOM      1  C   UNL     1       3.004  -0.009   2.151  0.00  0.00    +0.000 A 
ATOM      2  C   UNL     1       2.674  -0.820   3.227  0.00  0.00    +0.000 A 
ATOM      3  C   UNL     1       3.575  -1.798   3.648  0.00  0.00    +0.000 A 
ATOM      4  C   UNL     1       4.795  -1.957   2.979  0.00  0.00    +0.000 A 
ATOM      5  N   UNL     1       5.780  -2.831   3.391  0.00  0.00    +0.000 N 
ATOM      6  N   UNL     1       5.113  -1.179   1.928  0.00  0.00    +0.000 NA
ATOM      7  C   UNL     1       4.222  -0.232   1.527  0.00  0.00    +0.000 A 
ATOM      8  H   UNL     1       6.540  -2.828   2.713  0.00  0.00    +0.000 HD
ENDROOT
BRANCH   1  10
ATOM      9  N   UNL     1       1.266   1.648   2.522  0.00  0.00    +0.000 N 
ATOM     10  C   UNL     1       2.107   1.043   1.626  0.00  0.00    +0.000 C 
ATOM     11  O   UNL     1       2.136   1.378   0.457  0.00  0.00    +0.000 OA
ATOM     12  H   UNL     1       0.731   2.432   2.169  0.00  0.00    +0.000 HD
ATOM     13  H   UNL     1       1.391   1.581   3.521  0.00  0.00    +0.000 HD
ENDBRANCH   1  10
BRANCH   5  14
ATOM     14  C   UNL     1       5.458  -4.095   4.023  0.00  0.00    +0.000 C 
BRANCH  14  15
ATOM     15  C   UNL     1       6.548  -4.597   4.940  0.00  0.00    +0.000 A 
ATOM     16  C   UNL     1       6.672  -5.970   5.122  0.00  0.00    +0.000 A 
ATOM     17  N   UNL     1       7.587  -6.558   5.925  0.00  0.00    +0.000 NA
ATOM     18  C   UNL     1       8.410  -5.721   6.589  0.00  0.00    +0.000 A 
ATOM     19  C   UNL     1       8.382  -4.325   6.532  0.00  0.00    +0.000 A 
ATOM     20  C   UNL     1       7.398  -3.774   5.691  0.00  0.00    +0.000 A 
BRANCH  19  21
ATOM     21  N   UNL     1       9.259  -3.557   7.259  0.00  0.00    +0.000 N 
ATOM     22  C   UNL     1       8.926  -2.218   7.758  0.00  0.00    +0.000 C 
ATOM     23  C   UNL     1       9.862  -1.162   7.160  0.00  0.00    +0.000 C 
ATOM     24  O   UNL     1      11.245  -1.513   7.343  0.00  0.00    +0.000 OA
ATOM     25  C   UNL     1      11.526  -2.769   6.704  0.00  0.00    +0.000 C 
ATOM     26  C   UNL     1      10.687  -3.909   7.305  0.00  0.00    +0.000 C 
ENDBRANCH  19  21
ENDBRANCH  14  15
ENDBRANCH   5  14
TORSDOF 4
