REMARK  Name = 
REMARK  9 active torsions:
REMARK  status: ('A' for Active; 'I' for Inactive)
REMARK    1  A    between atoms: C_1  and  O_2
REMARK    2  A    between atoms: O_2  and  C_3
REMARK    3  A    between atoms: C_3  and  C_5
REMARK    4  A    between atoms: N_9  and  C_10
REMARK    5  A    between atoms: C_10  and  C_11
REMARK    6  A    between atoms: C_11  and  C_12
REMARK    7  A    between atoms: C_11  and  C_13
REMARK    8  A    between atoms: C_17  and  C_18
REMARK    9  A    between atoms: C_18  and  N_19
REMARK                            x       y       z     vdW  Elec       q    Type
REMARK                         _______ _______ _______ _____ _____    ______ ____
ROOT
ATOM      1  C   UNL     1       9.621  -0.950  -0.403  0.00  0.00    +0.000 C 
ENDROOT
BRANCH   1   6
ATOM      2  C   UNL     1       4.705  -0.446  -1.050  0.00  0.00    +0.000 A 
ATOM      3  C   UNL     1       5.236  -0.469  -2.338  0.00  0.00    +0.000 A 
ATOM      4  C   UNL     1       6.623  -0.516  -2.502  0.00  0.00    +0.000 A 
ATOM      5  C   UNL     1       7.451  -0.566  -1.385  0.00  0.00    +0.000 A 
ATOM      6  N   UNL     1       8.837  -0.650  -1.603  0.00  0.00    +0.000 N 
ATOM      7  N   UNL     1       6.946  -0.541  -0.134  0.00  0.00    +0.000 NA
ATOM      8  C   UNL     1       5.598  -0.471   0.010  0.00  0.00    +0.000 A 
ATOM      9  H   UNL     1       9.143   0.183  -2.096  0.00  0.00    +0.000 HD
BRANCH   2  10
ATOM     10  C   UNL     1       3.255  -0.409  -0.763  0.00  0.00    +0.000 C 
ATOM     11  O   UNL     1       2.792  -0.335   0.365  0.00  0.00    +0.000 OA
BRANCH  10  13
ATOM     12  C   UNL     1       1.128  -0.459  -1.735  0.00  0.00    +0.000 C 
ATOM     13  O   UNL     1       2.546  -0.476  -1.916  0.00  0.00    +0.000 OA
ENDBRANCH  10  13
ENDBRANCH   2  10
ENDBRANCH   1   6
BRANCH   1  14
ATOM     14  C   UNL     1      11.139  -0.817  -0.669  0.00  0.00    +0.000 C 
ATOM     15  C   UNL     1      11.571   0.649  -0.787  0.00  0.00    +0.000 C 
BRANCH  14  16
ATOM     16  C   UNL     1      11.903  -1.547   0.428  0.00  0.00    +0.000 A 
ATOM     17  C   UNL     1      11.831  -1.143   1.769  0.00  0.00    +0.000 A 
ATOM     18  C   UNL     1      12.416  -1.913   2.774  0.00  0.00    +0.000 A 
ATOM     19  C   UNL     1      13.078  -3.099   2.455  0.00  0.00    +0.000 A 
ATOM     20  C   UNL     1      13.178  -3.518   1.123  0.00  0.00    +0.000 A 
ATOM     21  C   UNL     1      12.605  -2.722   0.117  0.00  0.00    +0.000 A 
BRANCH  20  22
ATOM     22  C   UNL     1      13.869  -4.810   0.769  0.00  0.00    +0.000 C 
BRANCH  22  23
ATOM     23  N   UNL     1      12.981  -5.706   0.035  0.00  0.00    +0.000 NA
ATOM     24  H   UNL     1      12.165  -5.903   0.615  0.00  0.00    +0.000 HD
ATOM     25  H   UNL     1      13.451  -6.595  -0.119  0.00  0.00    +0.000 HD
ENDBRANCH  22  23
ENDBRANCH  20  22
ENDBRANCH  14  16
ENDBRANCH   1  14
TORSDOF 7
