REMARK  Name = 
REMARK  7 active torsions:
REMARK  status: ('A' for Active; 'I' for Inactive)
REMARK    1  A    between atoms: C_2  and  C_3
REMARK    2  A    between atoms: C_6  and  N_7
REMARK    3  A    between atoms: N_7  and  C_8
REMARK    4  A    between atoms: C_8  and  C_9
REMARK    5  A    between atoms: C_9  and  C_12
REMARK    6  A    between atoms: C_16  and  O_17
REMARK    7  A    between atoms: O_17  and  C_18
REMARK                            x       y       z     vdW  Elec       q    Type
REMARK                         _______ _______ _______ _____ _____    ______ ____
ROOT
ATOM      1  C   UNL     1       6.020  -0.986   0.293  0.00  0.00    +0.000 C 
ATOM      2  F   UNL     1       6.421  -0.252  -0.789  0.00  0.00    +0.000 F 
ATOM      3  F   UNL     1       6.230  -0.169   1.373  0.00  0.00    +0.000 F 
ENDROOT
BRANCH   1   4
ATOM      4  C   UNL     1       6.794  -2.286   0.402  0.00  0.00    +0.000 A 
ATOM      5  C   UNL     1       7.229  -2.954  -0.750  0.00  0.00    +0.000 A 
ATOM      6  C   UNL     1       7.996  -4.118  -0.645  0.00  0.00    +0.000 A 
ATOM      7  C   UNL     1       8.331  -4.639   0.611  0.00  0.00    +0.000 A 
ATOM      8  C   UNL     1       7.877  -4.002   1.763  0.00  0.00    +0.000 A 
ATOM      9  C   UNL     1       7.115  -2.832   1.655  0.00  0.00    +0.000 A 
BRANCH   8  10
ATOM     10  O   UNL     1       8.154  -4.384   3.051  0.00  0.00    +0.000 OA
BRANCH  10  11
ATOM     11  C   UNL     1       8.541  -5.746   3.336  0.00  0.00    +0.000 C 
ATOM     12  C   UNL     1       7.480  -6.848   3.208  0.00  0.00    +0.000 C 
ATOM     13  O   UNL     1       7.701  -7.292   4.568  0.00  0.00    +0.000 OA
ATOM     14  C   UNL     1       8.514  -6.124   4.829  0.00  0.00    +0.000 C 
ENDBRANCH  10  11
ENDBRANCH   8  10
ENDBRANCH   1   4
BRANCH   1  15
ATOM     15  C   UNL     1       4.496  -1.239   0.179  0.00  0.00    +0.000 C 
BRANCH  15  16
ATOM     16  N   UNL     1       3.707   0.002   0.076  0.00  0.00    +0.000 N 
ATOM     17  H   UNL     1       4.102   0.802   0.573  0.00  0.00    +0.000 HD
BRANCH  16  21
ATOM     18  C   UNL     1      -0.488   0.016  -0.320  0.00  0.00    +0.000 A 
ATOM     19  C   UNL     1       0.191  -1.201  -0.201  0.00  0.00    +0.000 A 
ATOM     20  C   UNL     1       1.577  -1.215  -0.045  0.00  0.00    +0.000 A 
ATOM     21  C   UNL     1       2.318  -0.028   0.028  0.00  0.00    +0.000 A 
ATOM     22  C   UNL     1       1.621   1.183  -0.101  0.00  0.00    +0.000 A 
ATOM     23  C   UNL     1       0.232   1.209  -0.271  0.00  0.00    +0.000 A 
BRANCH  18  25
ATOM     24  N   UNL     1      -3.055   0.041  -0.658  0.00  0.00    +0.000 NA
ATOM     25  C   UNL     1      -1.903   0.028  -0.503  0.00  0.00    +0.000 C 
ENDBRANCH  18  25
ENDBRANCH  16  21
ENDBRANCH  15  16
ENDBRANCH   1  15
TORSDOF 7
