REMARK  Name = 
REMARK  7 active torsions:
REMARK  status: ('A' for Active; 'I' for Inactive)
REMARK    1  A    between atoms: C_1  and  C_2
REMARK    2  A    between atoms: C_2  and  O_3
REMARK    3  A    between atoms: C_11  and  C_12
REMARK    4  A    between atoms: C_12  and  C_13
REMARK    5  A    between atoms: C_13  and  N_14
REMARK    6  A    between atoms: N_14  and  C_15
REMARK    7  A    between atoms: C_19  and  C_20
REMARK                            x       y       z     vdW  Elec       q    Type
REMARK                         _______ _______ _______ _____ _____    ______ ____
ROOT
ATOM      1  C   UNL     1       5.984  -1.589  -0.052  0.00  0.00    +0.000 C 
ATOM      2  C   UNL     1       4.459  -1.525  -0.160  0.00  0.00    +0.000 C 
ATOM      3  C   UNL     1       3.947  -0.144   0.277  0.00  0.00    +0.000 C 
ATOM      4  C   UNL     1       2.438  -0.020   0.089  0.00  0.00    +0.000 C 
ATOM      5  F   UNL     1       1.820  -0.848   0.978  0.00  0.00    +0.000 F 
ATOM      6  C   UNL     1       2.006  -0.380  -1.333  0.00  0.00    +0.000 C 
ATOM      7  N   UNL     1       2.595  -1.639  -1.797  0.00  0.00    +0.000 N 
ATOM      8  C   UNL     1       1.769  -2.702  -2.103  0.00  0.00    +0.000 A 
ATOM      9  C   UNL     1       2.182  -3.693  -2.999  0.00  0.00    +0.000 A 
ATOM     10  C   UNL     1       1.356  -4.778  -3.312  0.00  0.00    +0.000 A 
ATOM     11  C   UNL     1       0.102  -4.821  -2.706  0.00  0.00    +0.000 A 
ATOM     12  C   UNL     1      -0.253  -3.801  -1.843  0.00  0.00    +0.000 A 
ATOM     13  N   UNL     1       0.544  -2.754  -1.545  0.00  0.00    +0.000 NA
ATOM     14  C   UNL     1       4.033  -1.844  -1.611  0.00  0.00    +0.000 C 
ENDROOT
BRANCH   2  15
ATOM     15  O   UNL     1       3.941  -2.528   0.723  0.00  0.00    +0.000 OA
ATOM     16  H   UNL     1       2.968  -2.535   0.600  0.00  0.00    +0.000 HD
ENDBRANCH   2  15
BRANCH  10  17
ATOM     17  C   UNL     1       1.873  -5.825  -4.279  0.00  0.00    +0.000 C 
BRANCH  17  18
ATOM     18  C   UNL     1       0.876  -6.950  -4.552  0.00  0.00    +0.000 C 
BRANCH  18  19
ATOM     19  N   UNL     1       1.398  -7.964  -5.471  0.00  0.00    +0.000 N 
ATOM     20  H   UNL     1       2.319  -8.301  -5.191  0.00  0.00    +0.000 HD
BRANCH  19  21
ATOM     21  C   UNL     1       0.520  -9.035  -5.737  0.00  0.00    +0.000 A 
ATOM     22  C   UNL     1       1.010 -10.300  -6.072  0.00  0.00    +0.000 A 
ATOM     23  N   UNL     1       0.241 -11.375  -6.387  0.00  0.00    +0.000 NA
ATOM     24  C   UNL     1      -1.096 -11.181  -6.407  0.00  0.00    +0.000 A 
ATOM     25  C   UNL     1      -1.693  -9.962  -6.137  0.00  0.00    +0.000 A 
ATOM     26  C   UNL     1      -0.871  -8.882  -5.817  0.00  0.00    +0.000 A 
BRANCH  25  27
ATOM     27  C   UNL     1      -3.114  -9.814  -6.188  0.00  0.00    +0.000 C 
ATOM     28  N   UNL     1      -4.264  -9.680  -6.218  0.00  0.00    +0.000 NA
ENDBRANCH  25  27
ENDBRANCH  19  21
ENDBRANCH  18  19
ENDBRANCH  17  18
ENDBRANCH  10  17
TORSDOF 6
