REMARK  Name = 
REMARK  8 active torsions:
REMARK  status: ('A' for Active; 'I' for Inactive)
REMARK    1  A    between atoms: C_1  and  C_2
REMARK    2  A    between atoms: C_2  and  C_3
REMARK    3  A    between atoms: C_2  and  C_4
REMARK    4  A    between atoms: C_2  and  C_15
REMARK    5  A    between atoms: C_4  and  N_5
REMARK    6  A    between atoms: N_5  and  C_6
REMARK    7  A    between atoms: C_9  and  C_10
REMARK    8  A    between atoms: C_19  and  C_20
REMARK                            x       y       z     vdW  Elec       q    Type
REMARK                         _______ _______ _______ _____ _____    ______ ____
ROOT
ATOM      1  C   UNL     1       1.049  -0.131  -0.035  0.00  0.00    +0.000 C 
ATOM      2  C   UNL     1       2.592  -0.086  -0.086  0.00  0.00    +0.000 C 
ATOM      3  C   UNL     1       3.058  -1.097  -1.161  0.00  0.00    +0.000 C 
ENDROOT
BRANCH   2   4
ATOM      4  C   UNL     1       3.139  -0.416   1.327  0.00  0.00    +0.000 A 
ATOM      5  C   UNL     1       3.896  -1.565   1.592  0.00  0.00    +0.000 A 
ATOM      6  C   UNL     1       4.407  -1.810   2.866  0.00  0.00    +0.000 A 
ATOM      7  C   UNL     1       4.185  -0.904   3.901  0.00  0.00    +0.000 A 
ATOM      8  C   UNL     1       3.450   0.272   3.693  0.00  0.00    +0.000 A 
ATOM      9  C   UNL     1       2.913   0.475   2.405  0.00  0.00    +0.000 A 
BRANCH   8  10
ATOM     10  C   UNL     1       3.296   1.282   4.768  0.00  0.00    +0.000 A 
ATOM     11  C   UNL     1       4.338   1.536   5.674  0.00  0.00    +0.000 A 
ATOM     12  C   UNL     1       4.178   2.506   6.653  0.00  0.00    +0.000 A 
ATOM     13  N   UNL     1       3.065   3.247   6.792  0.00  0.00    +0.000 NA
ATOM     14  C   UNL     1       2.069   3.006   5.918  0.00  0.00    +0.000 A 
ATOM     15  C   UNL     1       2.133   2.049   4.914  0.00  0.00    +0.000 A 
ENDBRANCH   8  10
ENDBRANCH   2   4
BRANCH   2  16
ATOM     16  C   UNL     1       3.106   1.333  -0.493  0.00  0.00    +0.000 C 
BRANCH  16  17
ATOM     17  N   UNL     1       2.657   1.765  -1.827  0.00  0.00    +0.000 N 
ATOM     18  H   UNL     1       1.655   1.641  -1.958  0.00  0.00    +0.000 HD
BRANCH  17  19
ATOM     19  C   UNL     1       3.049   3.054  -2.230  0.00  0.00    +0.000 A 
ATOM     20  C   UNL     1       2.248   3.763  -3.131  0.00  0.00    +0.000 A 
ATOM     21  C   UNL     1       2.628   5.032  -3.571  0.00  0.00    +0.000 A 
ATOM     22  C   UNL     1       3.833   5.549  -3.119  0.00  0.00    +0.000 A 
ATOM     23  N   UNL     1       4.678   4.881  -2.289  0.00  0.00    +0.000 NA
ATOM     24  C   UNL     1       4.268   3.651  -1.891  0.00  0.00    +0.000 A 
BRANCH  22  25
ATOM     25  C   UNL     1       4.267   6.917  -3.542  0.00  0.00    +0.000 C 
ATOM     26  N   UNL     1       5.469   7.329  -3.033  0.00  0.00    +0.000 N 
ATOM     27  O   UNL     1       3.597   7.626  -4.283  0.00  0.00    +0.000 OA
ATOM     28  H   UNL     1       5.986   6.709  -2.418  0.00  0.00    +0.000 HD
ATOM     29  H   UNL     1       5.826   8.244  -3.264  0.00  0.00    +0.000 HD
ENDBRANCH  22  25
ENDBRANCH  17  19
ENDBRANCH  16  17
ENDBRANCH   2  16
TORSDOF 6
