REMARK  Name = 
REMARK  5 active torsions:
REMARK  status: ('A' for Active; 'I' for Inactive)
REMARK    1  A    between atoms: C_2  and  C_3
REMARK    2  A    between atoms: C_6  and  N_7
REMARK    3  A    between atoms: N_7  and  C_8
REMARK    4  A    between atoms: C_8  and  C_9
REMARK    5  A    between atoms: C_13  and  C_14
REMARK                            x       y       z     vdW  Elec       q    Type
REMARK                         _______ _______ _______ _____ _____    ______ ____
ROOT
ATOM      1  C   UNL     1       8.722  -0.928  -0.052  0.00  0.00    +0.000 C 
ATOM      2  C   UNL     1       7.415  -1.211   0.686  0.00  0.00    +0.000 C 
ATOM      3  C   UNL     1       7.411  -0.299  -0.493  0.00  0.00    +0.000 C 
ENDROOT
BRANCH   1   4
ATOM      4  C   UNL     1       9.724   0.011   0.606  0.00  0.00    +0.000 A 
ATOM      5  C   UNL     1      10.287  -0.255   1.862  0.00  0.00    +0.000 A 
ATOM      6  C   UNL     1      11.107   0.679   2.492  0.00  0.00    +0.000 A 
ATOM      7  C   UNL     1      11.365   1.909   1.882  0.00  0.00    +0.000 A 
ATOM      8  C   UNL     1      10.823   2.227   0.628  0.00  0.00    +0.000 A 
ATOM      9  C   UNL     1      10.047   1.240  -0.002  0.00  0.00    +0.000 A 
BRANCH   8  10
ATOM     10  C   UNL     1      10.967   3.573   0.025  0.00  0.00    +0.000 A 
ATOM     11  C   UNL     1      11.046   3.759  -1.370  0.00  0.00    +0.000 A 
ATOM     12  C   UNL     1      11.104   5.040  -1.930  0.00  0.00    +0.000 A 
ATOM     13  C   UNL     1      11.101   6.151  -1.099  0.00  0.00    +0.000 A 
ATOM     14  F   UNL     1      11.158   7.378  -1.633  0.00  0.00    +0.000 F 
ATOM     15  C   UNL     1      11.029   6.007   0.278  0.00  0.00    +0.000 A 
ATOM     16  C   UNL     1      10.956   4.727   0.833  0.00  0.00    +0.000 A 
ENDBRANCH   8  10
ENDBRANCH   1   4
BRANCH   1  17
ATOM     17  N   UNL     1       9.311  -2.130  -0.656  0.00  0.00    +0.000 N 
ATOM     18  H   UNL     1       9.796  -2.743  -0.005  0.00  0.00    +0.000 HD
BRANCH  17  22
ATOM     19  C   UNL     1      10.416  -2.841  -4.572  0.00  0.00    +0.000 A 
ATOM     20  N   UNL     1       9.982  -1.593  -4.290  0.00  0.00    +0.000 NA
ATOM     21  C   UNL     1       9.644  -1.359  -2.995  0.00  0.00    +0.000 A 
ATOM     22  C   UNL     1       9.739  -2.288  -1.978  0.00  0.00    +0.000 A 
ATOM     23  C   UNL     1      10.184  -3.530  -2.414  0.00  0.00    +0.000 A 
ATOM     24  N   UNL     1      10.536  -3.838  -3.681  0.00  0.00    +0.000 NA
BRANCH  19  26
ATOM     25  N   UNL     1      11.014  -3.404  -7.046  0.00  0.00    +0.000 NA
ATOM     26  C   UNL     1      10.744  -3.135  -5.943  0.00  0.00    +0.000 C 
ENDBRANCH  19  26
ENDBRANCH  17  22
ENDBRANCH   1  17
TORSDOF 5
