REMARK  Name = 
REMARK  5 active torsions:
REMARK  status: ('A' for Active; 'I' for Inactive)
REMARK    1  A    between atoms: C_2  and  C_3
REMARK    2  A    between atoms: C_6  and  C_7
REMARK    3  A    between atoms: C_7  and  N_8
REMARK    4  A    between atoms: N_8  and  C_9
REMARK    5  A    between atoms: C_12  and  C_13
REMARK                            x       y       z     vdW  Elec       q    Type
REMARK                         _______ _______ _______ _____ _____    ______ ____
ROOT
ATOM      1  N   UNL     1       4.059   1.106   1.079  0.00  0.00    +0.000 N 
ATOM      2  H   UNL     1       4.032   0.880   2.068  0.00  0.00    +0.000 HD
ENDROOT
BRANCH   1   3
ATOM      3  C   UNL     1       4.320   2.452   0.799  0.00  0.00    +0.000 A 
ATOM      4  C   UNL     1       4.402   3.006  -0.481  0.00  0.00    +0.000 A 
ATOM      5  C   UNL     1       4.727   4.366  -0.650  0.00  0.00    +0.000 A 
ATOM      6  C   UNL     1       4.960   5.193   0.462  0.00  0.00    +0.000 A 
ATOM      7  C   UNL     1       4.862   4.651   1.740  0.00  0.00    +0.000 A 
ATOM      8  C   UNL     1       4.550   3.299   1.898  0.00  0.00    +0.000 A 
BRANCH   6   9
ATOM      9  C   UNL     1       5.371   6.604   0.245  0.00  0.00    +0.000 C 
ATOM     10  N   UNL     1       5.088   7.505   1.237  0.00  0.00    +0.000 N 
ATOM     11  O   UNL     1       5.940   6.956  -0.779  0.00  0.00    +0.000 OA
ATOM     12  H   UNL     1       4.531   7.296   2.052  0.00  0.00    +0.000 HD
ATOM     13  H   UNL     1       5.350   8.468   1.072  0.00  0.00    +0.000 HD
ENDBRANCH   6   9
ENDBRANCH   1   3
BRANCH   1  14
ATOM     14  C   UNL     1       3.738   0.006   0.162  0.00  0.00    +0.000 C 
ATOM     15  C   UNL     1       4.713  -0.558  -0.856  0.00  0.00    +0.000 C 
ATOM     16  C   UNL     1       4.524  -1.289   0.421  0.00  0.00    +0.000 C 
ATOM     17  F   UNL     1       5.558  -1.238   1.342  0.00  0.00    +0.000 F 
BRANCH  14  21
ATOM     18  C   UNL     1      -0.467  -0.655  -0.739  0.00  0.00    +0.000 A 
ATOM     19  C   UNL     1       0.270   0.258  -1.492  0.00  0.00    +0.000 A 
ATOM     20  C   UNL     1       1.610   0.503  -1.177  0.00  0.00    +0.000 A 
ATOM     21  C   UNL     1       2.245  -0.158  -0.110  0.00  0.00    +0.000 A 
ATOM     22  C   UNL     1       1.456  -1.016   0.678  0.00  0.00    +0.000 A 
ATOM     23  C   UNL     1       0.122  -1.283   0.359  0.00  0.00    +0.000 A 
BRANCH  18  25
ATOM     24  N   UNL     1      -2.906  -1.231  -1.400  0.00  0.00    +0.000 NA
ATOM     25  C   UNL     1      -1.816  -0.961  -1.101  0.00  0.00    +0.000 C 
ENDBRANCH  18  25
ENDBRANCH  14  21
ENDBRANCH   1  14
TORSDOF 5
