REMARK  Name = 
REMARK  6 active torsions:
REMARK  status: ('A' for Active; 'I' for Inactive)
REMARK    1  A    between atoms: C_2  and  C_25
REMARK    2  A    between atoms: N_3  and  C_4
REMARK    3  A    between atoms: C_4  and  C_5
REMARK    4  A    between atoms: C_8  and  C_9
REMARK    5  A    between atoms: C_9  and  N_10
REMARK    6  A    between atoms: C_11  and  C_13
REMARK                            x       y       z     vdW  Elec       q    Type
REMARK                         _______ _______ _______ _____ _____    ______ ____
ROOT
ATOM      1  C   UNL     1       3.333   2.048   2.930  0.00  0.00    +0.000 C 
ATOM      2  C   UNL     1       3.315   1.223   4.227  0.00  0.00    +0.000 C 
ATOM      3  C   UNL     1       4.079   1.916   5.354  0.00  0.00    +0.000 C 
ATOM      4  C   UNL     1       3.566   3.339   5.633  0.00  0.00    +0.000 C 
ATOM      5  C   UNL     1       3.582   4.165   4.338  0.00  0.00    +0.000 C 
ATOM      6  C   UNL     1       2.825   3.476   3.201  0.00  0.00    +0.000 C 
ENDROOT
BRANCH   1   7
ATOM      7  C   UNL     1       4.735   2.074   2.291  0.00  0.00    +0.000 C 
BRANCH   7  10
ATOM      8  O   UNL     1       4.352   0.878  -0.245  0.00  0.00    +0.000 OA
ATOM      9  C   UNL     1       4.942   0.258   0.630  0.00  0.00    +0.000 C 
ATOM     10  N   UNL     1       5.181   0.758   1.892  0.00  0.00    +0.000 N 
ATOM     11  H   UNL     1       5.617   0.128   2.559  0.00  0.00    +0.000 HD
BRANCH   9  12
ATOM     12  C   UNL     1       5.459  -1.125   0.386  0.00  0.00    +0.000 A 
ATOM     13  C   UNL     1       5.272  -1.697  -0.867  0.00  0.00    +0.000 A 
ATOM     14  C   UNL     1       5.760  -2.980  -1.085  0.00  0.00    +0.000 A 
ATOM     15  C   UNL     1       6.415  -3.641  -0.052  0.00  0.00    +0.000 A 
ATOM     16  C   UNL     1       6.561  -2.991   1.166  0.00  0.00    +0.000 A 
ATOM     17  N   UNL     1       6.097  -1.746   1.420  0.00  0.00    +0.000 NA
ENDBRANCH   9  12
ENDBRANCH   7  10
ENDBRANCH   1   7
BRANCH   4  18
ATOM     18  C   UNL     1       2.160   3.347   6.259  0.00  0.00    +0.000 C 
BRANCH  18  19
ATOM     19  N   UNL     1       2.132   2.675   7.538  0.00  0.00    +0.000 N 
ATOM     20  C   UNL     1       2.299   3.349   8.719  0.00  0.00    +0.000 C 
ATOM     21  O   UNL     1       2.463   4.566   8.765  0.00  0.00    +0.000 OA
ATOM     22  H   UNL     1       2.171   1.661   7.533  0.00  0.00    +0.000 HD
BRANCH  20  23
ATOM     23  C   UNL     1       2.207   2.547   9.940  0.00  0.00    +0.000 A 
ATOM     24  C   UNL     1       1.809   3.155  11.124  0.00  0.00    +0.000 A 
ATOM     25  S   UNL     1       1.752   2.092  12.452  0.00  0.00    +0.000 S 
ATOM     26  C   UNL     1       2.300   0.791  11.504  0.00  0.00    +0.000 A 
ATOM     27  N   UNL     1       2.517  -0.434  12.056  0.00  0.00    +0.000 NA
ATOM     28  C   UNL     1       2.981  -1.316  11.233  0.00  0.00    +0.000 A 
ATOM     29  N   UNL     1       3.228  -1.089   9.904  0.00  0.00    +0.000 N 
ATOM     30  C   UNL     1       2.925   0.101   9.285  0.00  0.00    +0.000 A 
ATOM     31  O   UNL     1       2.988   0.213   8.068  0.00  0.00    +0.000 OA
ATOM     32  C   UNL     1       2.479   1.150  10.179  0.00  0.00    +0.000 A 
ATOM     33  H   UNL     1       3.547  -1.835   9.304  0.00  0.00    +0.000 HD
ENDBRANCH  20  23
ENDBRANCH  18  19
ENDBRANCH   4  18
TORSDOF 6
