REMARK  Name = 
REMARK  6 active torsions:
REMARK  status: ('A' for Active; 'I' for Inactive)
REMARK    1  A    between atoms: C_2  and  C_18
REMARK    2  A    between atoms: N_3  and  C_4
REMARK    3  A    between atoms: C_4  and  C_5
REMARK    4  A    between atoms: C_8  and  C_9
REMARK    5  A    between atoms: C_9  and  N_10
REMARK    6  A    between atoms: N_10  and  C_11
REMARK                            x       y       z     vdW  Elec       q    Type
REMARK                         _______ _______ _______ _____ _____    ______ ____
ROOT
ATOM      1  C   UNL     1       2.310  -2.353  -0.501  0.00  0.00    +0.000 C 
ENDROOT
BRANCH   1   2
ATOM      2  C   UNL     1       3.257  -3.499  -0.746  0.00  0.00    +0.000 A 
ATOM      3  C   UNL     1       4.604  -3.251  -1.032  0.00  0.00    +0.000 A 
ATOM      4  C   UNL     1       5.496  -4.310  -1.226  0.00  0.00    +0.000 A 
ATOM      5  C   UNL     1       5.060  -5.641  -1.150  0.00  0.00    +0.000 A 
ATOM      6  C   UNL     1       3.702  -5.887  -0.906  0.00  0.00    +0.000 A 
ATOM      7  C   UNL     1       2.808  -4.826  -0.711  0.00  0.00    +0.000 A 
BRANCH   5   8
ATOM      8  C   UNL     1       6.038  -6.781  -1.350  0.00  0.00    +0.000 C 
BRANCH   8   9
ATOM      9  N   UNL     1       7.098  -6.742  -0.339  0.00  0.00    +0.000 NA
ATOM     10  H   UNL     1       6.660  -6.787   0.581  0.00  0.00    +0.000 HD
BRANCH   9  11
ATOM     11  C   UNL     1       8.130  -7.780  -0.445  0.00  0.00    +0.000 C 
ATOM     12  C   UNL     1       8.888  -7.823  -1.772  0.00  0.00    +0.000 C 
ATOM     13  C   UNL     1       8.409  -9.100  -2.433  0.00  0.00    +0.000 C 
ATOM     14  N   UNL     1       8.229 -10.041  -1.321  0.00  0.00    +0.000 NA
ATOM     15  C   UNL     1       7.664  -9.235  -0.225  0.00  0.00    +0.000 C 
ATOM     16  H   UNL     1       9.149 -10.379  -1.035  0.00  0.00    +0.000 HD
ENDBRANCH   9  11
ENDBRANCH   8   9
ENDBRANCH   5   8
ENDBRANCH   1   2
BRANCH   1  19
ATOM     17  O   UNL     1       2.993  -0.161  -2.146  0.00  0.00    +0.000 OA
ATOM     18  C   UNL     1       2.064  -0.892  -2.478  0.00  0.00    +0.000 C 
ATOM     19  N   UNL     1       1.645  -1.947  -1.711  0.00  0.00    +0.000 N 
ATOM     20  H   UNL     1       0.991  -2.615  -2.100  0.00  0.00    +0.000 HD
BRANCH  18  21
ATOM     21  C   UNL     1       1.296  -0.644  -3.707  0.00  0.00    +0.000 A 
ATOM     22  C   UNL     1       1.311   0.617  -4.288  0.00  0.00    +0.000 A 
ATOM     23  S   UNL     1       0.363   0.731  -5.701  0.00  0.00    +0.000 S 
ATOM     24  C   UNL     1      -0.070  -0.912  -5.610  0.00  0.00    +0.000 A 
ATOM     25  N   UNL     1      -0.859  -1.482  -6.560  0.00  0.00    +0.000 NA
ATOM     26  C   UNL     1      -1.076  -2.743  -6.389  0.00  0.00    +0.000 A 
ATOM     27  N   UNL     1      -0.586  -3.483  -5.345  0.00  0.00    +0.000 N 
ATOM     28  C   UNL     1       0.145  -2.935  -4.320  0.00  0.00    +0.000 A 
ATOM     29  O   UNL     1       0.440  -3.596  -3.332  0.00  0.00    +0.000 OA
ATOM     30  C   UNL     1       0.471  -1.530  -4.496  0.00  0.00    +0.000 A 
ATOM     31  H   UNL     1      -0.821  -4.461  -5.246  0.00  0.00    +0.000 HD
ENDBRANCH  18  21
ENDBRANCH   1  19
TORSDOF 6
