REMARK  Name = 
REMARK  9 active torsions:
REMARK  status: ('A' for Active; 'I' for Inactive)
REMARK    1  A    between atoms: N_1  and  C_2
REMARK    2  A    between atoms: C_2  and  C_3
REMARK    3  A    between atoms: C_3  and  N_4
REMARK    4  A    between atoms: N_4  and  C_5
REMARK    5  A    between atoms: C_5  and  C_6
REMARK    6  A    between atoms: C_9  and  C_10
REMARK    7  A    between atoms: C_11  and  C_12
REMARK    8  A    between atoms: C_12  and  C_13
REMARK    9  A    between atoms: C_20  and  C_22
REMARK                            x       y       z     vdW  Elec       q    Type
REMARK                         _______ _______ _______ _____ _____    ______ ____
ROOT
ATOM      1  N   UNL     1       4.618   0.143  -1.377  0.00  0.00    +0.000 N 
ATOM      2  C   UNL     1       5.070  -0.897  -2.234  0.00  0.00    +0.000 C 
ATOM      3  O   UNL     1       4.592  -0.958  -3.366  0.00  0.00    +0.000 OA
ENDROOT
BRANCH   2   4
ATOM      4  C   UNL     1       6.050  -1.946  -1.810  0.00  0.00    +0.000 A 
ATOM      5  C   UNL     1       6.475  -2.226  -0.525  0.00  0.00    +0.000 A 
ATOM      6  S   UNL     1       7.500  -3.570  -0.350  0.00  0.00    +0.000 S 
ATOM      7  C   UNL     1       7.408  -3.889  -2.007  0.00  0.00    +0.000 A 
ATOM      8  N   UNL     1       8.025  -4.991  -2.505  0.00  0.00    +0.000 NA
ATOM      9  C   UNL     1       7.855  -5.164  -3.764  0.00  0.00    +0.000 A 
ATOM     10  N   UNL     1       7.153  -4.315  -4.579  0.00  0.00    +0.000 N 
ATOM     11  C   UNL     1       6.630  -3.110  -4.146  0.00  0.00    +0.000 A 
ATOM     12  O   UNL     1       6.260  -2.277  -4.966  0.00  0.00    +0.000 OA
ATOM     13  C   UNL     1       6.669  -2.929  -2.696  0.00  0.00    +0.000 A 
ATOM     14  H   UNL     1       7.138  -4.462  -5.576  0.00  0.00    +0.000 HD
ENDBRANCH   2   4
BRANCH   1  15
ATOM     15  C   UNL     1       3.714   1.138  -2.010  0.00  0.00    +0.000 C 
BRANCH  15  16
ATOM     16  C   UNL     1       2.884   2.105  -1.128  0.00  0.00    +0.000 C 
BRANCH  16  17
ATOM     17  N   UNL     1       3.648   3.113  -0.385  0.00  0.00    +0.000 NA
ATOM     18  H   UNL     1       3.015   3.646   0.211  0.00  0.00    +0.000 HD
ATOM     19  H   UNL     1       4.081   3.774  -1.027  0.00  0.00    +0.000 HD
ENDBRANCH  16  17
ENDBRANCH  15  16
ENDBRANCH   1  15
BRANCH   1  20
ATOM     20  C   UNL     1       5.228   0.505  -0.100  0.00  0.00    +0.000 C 
BRANCH  20  21
ATOM     21  C   UNL     1       4.406   0.093   1.113  0.00  0.00    +0.000 A 
ATOM     22  C   UNL     1       3.902  -1.203   1.314  0.00  0.00    +0.000 A 
ATOM     23  C   UNL     1       3.140  -1.522   2.446  0.00  0.00    +0.000 A 
ATOM     24  C   UNL     1       2.807  -0.539   3.381  0.00  0.00    +0.000 A 
ATOM     25  C   UNL     1       3.320   0.748   3.198  0.00  0.00    +0.000 A 
ATOM     26  C   UNL     1       4.135   1.048   2.100  0.00  0.00    +0.000 A 
BRANCH  24  27
ATOM     27  C   UNL     1       1.842  -0.780   4.464  0.00  0.00    +0.000 C 
ATOM     28  C   UNL     1       1.652  -1.961   5.075  0.00  0.00    +0.000 C 
BRANCH  28  29
ATOM     29  C   UNL     1       0.608  -2.211   6.127  0.00  0.00    +0.000 C 
BRANCH  29  30
ATOM     30  C   UNL     1      -0.376  -3.276   5.760  0.00  0.00    +0.000 A 
ATOM     31  C   UNL     1      -0.640  -4.501   6.344  0.00  0.00    +0.000 A 
ATOM     32  C   UNL     1      -1.678  -5.116   5.604  0.00  0.00    +0.000 A 
ATOM     33  C   UNL     1      -2.019  -4.256   4.586  0.00  0.00    +0.000 A 
ATOM     34  N   UNL     1      -1.223  -3.145   4.684  0.00  0.00    +0.000 N 
ATOM     35  H   UNL     1      -1.242  -2.354   4.053  0.00  0.00    +0.000 HD
ENDBRANCH  29  30
ENDBRANCH  28  29
ENDBRANCH  24  27
ENDBRANCH  20  21
ENDBRANCH   1  20
TORSDOF 9
