REMARK  Name = 
REMARK  8 active torsions:
REMARK  status: ('A' for Active; 'I' for Inactive)
REMARK    1  A    between atoms: C_2  and  C_21
REMARK    2  A    between atoms: N_3  and  C_4
REMARK    3  A    between atoms: C_4  and  C_5
REMARK    4  A    between atoms: C_8  and  C_9
REMARK    5  A    between atoms: C_9  and  C_10
REMARK    6  A    between atoms: C_10  and  N_11
REMARK    7  A    between atoms: N_11  and  C_12
REMARK    8  A    between atoms: C_12  and  C_13
REMARK                            x       y       z     vdW  Elec       q    Type
REMARK                         _______ _______ _______ _____ _____    ______ ____
ROOT
ATOM      1  C   UNL     1       3.269   3.394  -1.218  0.00  0.00    +0.000 A 
ATOM      2  C   UNL     1       2.838   4.708  -1.072  0.00  0.00    +0.000 A 
ATOM      3  C   UNL     1       3.696   5.746  -1.430  0.00  0.00    +0.000 A 
ATOM      4  C   UNL     1       4.980   5.458  -1.901  0.00  0.00    +0.000 A 
ATOM      5  C   UNL     1       5.334   4.116  -1.984  0.00  0.00    +0.000 A 
ATOM      6  N   UNL     1       4.518   3.088  -1.650  0.00  0.00    +0.000 NA
ENDROOT
BRANCH   1   7
ATOM      7  C   UNL     1       2.338   2.252  -0.883  0.00  0.00    +0.000 C 
BRANCH   7  10
ATOM      8  O   UNL     1       0.730   0.338   0.321  0.00  0.00    +0.000 OA
ATOM      9  C   UNL     1       1.574   0.908   1.008  0.00  0.00    +0.000 C 
ATOM     10  N   UNL     1       2.361   1.921   0.520  0.00  0.00    +0.000 N 
ATOM     11  H   UNL     1       3.222   2.146   1.008  0.00  0.00    +0.000 HD
BRANCH   9  12
ATOM     12  C   UNL     1       1.754   0.589   2.428  0.00  0.00    +0.000 A 
ATOM     13  C   UNL     1       0.696   0.095   3.179  0.00  0.00    +0.000 A 
ATOM     14  S   UNL     1       1.104  -0.183   4.814  0.00  0.00    +0.000 S 
ATOM     15  C   UNL     1       2.711   0.308   4.554  0.00  0.00    +0.000 A 
ATOM     16  N   UNL     1       3.627   0.297   5.565  0.00  0.00    +0.000 NA
ATOM     17  C   UNL     1       4.813   0.669   5.212  0.00  0.00    +0.000 A 
ATOM     18  N   UNL     1       5.170   1.055   3.947  0.00  0.00    +0.000 N 
ATOM     19  C   UNL     1       4.272   1.130   2.913  0.00  0.00    +0.000 A 
ATOM     20  O   UNL     1       4.602   1.569   1.820  0.00  0.00    +0.000 OA
ATOM     21  C   UNL     1       2.930   0.697   3.249  0.00  0.00    +0.000 A 
ATOM     22  H   UNL     1       6.110   1.354   3.735  0.00  0.00    +0.000 HD
ENDBRANCH   9  12
ENDBRANCH   7  10
ENDBRANCH   1   7
BRANCH   4  23
ATOM     23  C   UNL     1       5.932   6.542  -2.336  0.00  0.00    +0.000 C 
BRANCH  23  24
ATOM     24  C   UNL     1       6.274   7.521  -1.203  0.00  0.00    +0.000 C 
BRANCH  24  25
ATOM     25  N   UNL     1       7.212   8.555  -1.659  0.00  0.00    +0.000 NA
ATOM     26  H   UNL     1       6.798   9.083  -2.432  0.00  0.00    +0.000 HD
BRANCH  25  27
ATOM     27  C   UNL     1       7.517   9.481  -0.564  0.00  0.00    +0.000 C 
BRANCH  27  28
ATOM     28  C   UNL     1       8.486  10.549  -0.989  0.00  0.00    +0.000 A 
ATOM     29  C   UNL     1       9.770  10.230  -1.443  0.00  0.00    +0.000 A 
ATOM     30  C   UNL     1      10.654  11.246  -1.794  0.00  0.00    +0.000 A 
ATOM     31  C   UNL     1      10.225  12.557  -1.674  0.00  0.00    +0.000 A 
ATOM     32  N   UNL     1       8.997  12.909  -1.238  0.00  0.00    +0.000 NA
ATOM     33  C   UNL     1       8.159  11.899  -0.906  0.00  0.00    +0.000 A 
ENDBRANCH  27  28
ENDBRANCH  25  27
ENDBRANCH  24  25
ENDBRANCH  23  24
ENDBRANCH   4  23
TORSDOF 8
