REMARK  Name = 
REMARK  4 active torsions:
REMARK  status: ('A' for Active; 'I' for Inactive)
REMARK    1  A    between atoms: C_2  and  C_4
REMARK    2  A    between atoms: N_8  and  C_9
REMARK    3  A    between atoms: C_9  and  C_10
REMARK    4  A    between atoms: C_12  and  C_13
REMARK                            x       y       z     vdW  Elec       q    Type
REMARK                         _______ _______ _______ _____ _____    ______ ____
ROOT
ATOM      1  C   UNL     1       3.355   1.091   0.705  0.00  0.00    +0.000 A 
ATOM      2  C   UNL     1       3.587   1.867  -0.426  0.00  0.00    +0.000 A 
ATOM      3  C   UNL     1       4.163   3.127  -0.272  0.00  0.00    +0.000 A 
ATOM      4  C   UNL     1       4.455   3.605   1.004  0.00  0.00    +0.000 A 
ATOM      5  N   UNL     1       4.999   4.888   1.095  0.00  0.00    +0.000 N 
ATOM      6  N   UNL     1       4.213   2.875   2.108  0.00  0.00    +0.000 NA
ATOM      7  C   UNL     1       3.674   1.638   1.940  0.00  0.00    +0.000 A 
ATOM      8  H   UNL     1       5.943   4.883   0.719  0.00  0.00    +0.000 HD
ENDROOT
BRANCH   1  10
ATOM      9  N   UNL     1       2.915  -0.958  -0.524  0.00  0.00    +0.000 N 
ATOM     10  C   UNL     1       2.769  -0.263   0.643  0.00  0.00    +0.000 C 
ATOM     11  O   UNL     1       2.202  -0.760   1.609  0.00  0.00    +0.000 OA
ATOM     12  H   UNL     1       2.596  -1.919  -0.520  0.00  0.00    +0.000 HD
ATOM     13  H   UNL     1       3.567  -0.687  -1.247  0.00  0.00    +0.000 HD
ENDBRANCH   1  10
BRANCH   5  14
ATOM     14  C   UNL     1       4.956   5.507   2.418  0.00  0.00    +0.000 C 
BRANCH  14  15
ATOM     15  C   UNL     1       5.113   7.013   2.258  0.00  0.00    +0.000 A 
ATOM     16  C   UNL     1       4.258   7.707   1.399  0.00  0.00    +0.000 A 
ATOM     17  C   UNL     1       4.404   9.091   1.247  0.00  0.00    +0.000 A 
ATOM     18  C   UNL     1       5.402   9.734   1.981  0.00  0.00    +0.000 A 
ATOM     19  C   UNL     1       6.207   8.975   2.814  0.00  0.00    +0.000 A 
ATOM     20  N   UNL     1       6.088   7.637   2.963  0.00  0.00    +0.000 NA
BRANCH  17  21
ATOM     21  C   UNL     1       3.513   9.871   0.320  0.00  0.00    +0.000 C 
ATOM     22  F   UNL     1       2.612   9.103  -0.351  0.00  0.00    +0.000 F 
ATOM     23  F   UNL     1       2.785  10.817   0.975  0.00  0.00    +0.000 F 
ATOM     24  F   UNL     1       4.218  10.539  -0.636  0.00  0.00    +0.000 F 
ENDBRANCH  17  21
ENDBRANCH  14  15
ENDBRANCH   5  14
TORSDOF 4
