REMARK  Name = 
REMARK  10 active torsions:
REMARK  status: ('A' for Active; 'I' for Inactive)
REMARK    1  A    between atoms: C_1  and  O_2
REMARK    2  A    between atoms: O_2  and  C_3
REMARK    3  A    between atoms: C_10  and  C_11
REMARK    4  A    between atoms: N_13  and  C_14
REMARK    5  A    between atoms: C_14  and  C_15
REMARK    6  A    between atoms: C_18  and  C_19
REMARK    7  A    between atoms: C_19  and  N_20
REMARK    8  A    between atoms: N_20  and  C_21
REMARK    9  A    between atoms: C_21  and  C_22
REMARK   10  A    between atoms: C_21  and  C_23
REMARK                            x       y       z     vdW  Elec       q    Type
REMARK                         _______ _______ _______ _____ _____    ______ ____
ROOT
ATOM      1  C   UNL     1       1.654   2.748   1.849  0.00  0.00    +0.000 A 
ATOM      2  C   UNL     1       0.505   2.066   1.442  0.00  0.00    +0.000 A 
ATOM      3  C   UNL     1      -0.464   2.726   0.687  0.00  0.00    +0.000 A 
ATOM      4  C   UNL     1      -0.275   4.069   0.368  0.00  0.00    +0.000 A 
ATOM      5  N   UNL     1       0.809   4.766   0.795  0.00  0.00    +0.000 NA
ATOM      6  C   UNL     1       1.738   4.097   1.522  0.00  0.00    +0.000 A 
ENDROOT
BRANCH   1   7
ATOM      7  C   UNL     1       2.755   2.050   2.591  0.00  0.00    +0.000 C 
BRANCH   7  10
ATOM      8  C   UNL     1       3.482   1.514   4.866  0.00  0.00    +0.000 C 
ATOM      9  O   UNL     1       4.481   0.949   4.427  0.00  0.00    +0.000 OA
ATOM     10  N   UNL     1       2.567   2.086   4.018  0.00  0.00    +0.000 N 
ATOM     11  H   UNL     1       1.725   2.507   4.389  0.00  0.00    +0.000 HD
BRANCH   8  19
ATOM     12  C   UNL     1       1.007   2.996   6.768  0.00  0.00    +0.000 A 
ATOM     13  N   UNL     1       0.222   3.497   7.745  0.00  0.00    +0.000 NA
ATOM     14  C   UNL     1       0.554   3.256   9.016  0.00  0.00    +0.000 A 
ATOM     15  N   UNL     1       1.601   2.561   9.444  0.00  0.00    +0.000 NA
ATOM     16  C   UNL     1       2.367   2.090   8.447  0.00  0.00    +0.000 A 
ATOM     17  S   UNL     1       3.749   1.181   8.820  0.00  0.00    +0.000 S 
ATOM     18  C   UNL     1       4.127   0.990   7.179  0.00  0.00    +0.000 A 
ATOM     19  C   UNL     1       3.226   1.602   6.313  0.00  0.00    +0.000 A 
ATOM     20  C   UNL     1       2.163   2.255   7.077  0.00  0.00    +0.000 A 
BRANCH  12  22
ATOM     21  C   UNL     1      -0.577   3.971   5.344  0.00  0.00    +0.000 C 
ATOM     22  O   UNL     1       0.627   3.210   5.457  0.00  0.00    +0.000 OA
ENDBRANCH  12  22
ENDBRANCH   8  19
ENDBRANCH   7  10
ENDBRANCH   1   7
BRANCH   4  23
ATOM     23  C   UNL     1      -1.283   4.799  -0.505  0.00  0.00    +0.000 C 
BRANCH  23  24
ATOM     24  N   UNL     1      -0.733   5.379  -1.744  0.00  0.00    +0.000 NA
ATOM     25  H   UNL     1       0.019   6.010  -1.453  0.00  0.00    +0.000 HD
BRANCH  24  26
ATOM     26  C   UNL     1      -0.148   4.401  -2.675  0.00  0.00    +0.000 C 
ATOM     27  C   UNL     1      -1.153   3.354  -3.173  0.00  0.00    +0.000 C 
BRANCH  26  28
ATOM     28  C   UNL     1       0.467   5.118  -3.874  0.00  0.00    +0.000 A 
ATOM     29  C   UNL     1      -0.302   5.937  -4.723  0.00  0.00    +0.000 A 
ATOM     30  C   UNL     1       0.268   6.550  -5.844  0.00  0.00    +0.000 A 
ATOM     31  C   UNL     1       1.616   6.356  -6.133  0.00  0.00    +0.000 A 
ATOM     32  C   UNL     1       2.383   5.557  -5.295  0.00  0.00    +0.000 A 
ATOM     33  F   UNL     1       3.679   5.364  -5.573  0.00  0.00    +0.000 F 
ATOM     34  C   UNL     1       1.827   4.943  -4.174  0.00  0.00    +0.000 A 
ENDBRANCH  26  28
ENDBRANCH  24  26
ENDBRANCH  23  24
ENDBRANCH   4  23
TORSDOF 8
