REMARK  Name = 
REMARK  5 active torsions:
REMARK  status: ('A' for Active; 'I' for Inactive)
REMARK    1  A    between atoms: C_2  and  C_4
REMARK    2  A    between atoms: C_7  and  N_8
REMARK    3  A    between atoms: N_8  and  C_9
REMARK    4  A    between atoms: C_9  and  C_10
REMARK    5  A    between atoms: C_12  and  C_13
REMARK                            x       y       z     vdW  Elec       q    Type
REMARK                         _______ _______ _______ _____ _____    ______ ____
ROOT
ATOM      1  N   UNL     1       5.381   4.087   2.857  0.00  0.00    +0.000 N 
ATOM      2  H   UNL     1       6.244   3.549   2.834  0.00  0.00    +0.000 HD
ENDROOT
BRANCH   1   6
ATOM      3  C   UNL     1       2.561   2.789  -0.003  0.00  0.00    +0.000 A 
ATOM      4  C   UNL     1       2.144   3.574   1.072  0.00  0.00    +0.000 A 
ATOM      5  C   UNL     1       3.066   3.982   2.040  0.00  0.00    +0.000 A 
ATOM      6  C   UNL     1       4.411   3.599   1.981  0.00  0.00    +0.000 A 
ATOM      7  C   UNL     1       4.813   2.819   0.886  0.00  0.00    +0.000 A 
ATOM      8  C   UNL     1       3.898   2.399  -0.088  0.00  0.00    +0.000 A 
BRANCH   3  10
ATOM      9  N   UNL     1       0.537   3.174  -1.296  0.00  0.00    +0.000 N 
ATOM     10  C   UNL     1       1.610   2.361  -1.059  0.00  0.00    +0.000 C 
ATOM     11  O   UNL     1       1.794   1.345  -1.716  0.00  0.00    +0.000 OA
ATOM     12  H   UNL     1      -0.048   2.926  -2.084  0.00  0.00    +0.000 HD
ATOM     13  H   UNL     1       0.500   4.129  -0.969  0.00  0.00    +0.000 HD
ENDBRANCH   3  10
ENDBRANCH   1   6
BRANCH   1  14
ATOM     14  C   UNL     1       5.031   4.441   4.236  0.00  0.00    +0.000 C 
BRANCH  14  15
ATOM     15  C   UNL     1       5.949   5.532   4.754  0.00  0.00    +0.000 A 
ATOM     16  C   UNL     1       5.987   6.767   4.101  0.00  0.00    +0.000 A 
ATOM     17  C   UNL     1       6.788   7.807   4.594  0.00  0.00    +0.000 A 
ATOM     18  C   UNL     1       7.521   7.534   5.756  0.00  0.00    +0.000 A 
ATOM     19  C   UNL     1       7.425   6.283   6.351  0.00  0.00    +0.000 A 
ATOM     20  N   UNL     1       6.659   5.281   5.878  0.00  0.00    +0.000 NA
BRANCH  17  21
ATOM     21  C   UNL     1       6.847   9.124   3.922  0.00  0.00    +0.000 A 
ATOM     22  C   UNL     1       6.681   9.269   2.536  0.00  0.00    +0.000 A 
ATOM     23  C   UNL     1       6.737  10.527   1.935  0.00  0.00    +0.000 A 
ATOM     24  C   UNL     1       6.969  11.628   2.738  0.00  0.00    +0.000 A 
ATOM     25  N   UNL     1       7.137  11.552   4.072  0.00  0.00    +0.000 NA
ATOM     26  C   UNL     1       7.067  10.314   4.624  0.00  0.00    +0.000 A 
ENDBRANCH  17  21
ENDBRANCH  14  15
ENDBRANCH   1  14
TORSDOF 5
