REMARK  Name = 
REMARK  6 active torsions:
REMARK  status: ('A' for Active; 'I' for Inactive)
REMARK    1  A    between atoms: C_1  and  O_2
REMARK    2  A    between atoms: O_2  and  C_3
REMARK    3  A    between atoms: C_5  and  C_6
REMARK    4  A    between atoms: C_6  and  N_7
REMARK    5  A    between atoms: C_12  and  C_13
REMARK    6  A    between atoms: C_21  and  O_22
REMARK                            x       y       z     vdW  Elec       q    Type
REMARK                         _______ _______ _______ _____ _____    ______ ____
ROOT
ATOM      1  N   UNL     1       1.102   4.852   0.111  0.00  0.00    +0.000 N 
ATOM      2  C   UNL     1       0.386   4.757   1.282  0.00  0.00    +0.000 A 
ATOM      3  C   UNL     1      -0.951   4.852   0.976  0.00  0.00    +0.000 A 
ATOM      4  C   UNL     1      -1.062   5.019  -0.430  0.00  0.00    +0.000 A 
ATOM      5  C   UNL     1      -2.148   5.193  -1.297  0.00  0.00    +0.000 A 
ATOM      6  C   UNL     1      -1.848   5.343  -2.643  0.00  0.00    +0.000 A 
ATOM      7  N   UNL     1      -0.590   5.317  -3.166  0.00  0.00    +0.000 NA
ATOM      8  C   UNL     1       0.458   5.142  -2.327  0.00  0.00    +0.000 A 
ATOM      9  C   UNL     1       0.234   5.003  -0.957  0.00  0.00    +0.000 A 
ENDROOT
BRANCH   6  10
ATOM     10  C   UNL     1      -2.971   5.571  -3.612  0.00  0.00    +0.000 C 
ATOM     11  N   UNL     1      -2.609   5.721  -4.923  0.00  0.00    +0.000 N 
ATOM     12  O   UNL     1      -4.146   5.630  -3.264  0.00  0.00    +0.000 OA
ATOM     13  H   UNL     1      -1.631   5.680  -5.184  0.00  0.00    +0.000 HD
ATOM     14  H   UNL     1      -3.322   5.894  -5.617  0.00  0.00    +0.000 HD
ENDBRANCH   6  10
BRANCH   1  15
ATOM     15  C   UNL     1       2.561   4.932   0.062  0.00  0.00    +0.000 C 
BRANCH  15  18
ATOM     16  C   UNL     1       4.055   1.707  -1.348  0.00  0.00    +0.000 A 
ATOM     17  C   UNL     1       3.486   2.983  -1.259  0.00  0.00    +0.000 A 
ATOM     18  C   UNL     1       3.212   3.573  -0.013  0.00  0.00    +0.000 A 
ATOM     19  C   UNL     1       3.552   2.873   1.155  0.00  0.00    +0.000 A 
ATOM     20  C   UNL     1       4.136   1.607   1.079  0.00  0.00    +0.000 A 
ATOM     21  C   UNL     1       4.375   1.027  -0.166  0.00  0.00    +0.000 A 
BRANCH  16  23
ATOM     22  C   UNL     1       3.978   1.708  -3.732  0.00  0.00    +0.000 C 
ATOM     23  O   UNL     1       4.325   1.052  -2.521  0.00  0.00    +0.000 OA
ENDBRANCH  16  23
BRANCH  21  24
ATOM     24  O   UNL     1       4.929  -0.223  -0.240  0.00  0.00    +0.000 OA
ATOM     25  H   UNL     1       5.024  -0.582   0.655  0.00  0.00    +0.000 HD
ENDBRANCH  21  24
ENDBRANCH  15  18
ENDBRANCH   1  15
TORSDOF 5
