REMARK  Name = 
REMARK  3 active torsions:
REMARK  status: ('A' for Active; 'I' for Inactive)
REMARK    1  A    between atoms: C_2  and  C_4
REMARK    2  A    between atoms: N_8  and  C_9
REMARK    3  A    between atoms: C_9  and  C_10
REMARK                            x       y       z     vdW  Elec       q    Type
REMARK                         _______ _______ _______ _____ _____    ______ ____
ROOT
ATOM      1  C   UNL     1       3.403  -3.154   2.259  0.00  0.00    +0.000 A 
ATOM      2  C   UNL     1       2.689  -3.873   1.304  0.00  0.00    +0.000 A 
ATOM      3  C   UNL     1       3.351  -4.349   0.167  0.00  0.00    +0.000 A 
ATOM      4  C   UNL     1       4.707  -4.091   0.001  0.00  0.00    +0.000 A 
ATOM      5  N   UNL     1       5.427  -4.446  -1.142  0.00  0.00    +0.000 N 
ATOM      6  N   UNL     1       5.404  -3.382   0.915  0.00  0.00    +0.000 NA
ATOM      7  C   UNL     1       4.747  -2.927   2.015  0.00  0.00    +0.000 A 
ATOM      8  H   UNL     1       6.392  -4.182  -0.956  0.00  0.00    +0.000 HD
ENDROOT
BRANCH   1  10
ATOM      9  N   UNL     1       1.664  -3.216   3.956  0.00  0.00    +0.000 N 
ATOM     10  C   UNL     1       2.791  -2.596   3.482  0.00  0.00    +0.000 C 
ATOM     11  O   UNL     1       3.280  -1.643   4.070  0.00  0.00    +0.000 OA
ATOM     12  H   UNL     1       1.309  -2.885   4.845  0.00  0.00    +0.000 HD
ATOM     13  H   UNL     1       1.376  -4.136   3.654  0.00  0.00    +0.000 HD
ENDBRANCH   1  10
BRANCH   5  14
ATOM     14  C   UNL     1       5.220  -5.663  -1.941  0.00  0.00    +0.000 C 
ATOM     15  C   UNL     1       5.247  -5.443  -3.452  0.00  0.00    +0.000 C 
ATOM     16  C   UNL     1       3.987  -5.894  -2.797  0.00  0.00    +0.000 C 
BRANCH  14  17
ATOM     17  C   UNL     1       5.935  -6.900  -1.403  0.00  0.00    +0.000 A 
ATOM     18  C   UNL     1       5.308  -7.776  -0.507  0.00  0.00    +0.000 A 
ATOM     19  C   UNL     1       5.970  -8.920  -0.091  0.00  0.00    +0.000 A 
ATOM     20  N   UNL     1       7.212  -9.258  -0.494  0.00  0.00    +0.000 NA
ATOM     21  C   UNL     1       7.821  -8.402  -1.339  0.00  0.00    +0.000 A 
ATOM     22  C   UNL     1       7.239  -7.231  -1.802  0.00  0.00    +0.000 A 
ENDBRANCH  14  17
ENDBRANCH   5  14
TORSDOF 3
