REMARK  Name = 
REMARK  6 active torsions:
REMARK  status: ('A' for Active; 'I' for Inactive)
REMARK    1  A    between atoms: C_2  and  C_25
REMARK    2  A    between atoms: N_3  and  C_4
REMARK    3  A    between atoms: C_4  and  C_5
REMARK    4  A    between atoms: C_8  and  C_9
REMARK    5  A    between atoms: C_9  and  N_10
REMARK    6  A    between atoms: C_11  and  C_13
REMARK                            x       y       z     vdW  Elec       q    Type
REMARK                         _______ _______ _______ _____ _____    ______ ____
ROOT
ATOM      1  C   UNL     1       3.357   1.704  -3.107  0.00  0.00    +0.000 A 
ATOM      2  C   UNL     1       3.324   3.079  -3.378  0.00  0.00    +0.000 A 
ATOM      3  C   UNL     1       4.193   3.645  -4.319  0.00  0.00    +0.000 A 
ATOM      4  C   UNL     1       5.100   2.845  -5.027  0.00  0.00    +0.000 A 
ATOM      5  C   UNL     1       5.137   1.472  -4.751  0.00  0.00    +0.000 A 
ATOM      6  C   UNL     1       4.266   0.904  -3.813  0.00  0.00    +0.000 A 
ENDROOT
BRANCH   1   7
ATOM      7  C   UNL     1       2.416   1.098  -2.096  0.00  0.00    +0.000 C 
BRANCH   7  10
ATOM      8  O   UNL     1       0.281  -0.159  -0.782  0.00  0.00    +0.000 OA
ATOM      9  C   UNL     1       0.168   0.113  -1.972  0.00  0.00    +0.000 C 
ATOM     10  N   UNL     1       1.161   0.722  -2.700  0.00  0.00    +0.000 N 
ATOM     11  H   UNL     1       0.959   1.063  -3.626  0.00  0.00    +0.000 HD
BRANCH   9  12
ATOM     12  C   UNL     1      -1.039  -0.176  -2.726  0.00  0.00    +0.000 A 
ATOM     13  C   UNL     1      -1.323  -0.066  -4.076  0.00  0.00    +0.000 A 
ATOM     14  C   UNL     1      -2.655  -0.501  -4.287  0.00  0.00    +0.000 A 
ATOM     15  C   UNL     1      -3.159  -0.871  -3.063  0.00  0.00    +0.000 A 
ATOM     16  N   UNL     1      -2.178  -0.675  -2.127  0.00  0.00    +0.000 N 
ATOM     17  H   UNL     1      -2.257  -0.867  -1.135  0.00  0.00    +0.000 HD
ENDBRANCH   9  12
ENDBRANCH   7  10
ENDBRANCH   1   7
BRANCH   4  18
ATOM     18  C   UNL     1       6.034   3.440  -6.053  0.00  0.00    +0.000 C 
BRANCH  18  19
ATOM     19  N   UNL     1       7.285   3.849  -5.467  0.00  0.00    +0.000 N 
ATOM     20  C   UNL     1       8.259   4.459  -6.218  0.00  0.00    +0.000 C 
ATOM     21  O   UNL     1       8.098   4.718  -7.408  0.00  0.00    +0.000 OA
ATOM     22  H   UNL     1       7.538   3.426  -4.579  0.00  0.00    +0.000 HD
BRANCH  20  23
ATOM     23  C   UNL     1       9.485   4.850  -5.509  0.00  0.00    +0.000 A 
ATOM     24  C   UNL     1      10.264   5.892  -5.995  0.00  0.00    +0.000 A 
ATOM     25  S   UNL     1      11.618   6.246  -5.019  0.00  0.00    +0.000 S 
ATOM     26  C   UNL     1      11.241   4.984  -3.943  0.00  0.00    +0.000 A 
ATOM     27  N   UNL     1      12.035   4.717  -2.871  0.00  0.00    +0.000 NA
ATOM     28  C   UNL     1      11.648   3.712  -2.158  0.00  0.00    +0.000 A 
ATOM     29  N   UNL     1      10.535   2.955  -2.416  0.00  0.00    +0.000 N 
ATOM     30  C   UNL     1       9.685   3.209  -3.465  0.00  0.00    +0.000 A 
ATOM     31  O   UNL     1       8.668   2.546  -3.637  0.00  0.00    +0.000 OA
ATOM     32  C   UNL     1      10.085   4.317  -4.310  0.00  0.00    +0.000 A 
ATOM     33  H   UNL     1      10.279   2.188  -1.812  0.00  0.00    +0.000 HD
ENDBRANCH  20  23
ENDBRANCH  18  19
ENDBRANCH   4  18
TORSDOF 6
