REMARK  Name = 
REMARK  9 active torsions:
REMARK  status: ('A' for Active; 'I' for Inactive)
REMARK    1  A    between atoms: C_2  and  C_3
REMARK    2  A    between atoms: C_3  and  N_4
REMARK    3  A    between atoms: C_5  and  C_7
REMARK    4  A    between atoms: N_17  and  C_18
REMARK    5  A    between atoms: C_18  and  C_19
REMARK    6  A    between atoms: C_22  and  C_23
REMARK    7  A    between atoms: C_23  and  N_24
REMARK    8  A    between atoms: C_25  and  C_27
REMARK    9  A    between atoms: C_27  and  O_28
REMARK                            x       y       z     vdW  Elec       q    Type
REMARK                         _______ _______ _______ _____ _____    ______ ____
ROOT
ATOM      1  O   UNL     1       2.730   1.204   1.291  0.00  0.00    +0.000 OA
ATOM      2  C   UNL     1       2.246   0.892   0.208  0.00  0.00    +0.000 C 
ATOM      3  N   UNL     1       2.996   0.601  -0.908  0.00  0.00    +0.000 N 
ATOM      4  H   UNL     1       2.534   0.170  -1.704  0.00  0.00    +0.000 HD
ENDROOT
BRANCH   2   5
ATOM      5  C   UNL     1       0.731   0.737   0.009  0.00  0.00    +0.000 C 
BRANCH   5   6
ATOM      6  N   UNL     1       0.279  -0.590   0.369  0.00  0.00    +0.000 N 
ATOM      7  C   UNL     1       0.329  -1.632  -0.518  0.00  0.00    +0.000 C 
ATOM      8  O   UNL     1       0.799  -1.488  -1.645  0.00  0.00    +0.000 OA
ATOM      9  H   UNL     1      -0.171  -0.704   1.273  0.00  0.00    +0.000 HD
BRANCH   7  10
ATOM     10  C   UNL     1      -0.141  -2.937  -0.038  0.00  0.00    +0.000 A 
ATOM     11  C   UNL     1       0.316  -4.096  -0.647  0.00  0.00    +0.000 A 
ATOM     12  S   UNL     1      -0.303  -5.527   0.040  0.00  0.00    +0.000 S 
ATOM     13  C   UNL     1      -1.247  -4.649   1.149  0.00  0.00    +0.000 A 
ATOM     14  N   UNL     1      -2.062  -5.289   2.032  0.00  0.00    +0.000 NA
ATOM     15  C   UNL     1      -2.748  -4.503   2.791  0.00  0.00    +0.000 A 
ATOM     16  N   UNL     1      -2.687  -3.134   2.755  0.00  0.00    +0.000 N 
ATOM     17  C   UNL     1      -1.839  -2.445   1.919  0.00  0.00    +0.000 A 
ATOM     18  O   UNL     1      -1.746  -1.225   1.967  0.00  0.00    +0.000 OA
ATOM     19  C   UNL     1      -1.069  -3.283   1.016  0.00  0.00    +0.000 A 
ATOM     20  H   UNL     1      -3.236  -2.577   3.392  0.00  0.00    +0.000 HD
ENDBRANCH   7  10
ENDBRANCH   5   6
ENDBRANCH   2   5
BRANCH   3  21
ATOM     21  C   UNL     1       4.443   0.701  -0.931  0.00  0.00    +0.000 C 
BRANCH  21  22
ATOM     22  C   UNL     1       4.909   1.666  -1.999  0.00  0.00    +0.000 A 
ATOM     23  C   UNL     1       4.527   3.013  -1.945  0.00  0.00    +0.000 A 
ATOM     24  C   UNL     1       4.913   3.911  -2.947  0.00  0.00    +0.000 A 
ATOM     25  C   UNL     1       5.692   3.482  -4.030  0.00  0.00    +0.000 A 
ATOM     26  C   UNL     1       6.124   2.148  -4.053  0.00  0.00    +0.000 A 
ATOM     27  C   UNL     1       5.733   1.248  -3.052  0.00  0.00    +0.000 A 
BRANCH  25  28
ATOM     28  C   UNL     1       6.050   4.437  -5.143  0.00  0.00    +0.000 C 
BRANCH  28  29
ATOM     29  N   UNL     1       7.250   5.179  -4.853  0.00  0.00    +0.000 N 
ATOM     30  C   UNL     1       7.881   5.982  -5.785  0.00  0.00    +0.000 C 
ATOM     31  O   UNL     1       7.485   6.135  -6.934  0.00  0.00    +0.000 OA
ATOM     32  H   UNL     1       7.647   5.148  -3.919  0.00  0.00    +0.000 HD
BRANCH  30  33
ATOM     33  C   UNL     1       9.124   6.682  -5.194  0.00  0.00    +0.000 C 
ATOM     34  C   UNL     1      10.136   7.222  -6.202  0.00  0.00    +0.000 C 
ATOM     35  C   UNL     1      10.970   8.206  -5.376  0.00  0.00    +0.000 C 
ATOM     36  C   UNL     1      10.051   8.697  -4.255  0.00  0.00    +0.000 C 
ATOM     37  C   UNL     1       8.729   7.953  -4.442  0.00  0.00    +0.000 C 
BRANCH  33  38
ATOM     38  O   UNL     1       9.786   5.795  -4.282  0.00  0.00    +0.000 OA
ATOM     39  H   UNL     1      10.143   5.065  -4.819  0.00  0.00    +0.000 HD
ENDBRANCH  33  38
ENDBRANCH  30  33
ENDBRANCH  28  29
ENDBRANCH  25  28
ENDBRANCH  21  22
ENDBRANCH   3  21
TORSDOF 9
