REMARK  Name = 
REMARK  9 active torsions:
REMARK  status: ('A' for Active; 'I' for Inactive)
REMARK    1  A    between atoms: N_1  and  C_2
REMARK    2  A    between atoms: C_2  and  N_3
REMARK    3  A    between atoms: C_2  and  C_19
REMARK    4  A    between atoms: N_3  and  C_4
REMARK    5  A    between atoms: C_4  and  C_5
REMARK    6  A    between atoms: C_8  and  C_9
REMARK    7  A    between atoms: C_9  and  N_10
REMARK    8  A    between atoms: N_10  and  C_11
REMARK    9  A    between atoms: C_11  and  C_12
REMARK                            x       y       z     vdW  Elec       q    Type
REMARK                         _______ _______ _______ _____ _____    ______ ____
ROOT
ATOM      1  N   UNL     1       3.607   0.676   1.606  0.00  0.00    +0.000 NA
ATOM      2  H   UNL     1       4.007   1.366   2.248  0.00  0.00    +0.000 HD
ENDROOT
BRANCH   1   3
ATOM      3  C   UNL     1       3.166   1.432   0.450  0.00  0.00    +0.000 C 
BRANCH   3   4
ATOM      4  C   UNL     1       4.368   2.095  -0.202  0.00  0.00    +0.000 A 
ATOM      5  C   UNL     1       4.878   1.792  -1.464  0.00  0.00    +0.000 A 
ATOM      6  S   UNL     1       6.196   2.760  -1.934  0.00  0.00    +0.000 S 
ATOM      7  C   UNL     1       6.145   3.632  -0.478  0.00  0.00    +0.000 A 
ATOM      8  N   UNL     1       7.016   4.647  -0.236  0.00  0.00    +0.000 NA
ATOM      9  C   UNL     1       6.854   5.222   0.909  0.00  0.00    +0.000 A 
ATOM     10  N   UNL     1       5.907   4.870   1.838  0.00  0.00    +0.000 N 
ATOM     11  C   UNL     1       5.024   3.828   1.648  0.00  0.00    +0.000 A 
ATOM     12  O   UNL     1       4.223   3.484   2.515  0.00  0.00    +0.000 OA
ATOM     13  C   UNL     1       5.146   3.176   0.362  0.00  0.00    +0.000 A 
ATOM     14  H   UNL     1       5.854   5.351   2.723  0.00  0.00    +0.000 HD
ENDBRANCH   3   4
BRANCH   3  15
ATOM     15  N   UNL     1       2.621   0.479  -0.487  0.00  0.00    +0.000 NA
ATOM     16  H   UNL     1       1.730   0.138  -0.148  0.00  0.00    +0.000 HD
ATOM     17  H   UNL     1       3.258  -0.317  -0.458  0.00  0.00    +0.000 HD
ENDBRANCH   3  15
ENDBRANCH   1   3
BRANCH   1  18
ATOM     18  C   UNL     1       2.514   0.016   2.327  0.00  0.00    +0.000 C 
BRANCH  18  19
ATOM     19  C   UNL     1       2.975  -0.681   3.580  0.00  0.00    +0.000 A 
ATOM     20  C   UNL     1       3.519   0.017   4.658  0.00  0.00    +0.000 A 
ATOM     21  C   UNL     1       3.843  -0.663   5.829  0.00  0.00    +0.000 A 
ATOM     22  C   UNL     1       3.610  -2.034   5.902  0.00  0.00    +0.000 A 
ATOM     23  N   UNL     1       3.101  -2.742   4.862  0.00  0.00    +0.000 NA
ATOM     24  C   UNL     1       2.803  -2.056   3.735  0.00  0.00    +0.000 A 
BRANCH  22  25
ATOM     25  C   UNL     1       3.931  -2.799   7.172  0.00  0.00    +0.000 C 
BRANCH  25  26
ATOM     26  N   UNL     1       4.863  -3.920   6.987  0.00  0.00    +0.000 NA
ATOM     27  H   UNL     1       4.472  -4.503   6.242  0.00  0.00    +0.000 HD
BRANCH  26  28
ATOM     28  C   UNL     1       6.174  -3.466   6.534  0.00  0.00    +0.000 C 
BRANCH  28  29
ATOM     29  C   UNL     1       7.071  -4.646   6.405  0.00  0.00    +0.000 A 
ATOM     30  C   UNL     1       7.744  -5.160   5.314  0.00  0.00    +0.000 A 
ATOM     31  C   UNL     1       8.461  -6.299   5.751  0.00  0.00    +0.000 A 
ATOM     32  C   UNL     1       8.204  -6.456   7.094  0.00  0.00    +0.000 A 
ATOM     33  N   UNL     1       7.353  -5.455   7.480  0.00  0.00    +0.000 N 
ATOM     34  H   UNL     1       6.953  -5.335   8.402  0.00  0.00    +0.000 HD
ENDBRANCH  28  29
ENDBRANCH  26  28
ENDBRANCH  25  26
ENDBRANCH  22  25
ENDBRANCH  18  19
ENDBRANCH   1  18
TORSDOF 9
