REMARK  Name = 
REMARK  9 active torsions:
REMARK  status: ('A' for Active; 'I' for Inactive)
REMARK    1  A    between atoms: C_1  and  C_2
REMARK    2  A    between atoms: C_2  and  C_3
REMARK    3  A    between atoms: C_3  and  N_4
REMARK    4  A    between atoms: C_3  and  C_17
REMARK    5  A    between atoms: C_5  and  C_7
REMARK    6  A    between atoms: C_20  and  C_21
REMARK    7  A    between atoms: C_21  and  N_22
REMARK    8  A    between atoms: N_22  and  C_23
REMARK    9  A    between atoms: C_23  and  C_24
REMARK                            x       y       z     vdW  Elec       q    Type
REMARK                         _______ _______ _______ _____ _____    ______ ____
ROOT
ATOM      1  C   UNL     1       3.045   1.174  -0.662  0.00  0.00    +0.000 C 
ENDROOT
BRANCH   1   2
ATOM      2  C   UNL     1       4.568   1.211  -0.624  0.00  0.00    +0.000 A 
ATOM      3  C   UNL     1       5.256   2.326  -1.122  0.00  0.00    +0.000 A 
ATOM      4  C   UNL     1       6.654   2.371  -1.100  0.00  0.00    +0.000 A 
ATOM      5  C   UNL     1       7.399   1.310  -0.565  0.00  0.00    +0.000 A 
ATOM      6  C   UNL     1       6.715   0.197  -0.060  0.00  0.00    +0.000 A 
ATOM      7  C   UNL     1       5.317   0.150  -0.090  0.00  0.00    +0.000 A 
BRANCH   5   8
ATOM      8  C   UNL     1       8.910   1.356  -0.538  0.00  0.00    +0.000 C 
BRANCH   8   9
ATOM      9  N   UNL     1       9.381   2.503   0.234  0.00  0.00    +0.000 NA
ATOM     10  H   UNL     1       9.024   2.426   1.187  0.00  0.00    +0.000 HD
BRANCH   9  11
ATOM     11  C   UNL     1      10.846   2.543   0.294  0.00  0.00    +0.000 C 
BRANCH  11  12
ATOM     12  C   UNL     1      11.343   3.761   1.049  0.00  0.00    +0.000 A 
ATOM     13  C   UNL     1      10.988   5.038   0.615  0.00  0.00    +0.000 A 
ATOM     14  C   UNL     1      11.476   6.146   1.299  0.00  0.00    +0.000 A 
ATOM     15  C   UNL     1      12.304   5.953   2.397  0.00  0.00    +0.000 A 
ATOM     16  C   UNL     1      12.599   4.653   2.773  0.00  0.00    +0.000 A 
ATOM     17  N   UNL     1      12.140   3.556   2.129  0.00  0.00    +0.000 NA
ENDBRANCH  11  12
ENDBRANCH   9  11
ENDBRANCH   8   9
ENDBRANCH   5   8
ENDBRANCH   1   2
BRANCH   1  18
ATOM     18  N   UNL     1       2.529   1.193   0.699  0.00  0.00    +0.000 N 
ATOM     19  C   UNL     1       1.299   1.693   1.036  0.00  0.00    +0.000 C 
ATOM     20  O   UNL     1       0.520   2.142   0.200  0.00  0.00    +0.000 OA
ATOM     21  H   UNL     1       3.175   0.916   1.432  0.00  0.00    +0.000 HD
BRANCH  19  22
ATOM     22  C   UNL     1       0.946   1.647   2.463  0.00  0.00    +0.000 A 
ATOM     23  C   UNL     1      -0.387   1.645   2.852  0.00  0.00    +0.000 A 
ATOM     24  S   UNL     1      -0.605   1.671   4.545  0.00  0.00    +0.000 S 
ATOM     25  C   UNL     1       1.076   1.720   4.818  0.00  0.00    +0.000 A 
ATOM     26  N   UNL     1       1.584   1.830   6.071  0.00  0.00    +0.000 NA
ATOM     27  C   UNL     1       2.874   1.903   6.121  0.00  0.00    +0.000 A 
ATOM     28  N   UNL     1       3.698   1.840   5.034  0.00  0.00    +0.000 N 
ATOM     29  C   UNL     1       3.236   1.629   3.759  0.00  0.00    +0.000 A 
ATOM     30  O   UNL     1       4.002   1.383   2.834  0.00  0.00    +0.000 OA
ATOM     31  C   UNL     1       1.788   1.641   3.635  0.00  0.00    +0.000 A 
ATOM     32  H   UNL     1       4.702   1.840   5.139  0.00  0.00    +0.000 HD
ENDBRANCH  19  22
ENDBRANCH   1  18
BRANCH   1  34
ATOM     33  C   UNL     1       2.950  -0.111  -2.881  0.00  0.00    +0.000 C 
ATOM     34  C   UNL     1       2.500  -0.050  -1.426  0.00  0.00    +0.000 C 
ENDBRANCH   1  34
TORSDOF 8
