REMARK  Name = 
REMARK  6 active torsions:
REMARK  status: ('A' for Active; 'I' for Inactive)
REMARK    1  A    between atoms: N_1  and  C_2
REMARK    2  A    between atoms: C_2  and  C_3
REMARK    3  A    between atoms: C_6  and  O_7
REMARK    4  A    between atoms: O_7  and  C_8
REMARK    5  A    between atoms: C_8  and  C_9
REMARK    6  A    between atoms: C_14  and  O_15
REMARK                            x       y       z     vdW  Elec       q    Type
REMARK                         _______ _______ _______ _____ _____    ______ ____
ROOT
ATOM      1  C   UNL     1       2.950  -0.438   1.303  0.00  0.00    +0.000 A 
ATOM      2  C   UNL     1       3.277   0.441   2.349  0.00  0.00    +0.000 A 
ATOM      3  C   UNL     1       3.535  -0.047   3.633  0.00  0.00    +0.000 A 
ATOM      4  C   UNL     1       3.457  -1.417   3.887  0.00  0.00    +0.000 A 
ATOM      5  C   UNL     1       3.204  -2.301   2.839  0.00  0.00    +0.000 A 
ATOM      6  C   UNL     1       2.939  -1.813   1.560  0.00  0.00    +0.000 A 
ENDROOT
BRANCH   1   7
ATOM      7  C   UNL     1       2.575   0.081  -0.059  0.00  0.00    +0.000 C 
BRANCH   7   8
ATOM      8  N   UNL     1       3.651   0.853  -0.665  0.00  0.00    +0.000 NA
ATOM      9  H   UNL     1       3.417   1.034  -1.639  0.00  0.00    +0.000 HD
ATOM     10  H   UNL     1       4.496   0.283  -0.673  0.00  0.00    +0.000 HD
ENDBRANCH   7   8
ENDBRANCH   1   7
BRANCH   4  11
ATOM     11  O   UNL     1       3.636  -1.798   5.193  0.00  0.00    +0.000 OA
BRANCH  11  12
ATOM     12  C   UNL     1       2.977  -3.024   5.552  0.00  0.00    +0.000 C 
BRANCH  12  13
ATOM     13  C   UNL     1       2.660  -3.051   7.028  0.00  0.00    +0.000 A 
ATOM     14  C   UNL     1       3.498  -2.421   7.960  0.00  0.00    +0.000 A 
ATOM     15  C   UNL     1       3.180  -2.426   9.319  0.00  0.00    +0.000 A 
ATOM     16  C   UNL     1       2.029  -3.071   9.764  0.00  0.00    +0.000 A 
ATOM     17  C   UNL     1       1.208  -3.740   8.857  0.00  0.00    +0.000 A 
ATOM     18  C   UNL     1       1.536  -3.740   7.502  0.00  0.00    +0.000 A 
BRANCH  18  19
ATOM     19  O   UNL     1       0.752  -4.424   6.613  0.00  0.00    +0.000 OA
ATOM     20  H   UNL     1       0.047  -4.877   7.104  0.00  0.00    +0.000 HD
ENDBRANCH  18  19
ENDBRANCH  12  13
ENDBRANCH  11  12
ENDBRANCH   4  11
TORSDOF 6
