REMARK  Name = 
REMARK  8 active torsions:
REMARK  status: ('A' for Active; 'I' for Inactive)
REMARK    1  A    between atoms: C_1  and  C_2
REMARK    2  A    between atoms: C_2  and  C_3
REMARK    3  A    between atoms: C_2  and  C_5
REMARK    4  A    between atoms: C_2  and  C_16
REMARK    5  A    between atoms: C_5  and  O_6
REMARK    6  A    between atoms: O_6  and  C_7
REMARK    7  A    between atoms: C_10  and  C_11
REMARK    8  A    between atoms: C_20  and  C_21
REMARK                            x       y       z     vdW  Elec       q    Type
REMARK                         _______ _______ _______ _____ _____    ______ ____
ROOT
ATOM      1  C   UNL     1       0.940  -0.095   0.033  0.00  0.00    +0.000 C 
ATOM      2  C   UNL     1       2.483  -0.092   0.011  0.00  0.00    +0.000 C 
ENDROOT
BRANCH   2   3
ATOM      3  C   UNL     1       2.989   0.562  -1.295  0.00  0.00    +0.000 A 
ATOM      4  C   UNL     1       2.638   1.892  -1.601  0.00  0.00    +0.000 A 
ATOM      5  C   UNL     1       3.108   2.517  -2.758  0.00  0.00    +0.000 A 
ATOM      6  C   UNL     1       3.954   1.831  -3.630  0.00  0.00    +0.000 A 
ATOM      7  C   UNL     1       4.331   0.514  -3.354  0.00  0.00    +0.000 A 
ATOM      8  C   UNL     1       3.836  -0.111  -2.200  0.00  0.00    +0.000 A 
BRANCH   7   9
ATOM      9  C   UNL     1       5.276  -0.158  -4.296  0.00  0.00    +0.000 C 
ATOM     10  N   UNL     1       5.682  -1.436  -4.031  0.00  0.00    +0.000 N 
ATOM     11  O   UNL     1       5.700   0.421  -5.292  0.00  0.00    +0.000 OA
ATOM     12  H   UNL     1       5.402  -1.999  -3.245  0.00  0.00    +0.000 HD
ATOM     13  H   UNL     1       6.350  -1.839  -4.676  0.00  0.00    +0.000 HD
ENDBRANCH   7   9
ENDBRANCH   2   3
BRANCH   2  14
ATOM     14  C   UNL     1       2.989   0.717   1.194  0.00  0.00    +0.000 C 
ATOM     15  N   UNL     1       3.410   1.388   2.175  0.00  0.00    +0.000 NA
ENDBRANCH   2  14
BRANCH   2  16
ATOM     16  C   UNL     1       2.990  -1.544   0.249  0.00  0.00    +0.000 C 
BRANCH  16  17
ATOM     17  O   UNL     1       2.466  -2.435  -0.748  0.00  0.00    +0.000 OA
BRANCH  17  18
ATOM     18  C   UNL     1       2.852  -3.745  -0.680  0.00  0.00    +0.000 A 
ATOM     19  C   UNL     1       3.697  -4.294   0.283  0.00  0.00    +0.000 A 
ATOM     20  C   UNL     1       3.989  -5.661   0.261  0.00  0.00    +0.000 A 
ATOM     21  C   UNL     1       3.433  -6.492  -0.717  0.00  0.00    +0.000 A 
ATOM     22  C   UNL     1       2.608  -5.940  -1.701  0.00  0.00    +0.000 A 
ATOM     23  C   UNL     1       2.325  -4.569  -1.680  0.00  0.00    +0.000 A 
BRANCH  21  24
ATOM     24  C   UNL     1       3.766  -7.939  -0.671  0.00  0.00    +0.000 C 
ATOM     25  N   UNL     1       2.868  -8.814  -1.213  0.00  0.00    +0.000 N 
ATOM     26  O   UNL     1       4.788  -8.342  -0.129  0.00  0.00    +0.000 OA
ATOM     27  H   UNL     1       1.928  -8.552  -1.474  0.00  0.00    +0.000 HD
ATOM     28  H   UNL     1       3.060  -9.798  -1.070  0.00  0.00    +0.000 HD
ENDBRANCH  21  24
ENDBRANCH  17  18
ENDBRANCH  16  17
ENDBRANCH   2  16
TORSDOF 7
