REMARK  Name = 
REMARK  7 active torsions:
REMARK  status: ('A' for Active; 'I' for Inactive)
REMARK    1  A    between atoms: C_1  and  C_2
REMARK    2  A    between atoms: C_2  and  O_3
REMARK    3  A    between atoms: C_2  and  C_17
REMARK    4  A    between atoms: O_3  and  C_4
REMARK    5  A    between atoms: C_7  and  C_8
REMARK    6  A    between atoms: C_11  and  C_12
REMARK    7  A    between atoms: C_21  and  C_22
REMARK                            x       y       z     vdW  Elec       q    Type
REMARK                         _______ _______ _______ _____ _____    ______ ____
ROOT
ATOM      1  C   UNL     1       2.398   1.953   1.663  0.00  0.00    +0.000 A 
ATOM      2  C   UNL     1       1.406   2.696   1.044  0.00  0.00    +0.000 A 
ATOM      3  C   UNL     1       1.095   3.974   1.520  0.00  0.00    +0.000 A 
ATOM      4  C   UNL     1       1.760   4.541   2.626  0.00  0.00    +0.000 A 
ATOM      5  C   UNL     1       2.736   3.784   3.287  0.00  0.00    +0.000 A 
ATOM      6  C   UNL     1       3.059   2.504   2.766  0.00  0.00    +0.000 A 
ENDROOT
BRANCH   4   7
ATOM      7  C   UNL     1       1.293   5.910   2.976  0.00  0.00    +0.000 C 
ATOM      8  N   UNL     1       2.202   6.838   3.408  0.00  0.00    +0.000 N 
ATOM      9  O   UNL     1       0.124   6.236   2.815  0.00  0.00    +0.000 OA
ATOM     10  H   UNL     1       3.116   6.615   3.770  0.00  0.00    +0.000 HD
ATOM     11  H   UNL     1       1.810   7.728   3.694  0.00  0.00    +0.000 HD
ENDBRANCH   4   7
BRANCH   5  12
ATOM     12  C   UNL     1       3.433   4.177   4.561  0.00  0.00    +0.000 C 
ATOM     13  F   UNL     1       2.961   5.290   5.178  0.00  0.00    +0.000 F 
ATOM     14  F   UNL     1       3.370   3.195   5.505  0.00  0.00    +0.000 F 
ATOM     15  F   UNL     1       4.760   4.411   4.363  0.00  0.00    +0.000 F 
ENDBRANCH   5  12
BRANCH   1  16
ATOM     16  O   UNL     1       2.763   0.678   1.352  0.00  0.00    +0.000 OA
BRANCH  16  18
ATOM     17  C   UNL     1       1.068  -0.509   0.024  0.00  0.00    +0.000 C 
ATOM     18  C   UNL     1       2.452   0.146   0.052  0.00  0.00    +0.000 C 
BRANCH  18  19
ATOM     19  C   UNL     1       3.507  -0.911  -0.271  0.00  0.00    +0.000 A 
ATOM     20  N   UNL     1       3.549  -2.030   0.480  0.00  0.00    +0.000 NA
ATOM     21  C   UNL     1       4.491  -2.938   0.173  0.00  0.00    +0.000 A 
ATOM     22  C   UNL     1       5.389  -2.778  -0.853  0.00  0.00    +0.000 A 
ATOM     23  C   UNL     1       5.288  -1.607  -1.584  0.00  0.00    +0.000 A 
ATOM     24  N   UNL     1       4.341  -0.669  -1.304  0.00  0.00    +0.000 NA
BRANCH  23  25
ATOM     25  C   UNL     1       6.254  -1.347  -2.729  0.00  0.00    +0.000 C 
ATOM     26  F   UNL     1       7.198  -2.326  -2.874  0.00  0.00    +0.000 F 
ATOM     27  F   UNL     1       5.631  -1.262  -3.939  0.00  0.00    +0.000 F 
ATOM     28  F   UNL     1       6.957  -0.188  -2.582  0.00  0.00    +0.000 F 
ENDBRANCH  23  25
ENDBRANCH  18  19
ENDBRANCH  16  18
ENDBRANCH   1  16
TORSDOF 6
