REMARK  Name = 
REMARK  8 active torsions:
REMARK  status: ('A' for Active; 'I' for Inactive)
REMARK    1  A    between atoms: C_1  and  C_2
REMARK    2  A    between atoms: C_2  and  C_3
REMARK    3  A    between atoms: C_2  and  C_4
REMARK    4  A    between atoms: C_2  and  C_5
REMARK    5  A    between atoms: C_7  and  C_8
REMARK    6  A    between atoms: C_8  and  N_9
REMARK    7  A    between atoms: C_14  and  C_15
REMARK    8  A    between atoms: C_23  and  O_24
REMARK                            x       y       z     vdW  Elec       q    Type
REMARK                         _______ _______ _______ _____ _____    ______ ____
ROOT
ATOM      1  N   UNL     1       3.916  -5.633   1.243  0.00  0.00    +0.000 N 
ATOM      2  N   UNL     1       4.386  -6.310   2.315  0.00  0.00    +0.000 NA
ATOM      3  N   UNL     1       5.208  -7.248   1.869  0.00  0.00    +0.000 NA
ATOM      4  C   UNL     1       5.241  -7.172   0.502  0.00  0.00    +0.000 A 
ATOM      5  C   UNL     1       5.888  -7.989  -0.436  0.00  0.00    +0.000 A 
ATOM      6  C   UNL     1       5.718  -7.705  -1.801  0.00  0.00    +0.000 A 
ATOM      7  C   UNL     1       4.929  -6.609  -2.199  0.00  0.00    +0.000 A 
ATOM      8  C   UNL     1       4.281  -5.785  -1.272  0.00  0.00    +0.000 A 
ATOM      9  C   UNL     1       4.450  -6.113   0.077  0.00  0.00    +0.000 A 
ENDROOT
BRANCH   6  10
ATOM     10  C   UNL     1       6.320  -8.538  -2.883  0.00  0.00    +0.000 C 
ATOM     11  N   UNL     1       7.070  -9.625  -2.531  0.00  0.00    +0.000 N 
ATOM     12  O   UNL     1       6.151  -8.268  -4.062  0.00  0.00    +0.000 OA
ATOM     13  H   UNL     1       7.283  -9.917  -1.592  0.00  0.00    +0.000 HD
ATOM     14  H   UNL     1       7.473 -10.157  -3.293  0.00  0.00    +0.000 HD
ENDBRANCH   6  10
BRANCH   1  15
ATOM     15  C   UNL     1       2.772  -4.750   1.392  0.00  0.00    +0.000 C 
BRANCH  15  18
ATOM     16  C   UNL     1       3.023  -0.921   1.079  0.00  0.00    +0.000 A 
ATOM     17  C   UNL     1       2.767  -2.294   0.819  0.00  0.00    +0.000 A 
ATOM     18  C   UNL     1       3.157  -3.322   1.696  0.00  0.00    +0.000 A 
ATOM     19  C   UNL     1       3.831  -2.974   2.869  0.00  0.00    +0.000 A 
ATOM     20  C   UNL     1       4.079  -1.635   3.164  0.00  0.00    +0.000 A 
ATOM     21  C   UNL     1       3.678  -0.625   2.283  0.00  0.00    +0.000 A 
BRANCH  16  23
ATOM     22  C   UNL     1       1.000   0.017  -0.072  0.00  0.00    +0.000 C 
ATOM     23  C   UNL     1       2.536   0.125   0.050  0.00  0.00    +0.000 C 
ATOM     24  C   UNL     1       3.175  -0.147  -1.334  0.00  0.00    +0.000 C 
ATOM     25  C   UNL     1       2.857   1.598   0.383  0.00  0.00    +0.000 C 
ENDBRANCH  16  23
BRANCH  21  26
ATOM     26  O   UNL     1       3.940   0.663   2.647  0.00  0.00    +0.000 OA
ATOM     27  H   UNL     1       4.415   0.672   3.494  0.00  0.00    +0.000 HD
ENDBRANCH  21  26
ENDBRANCH  15  18
ENDBRANCH   1  15
TORSDOF 5
