REMARK  Name = 
REMARK  5 active torsions:
REMARK  status: ('A' for Active; 'I' for Inactive)
REMARK    1  A    between atoms: C_2  and  C_4
REMARK    2  A    between atoms: C_7  and  O_8
REMARK    3  A    between atoms: O_8  and  C_9
REMARK    4  A    between atoms: C_9  and  C_10
REMARK    5  A    between atoms: C_14  and  C_15
REMARK                            x       y       z     vdW  Elec       q    Type
REMARK                         _______ _______ _______ _____ _____    ______ ____
ROOT
ATOM      1  C   UNL     1       6.249  -5.005  -0.612  0.00  0.00    +0.000 C 
ATOM      2  C   UNL     1       6.390  -5.561   0.802  0.00  0.00    +0.000 C 
ATOM      3  C   UNL     1       7.082  -4.299   0.434  0.00  0.00    +0.000 C 
ATOM      4  F   UNL     1       8.465  -4.364   0.349  0.00  0.00    +0.000 F 
ENDROOT
BRANCH   1   5
ATOM      5  C   UNL     1       6.900  -5.778  -1.748  0.00  0.00    +0.000 A 
ATOM      6  C   UNL     1       6.386  -7.012  -2.172  0.00  0.00    +0.000 A 
ATOM      7  C   UNL     1       6.946  -7.697  -3.251  0.00  0.00    +0.000 A 
ATOM      8  C   UNL     1       8.030  -7.151  -3.942  0.00  0.00    +0.000 A 
ATOM      9  C   UNL     1       8.573  -5.912  -3.575  0.00  0.00    +0.000 A 
ATOM     10  C   UNL     1       8.000  -5.262  -2.462  0.00  0.00    +0.000 A 
BRANCH   9  11
ATOM     11  C   UNL     1       9.654  -5.264  -4.349  0.00  0.00    +0.000 A 
ATOM     12  C   UNL     1      10.674  -4.525  -3.723  0.00  0.00    +0.000 A 
ATOM     13  C   UNL     1      11.627  -3.845  -4.482  0.00  0.00    +0.000 A 
ATOM     14  C   UNL     1      11.554  -3.931  -5.860  0.00  0.00    +0.000 A 
ATOM     15  N   UNL     1      10.616  -4.643  -6.512  0.00  0.00    +0.000 NA
ATOM     16  C   UNL     1       9.697  -5.283  -5.749  0.00  0.00    +0.000 A 
ATOM     17  F   UNL     1       8.748  -5.952  -6.427  0.00  0.00    +0.000 F 
ENDBRANCH   9  11
ENDBRANCH   1   5
BRANCH   1  18
ATOM     18  O   UNL     1       4.890  -4.565  -0.843  0.00  0.00    +0.000 OA
BRANCH  18  22
ATOM     19  C   UNL     1       3.855  -1.047  -2.586  0.00  0.00    +0.000 A 
ATOM     20  N   UNL     1       5.192  -1.269  -2.487  0.00  0.00    +0.000 NA
ATOM     21  C   UNL     1       5.548  -2.453  -1.933  0.00  0.00    +0.000 A 
ATOM     22  C   UNL     1       4.647  -3.384  -1.470  0.00  0.00    +0.000 A 
ATOM     23  C   UNL     1       3.318  -3.047  -1.645  0.00  0.00    +0.000 A 
ATOM     24  N   UNL     1       2.890  -1.893  -2.193  0.00  0.00    +0.000 NA
BRANCH  19  26
ATOM     25  N   UNL     1       4.445   1.152  -3.479  0.00  0.00    +0.000 N 
ATOM     26  C   UNL     1       3.424   0.297  -3.139  0.00  0.00    +0.000 C 
ATOM     27  O   UNL     1       2.257   0.635  -3.276  0.00  0.00    +0.000 OA
ATOM     28  H   UNL     1       4.212   2.067  -3.842  0.00  0.00    +0.000 HD
ATOM     29  H   UNL     1       5.409   0.873  -3.365  0.00  0.00    +0.000 HD
ENDBRANCH  19  26
ENDBRANCH  18  22
ENDBRANCH   1  18
TORSDOF 5
