REMARK  Name = 
REMARK  6 active torsions:
REMARK  status: ('A' for Active; 'I' for Inactive)
REMARK    1  A    between atoms: C_2  and  C_20
REMARK    2  A    between atoms: N_3  and  C_4
REMARK    3  A    between atoms: C_4  and  C_5
REMARK    4  A    between atoms: C_8  and  C_9
REMARK    5  A    between atoms: C_9  and  N_10
REMARK    6  A    between atoms: C_11  and  C_13
REMARK                            x       y       z     vdW  Elec       q    Type
REMARK                         _______ _______ _______ _____ _____    ______ ____
ROOT
ATOM      1  C   UNL     1      11.399 -10.457   2.203  0.00  0.00    +0.000 A 
ATOM      2  C   UNL     1      10.321 -10.106   3.028  0.00  0.00    +0.000 A 
ATOM      3  C   UNL     1      10.326  -8.900   3.738  0.00  0.00    +0.000 A 
ATOM      4  C   UNL     1      11.398  -8.005   3.621  0.00  0.00    +0.000 A 
ATOM      5  C   UNL     1      12.470  -8.351   2.788  0.00  0.00    +0.000 A 
ATOM      6  C   UNL     1      12.465  -9.557   2.077  0.00  0.00    +0.000 A 
ENDROOT
BRANCH   1   7
ATOM      7  C   UNL     1      11.413 -11.776   1.473  0.00  0.00    +0.000 C 
BRANCH   7  10
ATOM      8  O   UNL     1      11.384 -13.830  -0.371  0.00  0.00    +0.000 OA
ATOM      9  C   UNL     1      10.768 -12.803  -0.645  0.00  0.00    +0.000 C 
ATOM     10  N   UNL     1      10.801 -11.697   0.170  0.00  0.00    +0.000 N 
ATOM     11  H   UNL     1      10.132 -10.948   0.019  0.00  0.00    +0.000 HD
BRANCH   9  12
ATOM     12  C   UNL     1       9.978 -12.700  -1.878  0.00  0.00    +0.000 A 
ATOM     13  C   UNL     1      10.275 -13.518  -2.961  0.00  0.00    +0.000 A 
ATOM     14  S   UNL     1       9.245 -13.282  -4.300  0.00  0.00    +0.000 S 
ATOM     15  C   UNL     1       8.335 -12.113  -3.463  0.00  0.00    +0.000 A 
ATOM     16  N   UNL     1       7.249 -11.529  -4.036  0.00  0.00    +0.000 NA
ATOM     17  C   UNL     1       6.629 -10.692  -3.272  0.00  0.00    +0.000 A 
ATOM     18  N   UNL     1       7.006 -10.374  -1.993  0.00  0.00    +0.000 N 
ATOM     19  C   UNL     1       8.124 -10.901  -1.391  0.00  0.00    +0.000 A 
ATOM     20  O   UNL     1       8.477 -10.539  -0.274  0.00  0.00    +0.000 OA
ATOM     21  C   UNL     1       8.835 -11.878  -2.193  0.00  0.00    +0.000 A 
ATOM     22  H   UNL     1       6.490  -9.694  -1.456  0.00  0.00    +0.000 HD
ENDBRANCH   9  12
ENDBRANCH   7  10
ENDBRANCH   1   7
BRANCH   4  23
ATOM     23  C   UNL     1      11.397  -6.696   4.369  0.00  0.00    +0.000 C 
BRANCH  23  24
ATOM     24  N   UNL     1      12.036  -6.800   5.661  0.00  0.00    +0.000 N 
ATOM     25  C   UNL     1      12.197  -5.681   6.452  0.00  0.00    +0.000 C 
ATOM     26  O   UNL     1      11.809  -4.564   6.107  0.00  0.00    +0.000 OA
ATOM     27  H   UNL     1      12.192  -7.720   6.052  0.00  0.00    +0.000 HD
BRANCH  25  28
ATOM     28  C   UNL     1      12.878  -5.946   7.816  0.00  0.00    +0.000 C 
ATOM     29  C   UNL     1      14.292  -6.481   7.674  0.00  0.00    +0.000 C 
ATOM     30  C   UNL     1      15.117  -5.229   7.435  0.00  0.00    +0.000 C 
ATOM     31  C   UNL     1      14.363  -4.124   8.158  0.00  0.00    +0.000 C 
ATOM     32  N   UNL     1      13.074  -4.689   8.571  0.00  0.00    +0.000 NA
ATOM     33  H   UNL     1      12.325  -4.036   8.319  0.00  0.00    +0.000 HD
ENDBRANCH  25  28
ENDBRANCH  23  24
ENDBRANCH   4  23
TORSDOF 6
