REMARK  Name = 
REMARK  6 active torsions:
REMARK  status: ('A' for Active; 'I' for Inactive)
REMARK    1  A    between atoms: N_1  and  C_2
REMARK    2  A    between atoms: C_2  and  C_3
REMARK    3  A    between atoms: C_3  and  C_4
REMARK    4  A    between atoms: C_7  and  O_8
REMARK    5  A    between atoms: O_8  and  C_9
REMARK    6  A    between atoms: C_9  and  C_10
REMARK                            x       y       z     vdW  Elec       q    Type
REMARK                         _______ _______ _______ _____ _____    ______ ____
ROOT
ATOM      1  C   UNL     1       4.494   0.898  -1.196  0.00  0.00    +0.000 A 
ATOM      2  C   UNL     1       5.196   1.902  -1.876  0.00  0.00    +0.000 A 
ATOM      3  C   UNL     1       6.589   1.969  -1.792  0.00  0.00    +0.000 A 
ATOM      4  C   UNL     1       7.294   1.040  -1.026  0.00  0.00    +0.000 A 
ATOM      5  C   UNL     1       6.604  -0.008  -0.415  0.00  0.00    +0.000 A 
ATOM      6  C   UNL     1       5.213  -0.073  -0.490  0.00  0.00    +0.000 A 
ENDROOT
BRANCH   1   7
ATOM      7  C   UNL     1       2.987   0.850  -1.215  0.00  0.00    +0.000 C 
BRANCH   7   8
ATOM      8  C   UNL     1       2.448  -0.010  -2.359  0.00  0.00    +0.000 C 
BRANCH   8   9
ATOM      9  N   UNL     1       0.986  -0.044  -2.336  0.00  0.00    +0.000 NA
ATOM     10  H   UNL     1       0.651  -0.593  -3.127  0.00  0.00    +0.000 HD
ATOM     11  H   UNL     1       0.620   0.898  -2.468  0.00  0.00    +0.000 HD
ENDBRANCH   8   9
ENDBRANCH   7   8
ENDBRANCH   1   7
BRANCH   4  12
ATOM     12  O   UNL     1       8.646   1.246  -0.928  0.00  0.00    +0.000 OA
BRANCH  12  13
ATOM     13  C   UNL     1       9.248   0.673   0.236  0.00  0.00    +0.000 C 
BRANCH  13  14
ATOM     14  C   UNL     1      10.550   1.357   0.535  0.00  0.00    +0.000 A 
ATOM     15  C   UNL     1      11.632   1.302  -0.345  0.00  0.00    +0.000 A 
ATOM     16  C   UNL     1      12.831   1.920   0.000  0.00  0.00    +0.000 A 
ATOM     17  C   UNL     1      12.906   2.575   1.219  0.00  0.00    +0.000 A 
ATOM     18  N   UNL     1      11.881   2.652   2.094  0.00  0.00    +0.000 NA
ATOM     19  C   UNL     1      10.730   2.046   1.731  0.00  0.00    +0.000 A 
ENDBRANCH  13  14
ENDBRANCH  12  13
ENDBRANCH   4  12
TORSDOF 6
