REMARK  Name = 
REMARK  10 active torsions:
REMARK  status: ('A' for Active; 'I' for Inactive)
REMARK    1  A    between atoms: C_1  and  C_2
REMARK    2  A    between atoms: C_2  and  C_3
REMARK    3  A    between atoms: C_2  and  C_4
REMARK    4  A    between atoms: C_2  and  C_5
REMARK    5  A    between atoms: C_8  and  C_9
REMARK    6  A    between atoms: C_9  and  C_10
REMARK    7  A    between atoms: C_9  and  C_11
REMARK    8  A    between atoms: C_9  and  C_12
REMARK    9  A    between atoms: C_12  and  N_13
REMARK   10  A    between atoms: C_17  and  C_18
REMARK                            x       y       z     vdW  Elec       q    Type
REMARK                         _______ _______ _______ _____ _____    ______ ____
ROOT
ATOM      1  C   UNL     1       4.945  -3.133  -5.258  0.00  0.00    +0.000 C 
ENDROOT
BRANCH   1   2
ATOM      2  N   UNL     1       5.326  -4.050  -6.325  0.00  0.00    +0.000 N 
ATOM      3  C   UNL     1       6.131  -3.584  -7.353  0.00  0.00    +0.000 A 
ATOM      4  C   UNL     1       7.122  -2.604  -7.207  0.00  0.00    +0.000 A 
ATOM      5  N   UNL     1       7.948  -2.192  -8.205  0.00  0.00    +0.000 NA
ATOM      6  C   UNL     1       7.760  -2.837  -9.385  0.00  0.00    +0.000 A 
ATOM      7  C   UNL     1       6.789  -3.815  -9.551  0.00  0.00    +0.000 A 
ATOM      8  N   UNL     1       5.958  -4.195  -8.543  0.00  0.00    +0.000 NA
ATOM      9  H   UNL     1       4.584  -4.599  -6.754  0.00  0.00    +0.000 HD
BRANCH   6  10
ATOM     10  C   UNL     1       8.653  -2.473 -10.516  0.00  0.00    +0.000 C 
ATOM     11  N   UNL     1       9.574  -1.495 -10.265  0.00  0.00    +0.000 N 
ATOM     12  O   UNL     1       8.573  -3.018 -11.612  0.00  0.00    +0.000 OA
ATOM     13  H   UNL     1       9.628  -1.076  -9.341  0.00  0.00    +0.000 HD
ATOM     14  H   UNL     1      10.221  -1.225 -10.994  0.00  0.00    +0.000 HD
ENDBRANCH   6  10
ENDBRANCH   1   2
BRANCH   1  15
ATOM     15  C   UNL     1       4.049  -3.772  -4.149  0.00  0.00    +0.000 C 
ATOM     16  C   UNL     1       4.800  -4.968  -3.524  0.00  0.00    +0.000 C 
ATOM     17  C   UNL     1       2.726  -4.258  -4.784  0.00  0.00    +0.000 C 
BRANCH  15  21
ATOM     18  C   UNL     1       2.925  -0.869  -1.016  0.00  0.00    +0.000 A 
ATOM     19  C   UNL     1       3.796  -0.518  -2.054  0.00  0.00    +0.000 A 
ATOM     20  C   UNL     1       4.179  -1.436  -3.038  0.00  0.00    +0.000 A 
ATOM     21  C   UNL     1       3.707  -2.756  -3.032  0.00  0.00    +0.000 A 
ATOM     22  C   UNL     1       2.868  -3.122  -1.967  0.00  0.00    +0.000 A 
ATOM     23  C   UNL     1       2.486  -2.201  -0.983  0.00  0.00    +0.000 A 
BRANCH  18  25
ATOM     24  C   UNL     1       3.020   1.560  -0.190  0.00  0.00    +0.000 C 
ATOM     25  C   UNL     1       2.431   0.147   0.025  0.00  0.00    +0.000 C 
ATOM     26  C   UNL     1       2.818  -0.299   1.450  0.00  0.00    +0.000 C 
ATOM     27  C   UNL     1       0.893   0.261  -0.060  0.00  0.00    +0.000 C 
ENDBRANCH  18  25
ENDBRANCH  15  21
ENDBRANCH   1  15
TORSDOF 5
