REMARK  Name = 
REMARK  8 active torsions:
REMARK  status: ('A' for Active; 'I' for Inactive)
REMARK    1  A    between atoms: C_2  and  C_3
REMARK    2  A    between atoms: N_7  and  C_8
REMARK    3  A    between atoms: C_8  and  C_9
REMARK    4  A    between atoms: C_9  and  C_10
REMARK    5  A    between atoms: C_9  and  C_12
REMARK    6  A    between atoms: C_10  and  O_11
REMARK    7  A    between atoms: C_16  and  N_17
REMARK    8  A    between atoms: N_17  and  C_18
REMARK                            x       y       z     vdW  Elec       q    Type
REMARK                         _______ _______ _______ _____ _____    ______ ____
ROOT
ATOM      1  C   UNL     1      -5.816   1.175  -0.228  0.00  0.00    +0.000 C 
ENDROOT
BRANCH   1   2
ATOM      2  C   UNL     1      -6.643   2.471  -0.266  0.00  0.00    +0.000 A 
ATOM      3  C   UNL     1      -8.023   2.416  -0.519  0.00  0.00    +0.000 A 
ATOM      4  C   UNL     1      -8.810   3.569  -0.455  0.00  0.00    +0.000 A 
ATOM      5  C   UNL     1      -8.226   4.809  -0.187  0.00  0.00    +0.000 A 
ATOM      6  C   UNL     1      -6.856   4.903   0.032  0.00  0.00    +0.000 A 
ATOM      7  C   UNL     1      -6.084   3.732  -0.006  0.00  0.00    +0.000 A 
BRANCH   6   8
ATOM      8  N   UNL     1      -6.180   6.113   0.270  0.00  0.00    +0.000 N 
ATOM      9  H   UNL     1      -5.645   6.063   1.136  0.00  0.00    +0.000 HD
BRANCH   8  10
ATOM     10  C   UNL     1      -6.617   7.433  -0.072  0.00  0.00    +0.000 C 
ATOM     11  C   UNL     1      -5.632   8.520   0.418  0.00  0.00    +0.000 C 
ATOM     12  N   UNL     1      -6.783   9.318   0.892  0.00  0.00    +0.000 NA
ATOM     13  C   UNL     1      -7.610   8.088   0.903  0.00  0.00    +0.000 C 
ATOM     14  H   UNL     1      -7.095  10.008   0.208  0.00  0.00    +0.000 HD
ENDBRANCH   8  10
ENDBRANCH   6   8
ENDBRANCH   1   2
BRANCH   1  15
ATOM     15  C   UNL     1      -6.350   0.298   0.938  0.00  0.00    +0.000 C 
BRANCH  15  20
ATOM     16  C   UNL     1      -6.537  -3.858   3.883  0.00  0.00    +0.000 A 
ATOM     17  C   UNL     1      -7.578  -3.045   3.450  0.00  0.00    +0.000 A 
ATOM     18  C   UNL     1      -7.319  -2.051   2.506  0.00  0.00    +0.000 A 
ATOM     19  C   UNL     1      -6.028  -1.883   2.023  0.00  0.00    +0.000 A 
ATOM     20  N   UNL     1      -5.684  -0.993   1.025  0.00  0.00    +0.000 N 
ATOM     21  N   UNL     1      -5.008  -2.655   2.451  0.00  0.00    +0.000 NA
ATOM     22  C   UNL     1      -5.275  -3.618   3.362  0.00  0.00    +0.000 A 
ATOM     23  H   UNL     1      -4.665  -0.992   1.020  0.00  0.00    +0.000 HD
BRANCH  16  25
ATOM     24  N   UNL     1      -6.938  -5.788   5.555  0.00  0.00    +0.000 NA
ATOM     25  C   UNL     1      -6.753  -4.919   4.805  0.00  0.00    +0.000 C 
ENDBRANCH  16  25
ENDBRANCH  15  20
ENDBRANCH   1  15
BRANCH   1  26
ATOM     26  C   UNL     1      -4.290   1.391  -0.089  0.00  0.00    +0.000 C 
BRANCH  26  27
ATOM     27  O   UNL     1      -3.706   2.017  -1.231  0.00  0.00    +0.000 OA
ATOM     28  H   UNL     1      -4.371   2.581  -1.661  0.00  0.00    +0.000 HD
ENDBRANCH  26  27
ENDBRANCH   1  26
TORSDOF 8
