REMARK  Name = 
REMARK  6 active torsions:
REMARK  status: ('A' for Active; 'I' for Inactive)
REMARK    1  A    between atoms: N_1  and  C_2
REMARK    2  A    between atoms: C_2  and  C_3
REMARK    3  A    between atoms: C_3  and  C_4
REMARK    4  A    between atoms: C_7  and  C_8
REMARK    5  A    between atoms: C_8  and  N_9
REMARK    6  A    between atoms: C_15  and  C_16
REMARK                            x       y       z     vdW  Elec       q    Type
REMARK                         _______ _______ _______ _____ _____    ______ ____
ROOT
ATOM      1  N   UNL     1       9.261  -0.561   2.942  0.00  0.00    +0.000 N 
ATOM      2  N   UNL     1       9.471  -1.849   3.313  0.00  0.00    +0.000 NA
ATOM      3  C   UNL     1      10.147  -1.737   4.465  0.00  0.00    +0.000 A 
ATOM      4  C   UNL     1      10.390  -0.398   4.820  0.00  0.00    +0.000 A 
ATOM      5  N   UNL     1      11.064   0.140   5.864  0.00  0.00    +0.000 NA
ATOM      6  C   UNL     1      11.123   1.497   5.852  0.00  0.00    +0.000 A 
ATOM      7  C   UNL     1      10.549   2.334   4.895  0.00  0.00    +0.000 A 
ATOM      8  C   UNL     1       9.842   1.756   3.834  0.00  0.00    +0.000 A 
ATOM      9  C   UNL     1       9.792   0.356   3.821  0.00  0.00    +0.000 A 
ENDROOT
BRANCH   7  10
ATOM     10  C   UNL     1      10.741   3.799   5.041  0.00  0.00    +0.000 C 
ATOM     11  N   UNL     1      10.199   4.628   4.102  0.00  0.00    +0.000 N 
ATOM     12  O   UNL     1      11.377   4.265   5.977  0.00  0.00    +0.000 OA
ATOM     13  H   UNL     1       9.675   4.345   3.289  0.00  0.00    +0.000 HD
ATOM     14  H   UNL     1      10.364   5.620   4.226  0.00  0.00    +0.000 HD
ENDBRANCH   7  10
BRANCH   1  15
ATOM     15  C   UNL     1       8.712  -0.276   1.621  0.00  0.00    +0.000 C 
BRANCH  15  19
ATOM     16  C   UNL     1       4.380  -0.086   1.620  0.00  0.00    +0.000 A 
ATOM     17  C   UNL     1       5.140   1.069   1.845  0.00  0.00    +0.000 A 
ATOM     18  C   UNL     1       6.537   1.016   1.842  0.00  0.00    +0.000 A 
ATOM     19  C   UNL     1       7.206  -0.194   1.613  0.00  0.00    +0.000 A 
ATOM     20  C   UNL     1       6.443  -1.345   1.368  0.00  0.00    +0.000 A 
ATOM     21  C   UNL     1       5.046  -1.290   1.362  0.00  0.00    +0.000 A 
BRANCH  16  22
ATOM     22  C   UNL     1       2.871  -0.037   1.681  0.00  0.00    +0.000 C 
BRANCH  22  23
ATOM     23  C   UNL     1       2.223   0.299   0.334  0.00  0.00    +0.000 C 
BRANCH  23  24
ATOM     24  N   UNL     1       0.767   0.378   0.462  0.00  0.00    +0.000 NA
ATOM     25  H   UNL     1       0.360   0.636  -0.436  0.00  0.00    +0.000 HD
ATOM     26  H   UNL     1       0.517   1.123   1.112  0.00  0.00    +0.000 HD
ENDBRANCH  23  24
ENDBRANCH  22  23
ENDBRANCH  16  22
ENDBRANCH  15  19
ENDBRANCH   1  15
TORSDOF 6
