REMARK  Name = 
REMARK  3 active torsions:
REMARK  status: ('A' for Active; 'I' for Inactive)
REMARK    1  A    between atoms: C_5  and  C_6
REMARK    2  A    between atoms: C_6  and  N_7
REMARK    3  A    between atoms: C_11  and  C_12
REMARK                            x       y       z     vdW  Elec       q    Type
REMARK                         _______ _______ _______ _____ _____    ______ ____
ROOT
ATOM      1  N   UNL     1      -3.734  -1.275   0.722  0.00  0.00    +0.000 N 
ATOM      2  C   UNL     1      -3.925  -2.562   0.229  0.00  0.00    +0.000 A 
ATOM      3  C   UNL     1      -3.333  -3.053  -0.924  0.00  0.00    +0.000 A 
ATOM      4  C   UNL     1      -3.577  -4.376  -1.307  0.00  0.00    +0.000 A 
ATOM      5  C   UNL     1      -4.412  -5.180  -0.529  0.00  0.00    +0.000 A 
ATOM      6  C   UNL     1      -4.948  -4.612   0.612  0.00  0.00    +0.000 A 
ATOM      7  N   UNL     1      -4.722  -3.335   0.999  0.00  0.00    +0.000 NA
ATOM      8  H   UNL     1      -4.335  -1.161   1.531  0.00  0.00    +0.000 HD
ENDROOT
BRANCH   5   9
ATOM      9  C   UNL     1      -4.747  -6.598  -0.869  0.00  0.00    +0.000 C 
ATOM     10  F   UNL     1      -4.184  -7.027  -2.032  0.00  0.00    +0.000 F 
ATOM     11  F   UNL     1      -4.342  -7.477   0.089  0.00  0.00    +0.000 F 
ATOM     12  F   UNL     1      -6.088  -6.795  -1.011  0.00  0.00    +0.000 F 
ENDBRANCH   5   9
BRANCH   1  13
ATOM     13  C   UNL     1      -3.333  -0.095  -0.048  0.00  0.00    +0.000 C 
ATOM     14  C   UNL     1      -4.234   0.505  -1.111  0.00  0.00    +0.000 C 
ATOM     15  C   UNL     1      -4.162   1.159   0.227  0.00  0.00    +0.000 C 
BRANCH  13  20
ATOM     16  F   UNL     1       2.265   0.859  -0.310  0.00  0.00    +0.000 F 
ATOM     17  C   UNL     1       0.952   0.606  -0.251  0.00  0.00    +0.000 A 
ATOM     18  C   UNL     1       0.245   0.380  -1.424  0.00  0.00    +0.000 A 
ATOM     19  C   UNL     1      -1.129   0.132  -1.363  0.00  0.00    +0.000 A 
ATOM     20  C   UNL     1      -1.820   0.118  -0.135  0.00  0.00    +0.000 A 
ATOM     21  C   UNL     1      -1.061   0.329   1.033  0.00  0.00    +0.000 A 
ATOM     22  C   UNL     1       0.312   0.573   0.978  0.00  0.00    +0.000 A 
ENDBRANCH  13  20
ENDBRANCH   1  13
TORSDOF 3
