REMARK  Name = 
REMARK  5 active torsions:
REMARK  status: ('A' for Active; 'I' for Inactive)
REMARK    1  A    between atoms: C_2  and  C_20
REMARK    2  A    between atoms: N_3  and  C_4
REMARK    3  A    between atoms: C_4  and  C_5
REMARK    4  A    between atoms: C_8  and  C_9
REMARK    5  A    between atoms: C_10  and  C_11
REMARK                            x       y       z     vdW  Elec       q    Type
REMARK                         _______ _______ _______ _____ _____    ______ ____
ROOT
ATOM      1  C   UNL     1       2.428  -1.061  -2.226  0.00  0.00    +0.000 C 
ENDROOT
BRANCH   1   2
ATOM      2  C   UNL     1       3.422  -1.510  -3.265  0.00  0.00    +0.000 A 
ATOM      3  C   UNL     1       4.231  -0.568  -3.908  0.00  0.00    +0.000 A 
ATOM      4  C   UNL     1       5.149  -0.966  -4.882  0.00  0.00    +0.000 A 
ATOM      5  C   UNL     1       5.283  -2.315  -5.236  0.00  0.00    +0.000 A 
ATOM      6  C   UNL     1       4.447  -3.253  -4.619  0.00  0.00    +0.000 A 
ATOM      7  C   UNL     1       3.523  -2.855  -3.643  0.00  0.00    +0.000 A 
BRANCH   5   8
ATOM      8  C   UNL     1       6.214  -2.750  -6.288  0.00  0.00    +0.000 C 
ATOM      9  C   UNL     1       7.402  -2.168  -6.513  0.00  0.00    +0.000 C 
BRANCH   9  10
ATOM     10  C   UNL     1       8.242  -2.602  -7.654  0.00  0.00    +0.000 C 
ATOM     11  O   UNL     1       7.733  -2.885  -8.735  0.00  0.00    +0.000 OA
ATOM     12  N   UNL     1       9.598  -2.614  -7.431  0.00  0.00    +0.000 N 
ATOM     13  C   UNL     1      10.301  -2.516  -6.165  0.00  0.00    +0.000 C 
ATOM     14  C   UNL     1      11.683  -2.043  -6.576  0.00  0.00    +0.000 C 
ATOM     15  C   UNL     1      11.917  -2.758  -7.903  0.00  0.00    +0.000 C 
ATOM     16  C   UNL     1      10.524  -2.903  -8.512  0.00  0.00    +0.000 C 
ENDBRANCH   9  10
ENDBRANCH   5   8
ENDBRANCH   1   2
BRANCH   1  19
ATOM     17  O   UNL     1       1.552   1.518  -2.956  0.00  0.00    +0.000 OA
ATOM     18  C   UNL     1       0.832   0.553  -3.201  0.00  0.00    +0.000 C 
ATOM     19  N   UNL     1       1.162  -0.724  -2.825  0.00  0.00    +0.000 N 
ATOM     20  H   UNL     1       0.638  -1.500  -3.211  0.00  0.00    +0.000 HD
BRANCH  18  21
ATOM     21  C   UNL     1      -0.469   0.717  -3.862  0.00  0.00    +0.000 A 
ATOM     22  C   UNL     1      -1.104   1.952  -3.842  0.00  0.00    +0.000 A 
ATOM     23  S   UNL     1      -2.619   1.956  -4.625  0.00  0.00    +0.000 S 
ATOM     24  C   UNL     1      -2.459   0.318  -5.062  0.00  0.00    +0.000 A 
ATOM     25  N   UNL     1      -3.423  -0.310  -5.786  0.00  0.00    +0.000 NA
ATOM     26  C   UNL     1      -3.147  -1.533  -6.092  0.00  0.00    +0.000 A 
ATOM     27  N   UNL     1      -2.004  -2.193  -5.729  0.00  0.00    +0.000 N 
ATOM     28  C   UNL     1      -1.042  -1.621  -4.929  0.00  0.00    +0.000 A 
ATOM     29  O   UNL     1      -0.097  -2.285  -4.509  0.00  0.00    +0.000 OA
ATOM     30  C   UNL     1      -1.277  -0.230  -4.598  0.00  0.00    +0.000 A 
ATOM     31  H   UNL     1      -1.864  -3.159  -5.976  0.00  0.00    +0.000 HD
ENDBRANCH  18  21
ENDBRANCH   1  19
TORSDOF 5
