REMARK  Name = 
REMARK  7 active torsions:
REMARK  status: ('A' for Active; 'I' for Inactive)
REMARK    1  A    between atoms: C_2  and  C_3
REMARK    2  A    between atoms: C_5  and  C_6
REMARK    3  A    between atoms: C_6  and  N_7
REMARK    4  A    between atoms: C_8  and  C_10
REMARK    5  A    between atoms: C_17  and  C_18
REMARK    6  A    between atoms: C_18  and  N_19
REMARK    7  A    between atoms: C_20  and  C_22
REMARK                            x       y       z     vdW  Elec       q    Type
REMARK                         _______ _______ _______ _____ _____    ______ ____
ROOT
ATOM      1  C   UNL     1      -0.535  -0.098  -0.162  0.00  0.00    +0.000 A 
ATOM      2  C   UNL     1       0.179  -1.306  -0.115  0.00  0.00    +0.000 A 
ATOM      3  C   UNL     1       1.576  -1.316   0.006  0.00  0.00    +0.000 A 
ATOM      4  C   UNL     1       2.256  -0.095   0.068  0.00  0.00    +0.000 A 
ATOM      5  C   UNL     1       1.552   1.111   0.027  0.00  0.00    +0.000 A 
ATOM      6  C   UNL     1       0.153   1.129  -0.100  0.00  0.00    +0.000 A 
ENDROOT
BRANCH   1   8
ATOM      7  N   UNL     1      -3.120  -0.217  -0.403  0.00  0.00    +0.000 NA
ATOM      8  C   UNL     1      -1.967  -0.160  -0.287  0.00  0.00    +0.000 C 
ENDBRANCH   1   8
BRANCH   3   9
ATOM      9  C   UNL     1       2.324  -2.623   0.048  0.00  0.00    +0.000 C 
BRANCH   9  10
ATOM     10  N   UNL     1       2.697  -3.067  -1.269  0.00  0.00    +0.000 N 
ATOM     11  C   UNL     1       1.945  -3.950  -2.010  0.00  0.00    +0.000 C 
ATOM     12  O   UNL     1       0.875  -4.406  -1.616  0.00  0.00    +0.000 OA
ATOM     13  H   UNL     1       3.531  -2.693  -1.706  0.00  0.00    +0.000 HD
BRANCH  11  14
ATOM     14  C   UNL     1       2.546  -4.292  -3.284  0.00  0.00    +0.000 A 
ATOM     15  C   UNL     1       2.103  -5.090  -4.323  0.00  0.00    +0.000 A 
ATOM     16  C   UNL     1       3.120  -5.082  -5.308  0.00  0.00    +0.000 A 
ATOM     17  C   UNL     1       4.124  -4.284  -4.815  0.00  0.00    +0.000 A 
ATOM     18  O   UNL     1       3.788  -3.793  -3.595  0.00  0.00    +0.000 OA
ENDBRANCH  11  14
ENDBRANCH   9  10
ENDBRANCH   3   9
BRANCH   6  19
ATOM     19  C   UNL     1      -0.549   2.465  -0.144  0.00  0.00    +0.000 C 
BRANCH  19  20
ATOM     20  N   UNL     1      -0.963   2.893   1.167  0.00  0.00    +0.000 N 
ATOM     21  C   UNL     1      -0.270   3.807   1.919  0.00  0.00    +0.000 C 
ATOM     22  O   UNL     1       0.791   4.296   1.541  0.00  0.00    +0.000 OA
ATOM     23  H   UNL     1      -1.742   2.394   1.582  0.00  0.00    +0.000 HD
BRANCH  21  24
ATOM     24  C   UNL     1      -0.907   4.231   3.175  0.00  0.00    +0.000 A 
ATOM     25  C   UNL     1      -0.530   5.425   3.773  0.00  0.00    +0.000 A 
ATOM     26  S   UNL     1      -1.432   5.808   5.171  0.00  0.00    +0.000 S 
ATOM     27  C   UNL     1      -2.333   4.371   5.050  0.00  0.00    +0.000 A 
ATOM     28  N   UNL     1      -3.306   4.076   5.954  0.00  0.00    +0.000 NA
ATOM     29  C   UNL     1      -3.901   2.948   5.749  0.00  0.00    +0.000 A 
ATOM     30  N   UNL     1      -3.604   2.083   4.728  0.00  0.00    +0.000 N 
ATOM     31  C   UNL     1      -2.637   2.343   3.789  0.00  0.00    +0.000 A 
ATOM     32  O   UNL     1      -2.408   1.556   2.876  0.00  0.00    +0.000 OA
ATOM     33  C   UNL     1      -1.947   3.607   3.962  0.00  0.00    +0.000 A 
ATOM     34  H   UNL     1      -4.108   1.215   4.620  0.00  0.00    +0.000 HD
ENDBRANCH  21  24
ENDBRANCH  19  20
ENDBRANCH   6  19
TORSDOF 7
