REMARK  Name = 
REMARK  6 active torsions:
REMARK  status: ('A' for Active; 'I' for Inactive)
REMARK    1  A    between atoms: C_2  and  C_20
REMARK    2  A    between atoms: N_3  and  C_4
REMARK    3  A    between atoms: C_4  and  C_5
REMARK    4  A    between atoms: C_8  and  C_9
REMARK    5  A    between atoms: C_9  and  N_10
REMARK    6  A    between atoms: C_11  and  C_13
REMARK                            x       y       z     vdW  Elec       q    Type
REMARK                         _______ _______ _______ _____ _____    ______ ____
ROOT
ATOM      1  C   UNL     1       2.239  -1.010  -2.180  0.00  0.00    +0.000 C 
ENDROOT
BRANCH   1   2
ATOM      2  C   UNL     1       3.242  -1.408  -3.233  0.00  0.00    +0.000 A 
ATOM      3  C   UNL     1       4.021  -0.437  -3.878  0.00  0.00    +0.000 A 
ATOM      4  C   UNL     1       4.923  -0.797  -4.884  0.00  0.00    +0.000 A 
ATOM      5  C   UNL     1       5.049  -2.134  -5.282  0.00  0.00    +0.000 A 
ATOM      6  C   UNL     1       4.270  -3.105  -4.638  0.00  0.00    +0.000 A 
ATOM      7  C   UNL     1       3.369  -2.744  -3.631  0.00  0.00    +0.000 A 
BRANCH   5   8
ATOM      8  C   UNL     1       5.996  -2.524  -6.386  0.00  0.00    +0.000 C 
BRANCH   8   9
ATOM      9  N   UNL     1       7.302  -2.889  -5.888  0.00  0.00    +0.000 N 
ATOM     10  C   UNL     1       8.314  -3.210  -6.759  0.00  0.00    +0.000 C 
ATOM     11  O   UNL     1       8.163  -3.169  -7.979  0.00  0.00    +0.000 OA
ATOM     12  H   UNL     1       7.412  -3.050  -4.891  0.00  0.00    +0.000 HD
BRANCH  10  13
ATOM     13  C   UNL     1       9.616  -3.732  -6.160  0.00  0.00    +0.000 C 
ATOM     14  C   UNL     1       9.541  -5.218  -5.893  0.00  0.00    +0.000 C 
ATOM     15  C   UNL     1       8.942  -5.281  -4.504  0.00  0.00    +0.000 C 
ATOM     16  O   UNL     1       9.277  -4.049  -3.843  0.00  0.00    +0.000 OA
ATOM     17  C   UNL     1       9.940  -3.187  -4.787  0.00  0.00    +0.000 C 
ENDBRANCH  10  13
ENDBRANCH   8   9
ENDBRANCH   5   8
ENDBRANCH   1   2
BRANCH   1  20
ATOM     18  O   UNL     1      -0.118  -0.407  -0.802  0.00  0.00    +0.000 OA
ATOM     19  C   UNL     1      -0.133  -0.385  -2.028  0.00  0.00    +0.000 C 
ATOM     20  N   UNL     1       0.959  -0.735  -2.781  0.00  0.00    +0.000 N 
ATOM     21  H   UNL     1       0.971  -0.500  -3.767  0.00  0.00    +0.000 HD
BRANCH  19  22
ATOM     22  C   UNL     1      -1.343  -0.035  -2.779  0.00  0.00    +0.000 A 
ATOM     23  C   UNL     1      -2.595  -0.193  -2.200  0.00  0.00    +0.000 A 
ATOM     24  S   UNL     1      -3.884   0.225  -3.237  0.00  0.00    +0.000 S 
ATOM     25  C   UNL     1      -2.813   0.682  -4.479  0.00  0.00    +0.000 A 
ATOM     26  N   UNL     1      -3.275   1.168  -5.663  0.00  0.00    +0.000 NA
ATOM     27  C   UNL     1      -2.351   1.506  -6.496  0.00  0.00    +0.000 A 
ATOM     28  N   UNL     1      -1.006   1.401  -6.259  0.00  0.00    +0.000 N 
ATOM     29  C   UNL     1      -0.494   0.890  -5.092  0.00  0.00    +0.000 A 
ATOM     30  O   UNL     1       0.715   0.767  -4.932  0.00  0.00    +0.000 OA
ATOM     31  C   UNL     1      -1.492   0.502  -4.113  0.00  0.00    +0.000 A 
ATOM     32  H   UNL     1      -0.333   1.676  -6.958  0.00  0.00    +0.000 HD
ENDBRANCH  19  22
ENDBRANCH   1  20
TORSDOF 6
