REMARK  Name = 
REMARK  6 active torsions:
REMARK  status: ('A' for Active; 'I' for Inactive)
REMARK    1  A    between atoms: C_2  and  C_19
REMARK    2  A    between atoms: N_3  and  C_4
REMARK    3  A    between atoms: C_4  and  C_5
REMARK    4  A    between atoms: C_8  and  C_9
REMARK    5  A    between atoms: C_9  and  O_10
REMARK    6  A    between atoms: O_10  and  C_11
REMARK                            x       y       z     vdW  Elec       q    Type
REMARK                         _______ _______ _______ _____ _____    ______ ____
ROOT
ATOM      1  O   UNL     1       3.374   1.390   1.342  0.00  0.00    +0.000 OA
ATOM      2  C   UNL     1       3.467   0.360   0.673  0.00  0.00    +0.000 C 
ATOM      3  N   UNL     1       2.926  -0.834   1.075  0.00  0.00    +0.000 N 
ATOM      4  H   UNL     1       3.164  -1.686   0.581  0.00  0.00    +0.000 HD
ENDROOT
BRANCH   2   5
ATOM      5  C   UNL     1       4.133   0.364  -0.631  0.00  0.00    +0.000 A 
ATOM      6  C   UNL     1       4.200   1.529  -1.383  0.00  0.00    +0.000 A 
ATOM      7  S   UNL     1       5.056   1.344  -2.848  0.00  0.00    +0.000 S 
ATOM      8  C   UNL     1       5.384  -0.293  -2.513  0.00  0.00    +0.000 A 
ATOM      9  N   UNL     1       6.129  -1.055  -3.362  0.00  0.00    +0.000 NA
ATOM     10  C   UNL     1       6.327  -2.263  -2.958  0.00  0.00    +0.000 A 
ATOM     11  N   UNL     1       5.833  -2.789  -1.793  0.00  0.00    +0.000 N 
ATOM     12  C   UNL     1       5.006  -2.086  -0.951  0.00  0.00    +0.000 A 
ATOM     13  O   UNL     1       4.454  -2.640  -0.006  0.00  0.00    +0.000 OA
ATOM     14  C   UNL     1       4.810  -0.701  -1.323  0.00  0.00    +0.000 A 
ATOM     15  H   UNL     1       5.981  -3.758  -1.553  0.00  0.00    +0.000 HD
ENDBRANCH   2   5
BRANCH   3  16
ATOM     16  C   UNL     1       2.264  -0.985   2.346  0.00  0.00    +0.000 C 
BRANCH  16  17
ATOM     17  C   UNL     1       3.197  -1.452   3.434  0.00  0.00    +0.000 A 
ATOM     18  C   UNL     1       3.927  -0.519   4.183  0.00  0.00    +0.000 A 
ATOM     19  C   UNL     1       4.742  -0.932   5.241  0.00  0.00    +0.000 A 
ATOM     20  C   UNL     1       4.860  -2.291   5.558  0.00  0.00    +0.000 A 
ATOM     21  C   UNL     1       4.140  -3.226   4.803  0.00  0.00    +0.000 A 
ATOM     22  C   UNL     1       3.329  -2.813   3.741  0.00  0.00    +0.000 A 
BRANCH  20  23
ATOM     23  C   UNL     1       5.755  -2.746   6.686  0.00  0.00    +0.000 C 
BRANCH  23  24
ATOM     24  O   UNL     1       5.023  -2.776   7.911  0.00  0.00    +0.000 OA
BRANCH  24  25
ATOM     25  C   UNL     1       5.727  -3.146   9.023  0.00  0.00    +0.000 A 
ATOM     26  C   UNL     1       7.059  -3.553   9.061  0.00  0.00    +0.000 A 
ATOM     27  C   UNL     1       7.648  -3.885  10.281  0.00  0.00    +0.000 A 
ATOM     28  C   UNL     1       6.881  -3.805  11.431  0.00  0.00    +0.000 A 
ATOM     29  N   UNL     1       5.587  -3.426  11.437  0.00  0.00    +0.000 NA
ATOM     30  C   UNL     1       5.044  -3.106  10.235  0.00  0.00    +0.000 A 
ENDBRANCH  24  25
ENDBRANCH  23  24
ENDBRANCH  20  23
ENDBRANCH  16  17
ENDBRANCH   3  16
TORSDOF 6
