REMARK  Name = 
REMARK  6 active torsions:
REMARK  status: ('A' for Active; 'I' for Inactive)
REMARK    1  A    between atoms: N_1  and  C_2
REMARK    2  A    between atoms: C_2  and  C_3
REMARK    3  A    between atoms: C_6  and  O_7
REMARK    4  A    between atoms: O_7  and  C_8
REMARK    5  A    between atoms: C_8  and  C_9
REMARK    6  A    between atoms: C_13  and  C_14
REMARK                            x       y       z     vdW  Elec       q    Type
REMARK                         _______ _______ _______ _____ _____    ______ ____
ROOT
ATOM      1  O   UNL     1       3.961   3.974  -3.656  0.00  0.00    +0.000 OA
ENDROOT
BRANCH   1   5
ATOM      2  C   UNL     1       2.947   1.386  -0.532  0.00  0.00    +0.000 A 
ATOM      3  C   UNL     1       3.403   0.916  -1.772  0.00  0.00    +0.000 A 
ATOM      4  C   UNL     1       3.759   1.810  -2.786  0.00  0.00    +0.000 A 
ATOM      5  C   UNL     1       3.649   3.184  -2.579  0.00  0.00    +0.000 A 
ATOM      6  C   UNL     1       3.238   3.660  -1.333  0.00  0.00    +0.000 A 
ATOM      7  C   UNL     1       2.876   2.768  -0.321  0.00  0.00    +0.000 A 
BRANCH   2   8
ATOM      8  C   UNL     1       2.529   0.430   0.554  0.00  0.00    +0.000 C 
BRANCH   8   9
ATOM      9  N   UNL     1       3.639  -0.416   0.974  0.00  0.00    +0.000 NA
ATOM     10  H   UNL     1       3.358  -0.952   1.792  0.00  0.00    +0.000 HD
ATOM     11  H   UNL     1       4.410   0.181   1.268  0.00  0.00    +0.000 HD
ENDBRANCH   8   9
ENDBRANCH   2   8
ENDBRANCH   1   5
BRANCH   1  12
ATOM     12  C   UNL     1       3.412   5.292  -3.604  0.00  0.00    +0.000 C 
BRANCH  12  13
ATOM     13  C   UNL     1       3.381   5.966  -4.957  0.00  0.00    +0.000 A 
ATOM     14  C   UNL     1       2.723   7.201  -5.067  0.00  0.00    +0.000 A 
ATOM     15  C   UNL     1       2.651   7.864  -6.290  0.00  0.00    +0.000 A 
ATOM     16  C   UNL     1       3.245   7.304  -7.419  0.00  0.00    +0.000 A 
ATOM     17  C   UNL     1       3.921   6.078  -7.335  0.00  0.00    +0.000 A 
ATOM     18  C   UNL     1       3.981   5.414  -6.097  0.00  0.00    +0.000 A 
BRANCH  17  19
ATOM     19  C   UNL     1       4.582   5.467  -8.545  0.00  0.00    +0.000 C 
ATOM     20  F   UNL     1       4.474   6.231  -9.669  0.00  0.00    +0.000 F 
ATOM     21  F   UNL     1       5.917   5.264  -8.364  0.00  0.00    +0.000 F 
ATOM     22  F   UNL     1       4.059   4.252  -8.871  0.00  0.00    +0.000 F 
ENDBRANCH  17  19
ENDBRANCH  12  13
ENDBRANCH   1  12
TORSDOF 6
