REMARK  Name = 
REMARK  4 active torsions:
REMARK  status: ('A' for Active; 'I' for Inactive)
REMARK    1  A    between atoms: C_2  and  C_4
REMARK    2  A    between atoms: N_8  and  C_9
REMARK    3  A    between atoms: C_9  and  C_10
REMARK    4  A    between atoms: C_14  and  C_15
REMARK                            x       y       z     vdW  Elec       q    Type
REMARK                         _______ _______ _______ _____ _____    ______ ____
ROOT
ATOM      1  C   UNL     1       6.867  -1.030  -2.216  0.00  0.00    +0.000 A 
ATOM      2  C   UNL     1       6.775   0.352  -2.090  0.00  0.00    +0.000 A 
ATOM      3  C   UNL     1       6.048   1.080  -3.035  0.00  0.00    +0.000 A 
ATOM      4  C   UNL     1       5.429   0.419  -4.094  0.00  0.00    +0.000 A 
ATOM      5  N   UNL     1       4.613   1.047  -5.009  0.00  0.00    +0.000 N 
ATOM      6  N   UNL     1       5.532  -0.918  -4.238  0.00  0.00    +0.000 NA
ATOM      7  C   UNL     1       6.252  -1.612  -3.313  0.00  0.00    +0.000 A 
ATOM      8  H   UNL     1       4.338   0.376  -5.721  0.00  0.00    +0.000 HD
ENDROOT
BRANCH   1  10
ATOM      9  N   UNL     1       7.647  -1.402   0.050  0.00  0.00    +0.000 N 
ATOM     10  C   UNL     1       7.558  -1.881  -1.229  0.00  0.00    +0.000 C 
ATOM     11  O   UNL     1       8.001  -2.983  -1.530  0.00  0.00    +0.000 OA
ATOM     12  H   UNL     1       8.024  -2.036   0.743  0.00  0.00    +0.000 HD
ATOM     13  H   UNL     1       7.078  -0.637   0.385  0.00  0.00    +0.000 HD
ENDBRANCH   1  10
BRANCH   5  14
ATOM     14  C   UNL     1       4.861   2.393  -5.489  0.00  0.00    +0.000 C 
BRANCH  14  15
ATOM     15  C   UNL     1       5.865   2.509  -6.617  0.00  0.00    +0.000 A 
ATOM     16  C   UNL     1       6.139   3.784  -7.135  0.00  0.00    +0.000 A 
ATOM     17  C   UNL     1       7.055   3.950  -8.172  0.00  0.00    +0.000 A 
ATOM     18  C   UNL     1       7.726   2.843  -8.696  0.00  0.00    +0.000 A 
ATOM     19  C   UNL     1       7.514   1.552  -8.184  0.00  0.00    +0.000 A 
ATOM     20  C   UNL     1       6.555   1.412  -7.159  0.00  0.00    +0.000 A 
BRANCH  19  21
ATOM     21  C   UNL     1       8.325   0.391  -8.621  0.00  0.00    +0.000 A 
ATOM     22  C   UNL     1       9.688   0.542  -8.938  0.00  0.00    +0.000 A 
ATOM     23  C   UNL     1      10.497  -0.558  -9.235  0.00  0.00    +0.000 A 
ATOM     24  C   UNL     1       9.960  -1.841  -9.219  0.00  0.00    +0.000 A 
ATOM     25  C   UNL     1       8.611  -2.020  -8.934  0.00  0.00    +0.000 A 
ATOM     26  C   UNL     1       7.801  -0.915  -8.651  0.00  0.00    +0.000 A 
ENDBRANCH  19  21
ENDBRANCH  14  15
ENDBRANCH   5  14
TORSDOF 4
