REMARK  Name = 
REMARK  5 active torsions:
REMARK  status: ('A' for Active; 'I' for Inactive)
REMARK    1  A    between atoms: C_1  and  C_2
REMARK    2  A    between atoms: C_2  and  C_3
REMARK    3  A    between atoms: C_2  and  C_14
REMARK    4  A    between atoms: C_3  and  N_4
REMARK    5  A    between atoms: C_8  and  C_9
REMARK                            x       y       z     vdW  Elec       q    Type
REMARK                         _______ _______ _______ _____ _____    ______ ____
ROOT
ATOM      1  N   UNL     1       2.891  -0.234   2.496  0.00  0.00    +0.000 N 
ATOM      2  C   UNL     1       3.429  -0.952   3.583  0.00  0.00    +0.000 A 
ATOM      3  C   UNL     1       3.324  -0.421   4.868  0.00  0.00    +0.000 A 
ATOM      4  C   UNL     1       3.836  -1.139   5.954  0.00  0.00    +0.000 A 
ATOM      5  C   UNL     1       4.450  -2.375   5.742  0.00  0.00    +0.000 A 
ATOM      6  C   UNL     1       4.536  -2.812   4.431  0.00  0.00    +0.000 A 
ATOM      7  N   UNL     1       4.047  -2.130   3.368  0.00  0.00    +0.000 NA
ATOM      8  H   UNL     1       1.919  -0.038   2.707  0.00  0.00    +0.000 HD
ENDROOT
BRANCH   5   9
ATOM      9  C   UNL     1       4.963  -3.155   6.889  0.00  0.00    +0.000 C 
ATOM     10  N   UNL     1       5.535  -4.379   6.665  0.00  0.00    +0.000 N 
ATOM     11  O   UNL     1       4.871  -2.727   8.037  0.00  0.00    +0.000 OA
ATOM     12  H   UNL     1       5.647  -4.830   5.770  0.00  0.00    +0.000 HD
ATOM     13  H   UNL     1       5.855  -4.886   7.481  0.00  0.00    +0.000 HD
ENDBRANCH   5   9
BRANCH   1  14
ATOM     14  C   UNL     1       3.050  -0.954   1.236  0.00  0.00    +0.000 C 
BRANCH  14  16
ATOM     15  C   UNL     1       0.933   0.087   0.177  0.00  0.00    +0.000 C 
ATOM     16  C   UNL     1       2.405  -0.203   0.101  0.00  0.00    +0.000 C 
BRANCH  16  17
ATOM     17  C   UNL     1       3.032  -0.413  -1.276  0.00  0.00    +0.000 C 
ATOM     18  C   UNL     1       2.814   0.788  -2.214  0.00  0.00    +0.000 C 
ATOM     19  C   UNL     1       3.410   0.553  -3.601  0.00  0.00    +0.000 C 
ATOM     20  C   UNL     1       2.863  -0.726  -4.226  0.00  0.00    +0.000 C 
ATOM     21  C   UNL     1       3.119  -1.930  -3.327  0.00  0.00    +0.000 C 
ATOM     22  C   UNL     1       2.541  -1.722  -1.927  0.00  0.00    +0.000 C 
ENDBRANCH  16  17
ENDBRANCH  14  16
ENDBRANCH   1  14
TORSDOF 4
