REMARK  Name = 
REMARK  6 active torsions:
REMARK  status: ('A' for Active; 'I' for Inactive)
REMARK    1  A    between atoms: C_2  and  C_21
REMARK    2  A    between atoms: N_3  and  C_4
REMARK    3  A    between atoms: C_4  and  C_5
REMARK    4  A    between atoms: C_8  and  C_9
REMARK    5  A    between atoms: C_9  and  C_10
REMARK    6  A    between atoms: C_10  and  C_11
REMARK                            x       y       z     vdW  Elec       q    Type
REMARK                         _______ _______ _______ _____ _____    ______ ____
ROOT
ATOM      1  C   UNL     1       2.182  -2.062   1.249  0.00  0.00    +0.000 C 
ENDROOT
BRANCH   1   2
ATOM      2  C   UNL     1       3.110  -3.051   1.909  0.00  0.00    +0.000 A 
ATOM      3  C   UNL     1       4.170  -2.602   2.705  0.00  0.00    +0.000 A 
ATOM      4  C   UNL     1       5.009  -3.513   3.357  0.00  0.00    +0.000 A 
ATOM      5  C   UNL     1       4.809  -4.893   3.224  0.00  0.00    +0.000 A 
ATOM      6  C   UNL     1       3.764  -5.340   2.404  0.00  0.00    +0.000 A 
ATOM      7  C   UNL     1       2.929  -4.430   1.746  0.00  0.00    +0.000 A 
BRANCH   5   8
ATOM      8  C   UNL     1       5.721  -5.889   3.909  0.00  0.00    +0.000 C 
BRANCH   8   9
ATOM      9  C   UNL     1       5.710  -5.766   5.434  0.00  0.00    +0.000 C 
BRANCH   9  10
ATOM     10  C   UNL     1       6.642  -6.763   6.106  0.00  0.00    +0.000 C 
ATOM     11  O   UNL     1       7.274  -7.591   5.450  0.00  0.00    +0.000 OA
ATOM     12  N   UNL     1       6.765  -6.661   7.488  0.00  0.00    +0.000 N 
ATOM     13  C   UNL     1       7.768  -7.462   8.189  0.00  0.00    +0.000 C 
ATOM     14  C   UNL     1       7.108  -8.411   9.186  0.00  0.00    +0.000 C 
ATOM     15  C   UNL     1       6.170  -7.656  10.129  0.00  0.00    +0.000 C 
ATOM     16  C   UNL     1       5.170  -6.805   9.346  0.00  0.00    +0.000 C 
ATOM     17  C   UNL     1       5.884  -5.882   8.359  0.00  0.00    +0.000 C 
ENDBRANCH   9  10
ENDBRANCH   8   9
ENDBRANCH   5   8
ENDBRANCH   1   2
BRANCH   1  20
ATOM     18  O   UNL     1       3.646   0.298   0.744  0.00  0.00    +0.000 OA
ATOM     19  C   UNL     1       3.408  -0.468  -0.186  0.00  0.00    +0.000 C 
ATOM     20  N   UNL     1       2.672  -1.613  -0.029  0.00  0.00    +0.000 N 
ATOM     21  H   UNL     1       2.616  -2.283  -0.788  0.00  0.00    +0.000 HD
BRANCH  19  22
ATOM     22  C   UNL     1       3.864  -0.175  -1.550  0.00  0.00    +0.000 A 
ATOM     23  C   UNL     1       4.139   1.133  -1.927  0.00  0.00    +0.000 A 
ATOM     24  S   UNL     1       4.702   1.275  -3.531  0.00  0.00    +0.000 S 
ATOM     25  C   UNL     1       4.625  -0.410  -3.765  0.00  0.00    +0.000 A 
ATOM     26  N   UNL     1       5.027  -0.975  -4.935  0.00  0.00    +0.000 NA
ATOM     27  C   UNL     1       4.958  -2.265  -4.955  0.00  0.00    +0.000 A 
ATOM     28  N   UNL     1       4.501  -3.040  -3.919  0.00  0.00    +0.000 N 
ATOM     29  C   UNL     1       3.988  -2.506  -2.760  0.00  0.00    +0.000 A 
ATOM     30  O   UNL     1       3.419  -3.211  -1.939  0.00  0.00    +0.000 OA
ATOM     31  C   UNL     1       4.128  -1.065  -2.653  0.00  0.00    +0.000 A 
ATOM     32  H   UNL     1       4.419  -4.041  -4.016  0.00  0.00    +0.000 HD
ENDBRANCH  19  22
ENDBRANCH   1  20
TORSDOF 6
