REMARK  Name = 
REMARK  5 active torsions:
REMARK  status: ('A' for Active; 'I' for Inactive)
REMARK    1  A    between atoms: N_1  and  C_2
REMARK    2  A    between atoms: C_2  and  C_3
REMARK    3  A    between atoms: C_6  and  C_7
REMARK    4  A    between atoms: C_7  and  N_8
REMARK    5  A    between atoms: C_13  and  C_14
REMARK                            x       y       z     vdW  Elec       q    Type
REMARK                         _______ _______ _______ _____ _____    ______ ____
ROOT
ATOM      1  N   UNL     1       4.791   4.468   2.940  0.00  0.00    +0.000 N 
ATOM      2  C   UNL     1       5.608   5.569   2.809  0.00  0.00    +0.000 A 
ATOM      3  C   UNL     1       6.734   5.366   3.571  0.00  0.00    +0.000 A 
ATOM      4  C   UNL     1       6.519   4.191   4.320  0.00  0.00    +0.000 A 
ATOM      5  C   UNL     1       7.252   3.541   5.315  0.00  0.00    +0.000 A 
ATOM      6  C   UNL     1       6.696   2.413   5.914  0.00  0.00    +0.000 A 
ATOM      7  C   UNL     1       5.460   1.965   5.441  0.00  0.00    +0.000 A 
ATOM      8  N   UNL     1       4.722   2.534   4.440  0.00  0.00    +0.000 NA
ATOM      9  C   UNL     1       5.293   3.650   3.934  0.00  0.00    +0.000 A 
ENDROOT
BRANCH   6  10
ATOM     10  C   UNL     1       7.369   1.724   7.037  0.00  0.00    +0.000 C 
ATOM     11  N   UNL     1       8.564   2.213   7.494  0.00  0.00    +0.000 N 
ATOM     12  O   UNL     1       6.863   0.734   7.569  0.00  0.00    +0.000 OA
ATOM     13  H   UNL     1       9.032   3.035   7.141  0.00  0.00    +0.000 HD
ATOM     14  H   UNL     1       8.992   1.747   8.280  0.00  0.00    +0.000 HD
ENDBRANCH   6  10
BRANCH   1  15
ATOM     15  C   UNL     1       3.592   4.215   2.149  0.00  0.00    +0.000 C 
BRANCH  15  19
ATOM     16  C   UNL     1       2.888   1.457  -0.461  0.00  0.00    +0.000 C 
ATOM     17  C   UNL     1       4.180   1.589   0.360  0.00  0.00    +0.000 C 
ATOM     18  C   UNL     1       4.807   2.976   0.230  0.00  0.00    +0.000 C 
ATOM     19  C   UNL     1       3.839   4.112   0.618  0.00  0.00    +0.000 C 
ATOM     20  C   UNL     1       2.521   3.967  -0.172  0.00  0.00    +0.000 C 
ATOM     21  C   UNL     1       1.906   2.572  -0.061  0.00  0.00    +0.000 C 
BRANCH  16  22
ATOM     22  C   UNL     1       3.153   1.470  -1.982  0.00  0.00    +0.000 C 
BRANCH  22  23
ATOM     23  N   UNL     1       4.018   0.369  -2.387  0.00  0.00    +0.000 NA
ATOM     24  H   UNL     1       4.179   0.417  -3.392  0.00  0.00    +0.000 HD
ATOM     25  H   UNL     1       3.545  -0.516  -2.212  0.00  0.00    +0.000 HD
ENDBRANCH  22  23
ENDBRANCH  16  22
ENDBRANCH  15  19
ENDBRANCH   1  15
TORSDOF 5
