REMARK  Name = 
REMARK  7 active torsions:
REMARK  status: ('A' for Active; 'I' for Inactive)
REMARK    1  A    between atoms: C_1  and  C_2
REMARK    2  A    between atoms: C_2  and  N_3
REMARK    3  A    between atoms: C_2  and  C_16
REMARK    4  A    between atoms: C_4  and  C_6
REMARK    5  A    between atoms: C_19  and  C_20
REMARK    6  A    between atoms: C_20  and  N_21
REMARK    7  A    between atoms: C_22  and  C_24
REMARK                            x       y       z     vdW  Elec       q    Type
REMARK                         _______ _______ _______ _____ _____    ______ ____
ROOT
ATOM      1  C   UNL     1       0.880   0.022  -0.112  0.00  0.00    +0.000 C 
ATOM      2  C   UNL     1       2.415  -0.013  -0.029  0.00  0.00    +0.000 C 
ENDROOT
BRANCH   2   3
ATOM      3  C   UNL     1       2.964  -0.971  -1.080  0.00  0.00    +0.000 A 
ATOM      4  C   UNL     1       3.818  -0.508  -2.091  0.00  0.00    +0.000 A 
ATOM      5  C   UNL     1       4.239  -1.361  -3.121  0.00  0.00    +0.000 A 
ATOM      6  C   UNL     1       3.807  -2.694  -3.166  0.00  0.00    +0.000 A 
ATOM      7  C   UNL     1       3.012  -3.176  -2.120  0.00  0.00    +0.000 A 
ATOM      8  C   UNL     1       2.596  -2.326  -1.091  0.00  0.00    +0.000 A 
BRANCH   6   9
ATOM      9  C   UNL     1       4.176  -3.592  -4.319  0.00  0.00    +0.000 C 
BRANCH   9  10
ATOM     10  N   UNL     1       5.412  -4.294  -4.082  0.00  0.00    +0.000 N 
ATOM     11  C   UNL     1       5.873  -5.238  -4.969  0.00  0.00    +0.000 C 
ATOM     12  O   UNL     1       5.248  -5.561  -5.975  0.00  0.00    +0.000 OA
ATOM     13  H   UNL     1       5.990  -3.991  -3.312  0.00  0.00    +0.000 HD
BRANCH  11  14
ATOM     14  C   UNL     1       7.147  -5.821  -4.640  0.00  0.00    +0.000 A 
ATOM     15  C   UNL     1       8.010  -5.661  -3.573  0.00  0.00    +0.000 A 
ATOM     16  N   UNL     1       9.131  -6.439  -3.713  0.00  0.00    +0.000 NA
ATOM     17  C   UNL     1       8.967  -7.079  -4.846  0.00  0.00    +0.000 A 
ATOM     18  N   UNL     1       7.782  -6.748  -5.437  0.00  0.00    +0.000 N 
ATOM     19  H   UNL     1       7.421  -7.109  -6.311  0.00  0.00    +0.000 HD
ENDBRANCH  11  14
ENDBRANCH   9  10
ENDBRANCH   6   9
ENDBRANCH   2   3
BRANCH   2  20
ATOM     20  N   UNL     1       2.895  -0.385   1.294  0.00  0.00    +0.000 N 
ATOM     21  C   UNL     1       2.608   0.361   2.413  0.00  0.00    +0.000 C 
ATOM     22  O   UNL     1       1.882   1.351   2.381  0.00  0.00    +0.000 OA
ATOM     23  H   UNL     1       3.719  -0.980   1.322  0.00  0.00    +0.000 HD
BRANCH  21  24
ATOM     24  C   UNL     1       3.163  -0.113   3.684  0.00  0.00    +0.000 A 
ATOM     25  C   UNL     1       2.485   0.150   4.867  0.00  0.00    +0.000 A 
ATOM     26  S   UNL     1       3.275  -0.447   6.255  0.00  0.00    +0.000 S 
ATOM     27  C   UNL     1       4.572  -1.041   5.326  0.00  0.00    +0.000 A 
ATOM     28  N   UNL     1       5.642  -1.634   5.918  0.00  0.00    +0.000 NA
ATOM     29  C   UNL     1       6.568  -2.001   5.098  0.00  0.00    +0.000 A 
ATOM     30  N   UNL     1       6.511  -1.848   3.735  0.00  0.00    +0.000 N 
ATOM     31  C   UNL     1       5.428  -1.300   3.089  0.00  0.00    +0.000 A 
ATOM     32  O   UNL     1       5.364  -1.252   1.865  0.00  0.00    +0.000 OA
ATOM     33  C   UNL     1       4.381  -0.826   3.973  0.00  0.00    +0.000 A 
ATOM     34  H   UNL     1       7.260  -2.183   3.148  0.00  0.00    +0.000 HD
ENDBRANCH  21  24
ENDBRANCH   2  20
TORSDOF 6
