REMARK  Name = 
REMARK  8 active torsions:
REMARK  status: ('A' for Active; 'I' for Inactive)
REMARK    1  A    between atoms: C_1  and  C_2
REMARK    2  A    between atoms: C_2  and  N_3
REMARK    3  A    between atoms: C_2  and  C_19
REMARK    4  A    between atoms: N_3  and  C_4
REMARK    5  A    between atoms: C_7  and  C_8
REMARK    6  A    between atoms: C_8  and  O_9
REMARK    7  A    between atoms: C_8  and  C_10
REMARK    8  A    between atoms: C_10  and  C_11
REMARK                            x       y       z     vdW  Elec       q    Type
REMARK                         _______ _______ _______ _____ _____    ______ ____
ROOT
ATOM      1  C   UNL     1       2.806  -0.929  -2.278  0.00  0.00    +0.000 A 
ATOM      2  C   UNL     1       1.444  -1.230  -2.402  0.00  0.00    +0.000 A 
ATOM      3  C   UNL     1       0.997  -2.245  -3.268  0.00  0.00    +0.000 A 
ATOM      4  C   UNL     1       1.907  -2.973  -4.044  0.00  0.00    +0.000 A 
ATOM      5  C   UNL     1       3.242  -2.558  -4.033  0.00  0.00    +0.000 A 
ATOM      6  C   UNL     1       3.671  -1.538  -3.183  0.00  0.00    +0.000 A 
ENDROOT
BRANCH   1   7
ATOM      7  N   UNL     1       3.244  -0.001  -1.321  0.00  0.00    +0.000 N 
ATOM      8  H   UNL     1       2.495   0.201  -0.659  0.00  0.00    +0.000 HD
BRANCH   7  10
ATOM      9  C   UNL     1       5.683   0.448  -1.199  0.00  0.00    +0.000 C 
ATOM     10  C   UNL     1       4.491  -0.276  -0.557  0.00  0.00    +0.000 C 
BRANCH  10  11
ATOM     11  C   UNL     1       4.770  -1.731  -0.191  0.00  0.00    +0.000 A 
ATOM     12  C   UNL     1       5.682  -2.567  -0.819  0.00  0.00    +0.000 A 
ATOM     13  S   UNL     1       5.617  -4.180  -0.261  0.00  0.00    +0.000 S 
ATOM     14  C   UNL     1       4.407  -3.803   0.872  0.00  0.00    +0.000 A 
ATOM     15  N   UNL     1       3.880  -4.752   1.687  0.00  0.00    +0.000 NA
ATOM     16  C   UNL     1       2.971  -4.316   2.493  0.00  0.00    +0.000 A 
ATOM     17  N   UNL     1       2.553  -3.011   2.570  0.00  0.00    +0.000 N 
ATOM     18  C   UNL     1       3.056  -2.009   1.769  0.00  0.00    +0.000 A 
ATOM     19  O   UNL     1       2.674  -0.846   1.866  0.00  0.00    +0.000 OA
ATOM     20  C   UNL     1       4.064  -2.465   0.828  0.00  0.00    +0.000 A 
ATOM     21  H   UNL     1       1.853  -2.729   3.244  0.00  0.00    +0.000 HD
ENDBRANCH  10  11
ENDBRANCH   7  10
ENDBRANCH   1   7
BRANCH   4  22
ATOM     22  C   UNL     1       1.447  -4.147  -4.895  0.00  0.00    +0.000 C 
BRANCH  22  23
ATOM     23  O   UNL     1       1.122  -3.653  -6.195  0.00  0.00    +0.000 OA
ATOM     24  H   UNL     1       1.778  -2.974  -6.421  0.00  0.00    +0.000 HD
ENDBRANCH  22  23
BRANCH  22  25
ATOM     25  C   UNL     1       2.517  -5.261  -4.996  0.00  0.00    +0.000 C 
BRANCH  25  26
ATOM     26  C   UNL     1       2.100  -6.478  -5.784  0.00  0.00    +0.000 A 
ATOM     27  C   UNL     1       2.300  -6.515  -7.172  0.00  0.00    +0.000 A 
ATOM     28  C   UNL     1       1.960  -7.645  -7.909  0.00  0.00    +0.000 A 
ATOM     29  C   UNL     1       1.405  -8.748  -7.268  0.00  0.00    +0.000 A 
ATOM     30  C   UNL     1       1.194  -8.722  -5.889  0.00  0.00    +0.000 A 
ATOM     31  C   UNL     1       1.539  -7.591  -5.147  0.00  0.00    +0.000 A 
ENDBRANCH  25  26
ENDBRANCH  22  25
ENDBRANCH   4  22
TORSDOF 7
