REMARK  Name = 
REMARK  7 active torsions:
REMARK  status: ('A' for Active; 'I' for Inactive)
REMARK    1  A    between atoms: C_2  and  C_19
REMARK    2  A    between atoms: N_3  and  C_4
REMARK    3  A    between atoms: C_4  and  C_5
REMARK    4  A    between atoms: C_8  and  C_9
REMARK    5  A    between atoms: C_9  and  N_10
REMARK    6  A    between atoms: N_10  and  C_11
REMARK    7  A    between atoms: C_11  and  C_12
REMARK                            x       y       z     vdW  Elec       q    Type
REMARK                         _______ _______ _______ _____ _____    ______ ____
ROOT
ATOM      1  C   UNL     1       2.273  -0.942   4.629  0.00  0.00    +0.000 C 
ENDROOT
BRANCH   1   2
ATOM      2  C   UNL     1       3.138  -1.122   3.380  0.00  0.00    +0.000 C 
ATOM      3  C   UNL     1       4.418  -0.284   3.380  0.00  0.00    +0.000 C 
ATOM      4  C   UNL     1       5.454  -1.101   4.146  0.00  0.00    +0.000 C 
ATOM      5  C   UNL     1       4.966  -2.558   4.125  0.00  0.00    +0.000 C 
ATOM      6  C   UNL     1       3.686  -2.544   3.274  0.00  0.00    +0.000 C 
BRANCH   5   7
ATOM      7  C   UNL     1       4.799  -3.128   5.551  0.00  0.00    +0.000 C 
BRANCH   7   8
ATOM      8  N   UNL     1       4.313  -4.504   5.612  0.00  0.00    +0.000 NA
ATOM      9  H   UNL     1       3.417  -4.594   5.133  0.00  0.00    +0.000 HD
BRANCH   8  10
ATOM     10  C   UNL     1       5.267  -5.442   5.033  0.00  0.00    +0.000 C 
BRANCH  10  11
ATOM     11  C   UNL     1       4.737  -6.848   5.056  0.00  0.00    +0.000 A 
ATOM     12  C   UNL     1       4.557  -7.556   3.863  0.00  0.00    +0.000 A 
ATOM     13  C   UNL     1       4.100  -8.859   3.931  0.00  0.00    +0.000 A 
ATOM     14  N   UNL     1       3.809  -9.496   5.086  0.00  0.00    +0.000 NA
ATOM     15  C   UNL     1       3.979  -8.788   6.225  0.00  0.00    +0.000 A 
ATOM     16  C   UNL     1       4.434  -7.482   6.262  0.00  0.00    +0.000 A 
ENDBRANCH  10  11
ENDBRANCH   8  10
ENDBRANCH   7   8
ENDBRANCH   5   7
ENDBRANCH   1   2
BRANCH   1  19
ATOM     17  O   UNL     1      -0.064   0.207   3.523  0.00  0.00    +0.000 OA
ATOM     18  C   UNL     1       0.643   0.875   4.272  0.00  0.00    +0.000 C 
ATOM     19  N   UNL     1       1.818   0.411   4.792  0.00  0.00    +0.000 N 
ATOM     20  H   UNL     1       2.309   0.967   5.484  0.00  0.00    +0.000 HD
BRANCH  18  21
ATOM     21  C   UNL     1       0.301   2.249   4.638  0.00  0.00    +0.000 A 
ATOM     22  C   UNL     1      -0.498   3.012   3.801  0.00  0.00    +0.000 A 
ATOM     23  S   UNL     1      -0.783   4.588   4.388  0.00  0.00    +0.000 S 
ATOM     24  C   UNL     1       0.115   4.287   5.803  0.00  0.00    +0.000 A 
ATOM     25  N   UNL     1       0.240   5.234   6.775  0.00  0.00    +0.000 NA
ATOM     26  C   UNL     1       0.910   4.856   7.811  0.00  0.00    +0.000 A 
ATOM     27  N   UNL     1       1.480   3.619   7.964  0.00  0.00    +0.000 N 
ATOM     28  C   UNL     1       1.447   2.661   6.980  0.00  0.00    +0.000 A 
ATOM     29  O   UNL     1       2.091   1.621   7.090  0.00  0.00    +0.000 OA
ATOM     30  C   UNL     1       0.655   3.015   5.814  0.00  0.00    +0.000 A 
ATOM     31  H   UNL     1       2.026   3.397   8.780  0.00  0.00    +0.000 HD
ENDBRANCH  18  21
ENDBRANCH   1  19
TORSDOF 7
