REMARK  Name = 
REMARK  7 active torsions:
REMARK  status: ('A' for Active; 'I' for Inactive)
REMARK    1  A    between atoms: C_2  and  C_20
REMARK    2  A    between atoms: N_3  and  C_4
REMARK    3  A    between atoms: C_4  and  C_5
REMARK    4  A    between atoms: C_8  and  C_9
REMARK    5  A    between atoms: C_9  and  N_10
REMARK    6  A    between atoms: N_10  and  C_11
REMARK    7  A    between atoms: C_11  and  C_12
REMARK                            x       y       z     vdW  Elec       q    Type
REMARK                         _______ _______ _______ _____ _____    ______ ____
ROOT
ATOM      1  C   UNL     1       2.244  -2.166   1.213  0.00  0.00    +0.000 C 
ENDROOT
BRANCH   1   2
ATOM      2  C   UNL     1       3.154  -3.180   1.852  0.00  0.00    +0.000 A 
ATOM      3  C   UNL     1       2.848  -4.535   1.808  0.00  0.00    +0.000 A 
ATOM      4  N   UNL     1       3.628  -5.483   2.380  0.00  0.00    +0.000 NA
ATOM      5  C   UNL     1       4.728  -5.027   3.036  0.00  0.00    +0.000 A 
ATOM      6  C   UNL     1       5.020  -3.669   3.101  0.00  0.00    +0.000 A 
ATOM      7  N   UNL     1       4.252  -2.725   2.511  0.00  0.00    +0.000 NA
BRANCH   5   8
ATOM      8  C   UNL     1       5.665  -6.047   3.641  0.00  0.00    +0.000 C 
BRANCH   8   9
ATOM      9  N   UNL     1       6.183  -7.028   2.675  0.00  0.00    +0.000 NA
ATOM     10  H   UNL     1       5.373  -7.459   2.223  0.00  0.00    +0.000 HD
BRANCH   9  11
ATOM     11  C   UNL     1       7.000  -6.398   1.637  0.00  0.00    +0.000 C 
BRANCH  11  12
ATOM     12  C   UNL     1       7.544  -7.422   0.673  0.00  0.00    +0.000 A 
ATOM     13  C   UNL     1       7.242  -7.358  -0.690  0.00  0.00    +0.000 A 
ATOM     14  C   UNL     1       7.786  -8.310  -1.538  0.00  0.00    +0.000 A 
ATOM     15  N   UNL     1       8.599  -9.307  -1.128  0.00  0.00    +0.000 NA
ATOM     16  C   UNL     1       8.875  -9.355   0.192  0.00  0.00    +0.000 A 
ATOM     17  C   UNL     1       8.382  -8.449   1.118  0.00  0.00    +0.000 A 
ENDBRANCH  11  12
ENDBRANCH   9  11
ENDBRANCH   8   9
ENDBRANCH   5   8
ENDBRANCH   1   2
BRANCH   1  20
ATOM     18  O   UNL     1      -0.332  -3.200   1.486  0.00  0.00    +0.000 OA
ATOM     19  C   UNL     1       0.015  -2.300   2.247  0.00  0.00    +0.000 C 
ATOM     20  N   UNL     1       1.239  -1.694   2.139  0.00  0.00    +0.000 N 
ATOM     21  H   UNL     1       1.587  -1.132   2.911  0.00  0.00    +0.000 HD
BRANCH  19  22
ATOM     22  C   UNL     1      -0.877  -1.792   3.294  0.00  0.00    +0.000 A 
ATOM     23  C   UNL     1      -2.251  -1.927   3.156  0.00  0.00    +0.000 A 
ATOM     24  S   UNL     1      -3.134  -1.294   4.471  0.00  0.00    +0.000 S 
ATOM     25  C   UNL     1      -1.708  -0.854   5.289  0.00  0.00    +0.000 A 
ATOM     26  N   UNL     1      -1.754  -0.286   6.525  0.00  0.00    +0.000 NA
ATOM     27  C   UNL     1      -0.598  -0.039   7.041  0.00  0.00    +0.000 A 
ATOM     28  N   UNL     1       0.604  -0.287   6.428  0.00  0.00    +0.000 N 
ATOM     29  C   UNL     1       0.697  -0.798   5.156  0.00  0.00    +0.000 A 
ATOM     30  O   UNL     1       1.778  -0.903   4.588  0.00  0.00    +0.000 OA
ATOM     31  C   UNL     1      -0.575  -1.147   4.550  0.00  0.00    +0.000 A 
ATOM     32  H   UNL     1       1.475  -0.038   6.871  0.00  0.00    +0.000 HD
ENDBRANCH  19  22
ENDBRANCH   1  20
TORSDOF 7
