REMARK  Name = 
REMARK  6 active torsions:
REMARK  status: ('A' for Active; 'I' for Inactive)
REMARK    1  A    between atoms: N_1  and  C_2
REMARK    2  A    between atoms: C_2  and  C_3
REMARK    3  A    between atoms: C_6  and  C_7
REMARK    4  A    between atoms: C_7  and  O_8
REMARK    5  A    between atoms: O_8  and  C_9
REMARK    6  A    between atoms: C_13  and  C_14
REMARK                            x       y       z     vdW  Elec       q    Type
REMARK                         _______ _______ _______ _____ _____    ______ ____
ROOT
ATOM      1  O   UNL     1       3.228   6.273  -1.583  0.00  0.00    +0.000 OA
ENDROOT
BRANCH   1   2
ATOM      2  C   UNL     1       3.454   7.536  -2.057  0.00  0.00    +0.000 A 
ATOM      3  C   UNL     1       2.552   8.518  -1.666  0.00  0.00    +0.000 A 
ATOM      4  N   UNL     1       2.622   9.817  -2.048  0.00  0.00    +0.000 NA
ATOM      5  C   UNL     1       3.650  10.152  -2.868  0.00  0.00    +0.000 A 
ATOM      6  C   UNL     1       4.607   9.256  -3.317  0.00  0.00    +0.000 A 
ATOM      7  C   UNL     1       4.497   7.923  -2.898  0.00  0.00    +0.000 A 
BRANCH   6   8
ATOM      8  C   UNL     1       5.728   9.625  -4.216  0.00  0.00    +0.000 C 
ATOM      9  N   UNL     1       5.838  10.918  -4.647  0.00  0.00    +0.000 N 
ATOM     10  O   UNL     1       6.551   8.790  -4.574  0.00  0.00    +0.000 OA
ATOM     11  H   UNL     1       5.218  11.678  -4.421  0.00  0.00    +0.000 HD
ATOM     12  H   UNL     1       6.615  11.119  -5.265  0.00  0.00    +0.000 HD
ENDBRANCH   6   8
ENDBRANCH   1   2
BRANCH   1  13
ATOM     13  C   UNL     1       4.182   5.284  -1.969  0.00  0.00    +0.000 C 
BRANCH  13  17
ATOM     14  C   UNL     1       3.159   1.378  -0.407  0.00  0.00    +0.000 A 
ATOM     15  C   UNL     1       2.648   1.813  -1.638  0.00  0.00    +0.000 A 
ATOM     16  C   UNL     1       2.959   3.081  -2.134  0.00  0.00    +0.000 A 
ATOM     17  C   UNL     1       3.788   3.943  -1.406  0.00  0.00    +0.000 A 
ATOM     18  C   UNL     1       4.262   3.531  -0.155  0.00  0.00    +0.000 A 
ATOM     19  C   UNL     1       3.957   2.258   0.336  0.00  0.00    +0.000 A 
BRANCH  14  20
ATOM     20  C   UNL     1       2.829   0.003   0.116  0.00  0.00    +0.000 C 
BRANCH  20  21
ATOM     21  N   UNL     1       3.260  -1.048  -0.801  0.00  0.00    +0.000 NA
ATOM     22  H   UNL     1       3.071  -1.955  -0.378  0.00  0.00    +0.000 HD
ATOM     23  H   UNL     1       4.270  -0.988  -0.917  0.00  0.00    +0.000 HD
ENDBRANCH  20  21
ENDBRANCH  14  20
ENDBRANCH  13  17
ENDBRANCH   1  13
TORSDOF 6
