REMARK  Name = 
REMARK  6 active torsions:
REMARK  status: ('A' for Active; 'I' for Inactive)
REMARK    1  A    between atoms: C_2  and  C_4
REMARK    2  A    between atoms: N_8  and  C_9
REMARK    3  A    between atoms: C_9  and  C_10
REMARK    4  A    between atoms: C_10  and  C_13
REMARK    5  A    between atoms: C_15  and  N_16
REMARK    6  A    between atoms: C_23  and  C_24
REMARK                            x       y       z     vdW  Elec       q    Type
REMARK                         _______ _______ _______ _____ _____    ______ ____
ROOT
ATOM      1  C   UNL     1       6.083   4.075   5.808  0.00  0.00    +0.000 C 
ATOM      2  F   UNL     1       5.583   5.127   5.085  0.00  0.00    +0.000 F 
ATOM      3  F   UNL     1       5.567   2.960   5.207  0.00  0.00    +0.000 F 
ENDROOT
BRANCH   1   4
ATOM      4  C   UNL     1       5.697   4.159   7.273  0.00  0.00    +0.000 A 
ATOM      5  C   UNL     1       5.506   2.979   8.014  0.00  0.00    +0.000 A 
ATOM      6  C   UNL     1       5.204   2.989   9.383  0.00  0.00    +0.000 A 
ATOM      7  C   UNL     1       5.100   4.240  10.002  0.00  0.00    +0.000 A 
ATOM      8  C   UNL     1       5.332   5.438   9.306  0.00  0.00    +0.000 A 
ATOM      9  C   UNL     1       5.594   5.390   7.929  0.00  0.00    +0.000 A 
BRANCH   6  10
ATOM     10  N   UNL     1       5.058   1.824  10.098  0.00  0.00    +0.000 N 
ATOM     11  C   UNL     1       5.840   0.613   9.814  0.00  0.00    +0.000 C 
ATOM     12  C   UNL     1       4.890  -0.563   9.551  0.00  0.00    +0.000 C 
ATOM     13  O   UNL     1       3.973  -0.751  10.644  0.00  0.00    +0.000 OA
ATOM     14  C   UNL     1       3.185   0.435  10.848  0.00  0.00    +0.000 C 
ATOM     15  C   UNL     1       4.063   1.660  11.167  0.00  0.00    +0.000 C 
ENDBRANCH   6  10
BRANCH   8  16
ATOM     16  C   UNL     1       5.395   6.753  10.043  0.00  0.00    +0.000 C 
ATOM     17  F   UNL     1       5.240   6.635  11.391  0.00  0.00    +0.000 F 
ATOM     18  F   UNL     1       6.596   7.374   9.863  0.00  0.00    +0.000 F 
ATOM     19  F   UNL     1       4.451   7.640   9.630  0.00  0.00    +0.000 F 
ENDBRANCH   8  16
ENDBRANCH   1   4
BRANCH   1  20
ATOM     20  C   UNL     1       7.628   4.071   5.641  0.00  0.00    +0.000 C 
BRANCH  20  25
ATOM     21  C   UNL     1      12.124   4.063   3.426  0.00  0.00    +0.000 A 
ATOM     22  C   UNL     1      11.218   3.929   2.381  0.00  0.00    +0.000 A 
ATOM     23  C   UNL     1       9.853   3.893   2.670  0.00  0.00    +0.000 A 
ATOM     24  C   UNL     1       9.414   3.999   3.988  0.00  0.00    +0.000 A 
ATOM     25  N   UNL     1       8.045   3.846   4.243  0.00  0.00    +0.000 N 
ATOM     26  N   UNL     1      10.292   4.124   5.009  0.00  0.00    +0.000 NA
ATOM     27  C   UNL     1      11.620   4.149   4.713  0.00  0.00    +0.000 A 
ATOM     28  H   UNL     1       7.470   4.348   3.572  0.00  0.00    +0.000 HD
BRANCH  21  30
ATOM     29  N   UNL     1      14.044   4.525   2.014  0.00  0.00    +0.000 N 
ATOM     30  C   UNL     1      13.590   4.067   3.220  0.00  0.00    +0.000 C 
ATOM     31  O   UNL     1      14.360   3.704   4.095  0.00  0.00    +0.000 OA
ATOM     32  H   UNL     1      15.047   4.605   1.909  0.00  0.00    +0.000 HD
ATOM     33  H   UNL     1      13.464   5.049   1.371  0.00  0.00    +0.000 HD
ENDBRANCH  21  30
ENDBRANCH  20  25
ENDBRANCH   1  20
TORSDOF 6
