REMARK  Name = 
REMARK  5 active torsions:
REMARK  status: ('A' for Active; 'I' for Inactive)
REMARK    1  A    between atoms: N_1  and  C_2
REMARK    2  A    between atoms: C_2  and  C_3
REMARK    3  A    between atoms: C_3  and  C_4
REMARK    4  A    between atoms: C_7  and  C_8
REMARK    5  A    between atoms: C_8  and  C_9
REMARK                            x       y       z     vdW  Elec       q    Type
REMARK                         _______ _______ _______ _____ _____    ______ ____
ROOT
ATOM      1  C   UNL     1       4.615  -0.733  -1.171  0.00  0.00    +0.000 A 
ATOM      2  C   UNL     1       5.391   0.433  -1.178  0.00  0.00    +0.000 A 
ATOM      3  C   UNL     1       6.787   0.364  -1.132  0.00  0.00    +0.000 A 
ATOM      4  C   UNL     1       7.441  -0.876  -1.062  0.00  0.00    +0.000 A 
ATOM      5  C   UNL     1       6.660  -2.042  -1.079  0.00  0.00    +0.000 A 
ATOM      6  C   UNL     1       5.266  -1.972  -1.132  0.00  0.00    +0.000 A 
ENDROOT
BRANCH   1   7
ATOM      7  C   UNL     1       3.107  -0.664  -1.155  0.00  0.00    +0.000 C 
BRANCH   7   8
ATOM      8  C   UNL     1       2.524  -0.017  -2.418  0.00  0.00    +0.000 C 
BRANCH   8   9
ATOM      9  N   UNL     1       1.061  -0.009  -2.385  0.00  0.00    +0.000 NA
ATOM     10  H   UNL     1       0.705   0.447  -3.223  0.00  0.00    +0.000 HD
ATOM     11  H   UNL     1       0.735   0.544  -1.593  0.00  0.00    +0.000 HD
ENDBRANCH   8   9
ENDBRANCH   7   8
ENDBRANCH   1   7
BRANCH   4  12
ATOM     12  C   UNL     1       8.942  -0.963  -0.837  0.00  0.00    +0.000 C 
BRANCH  12  13
ATOM     13  C   UNL     1       9.064  -1.121   0.653  0.00  0.00    +0.000 A 
ATOM     14  N   UNL     1       9.120  -2.356   1.160  0.00  0.00    +0.000 NA
ATOM     15  S   UNL     1       8.783  -2.276   2.776  0.00  0.00    +0.000 S 
ATOM     16  C   UNL     1       8.638  -0.567   2.859  0.00  0.00    +0.000 A 
ATOM     17  C   UNL     1       8.237   0.247   3.927  0.00  0.00    +0.000 A 
ATOM     18  C   UNL     1       8.251   1.625   3.729  0.00  0.00    +0.000 A 
ATOM     19  F   UNL     1       7.825   2.428   4.713  0.00  0.00    +0.000 F 
ATOM     20  C   UNL     1       8.691   2.190   2.542  0.00  0.00    +0.000 A 
ATOM     21  C   UNL     1       9.055   1.367   1.473  0.00  0.00    +0.000 A 
ATOM     22  C   UNL     1       8.986  -0.041   1.612  0.00  0.00    +0.000 A 
ENDBRANCH  12  13
ENDBRANCH   4  12
TORSDOF 5
