REMARK  Name = 
REMARK  6 active torsions:
REMARK  status: ('A' for Active; 'I' for Inactive)
REMARK    1  A    between atoms: C_2  and  C_3
REMARK    2  A    between atoms: C_6  and  N_7
REMARK    3  A    between atoms: N_7  and  C_8
REMARK    4  A    between atoms: C_8  and  C_9
REMARK    5  A    between atoms: C_12  and  O_13
REMARK    6  A    between atoms: O_13  and  C_14
REMARK                            x       y       z     vdW  Elec       q    Type
REMARK                         _______ _______ _______ _____ _____    ______ ____
ROOT
ATOM      1  C   UNL     1       8.621  -0.971  -0.614  0.00  0.00    +0.000 C 
ATOM      2  C   UNL     1       8.466  -2.147  -1.584  0.00  0.00    +0.000 C 
ATOM      3  C   UNL     1       8.733  -2.410  -0.140  0.00  0.00    +0.000 C 
ENDROOT
BRANCH   1   4
ATOM      4  C   UNL     1       9.921  -0.185  -0.706  0.00  0.00    +0.000 A 
ATOM      5  C   UNL     1      10.696   0.065   0.437  0.00  0.00    +0.000 A 
ATOM      6  C   UNL     1      11.995   0.567   0.328  0.00  0.00    +0.000 A 
ATOM      7  C   UNL     1      12.543   0.839  -0.926  0.00  0.00    +0.000 A 
ATOM      8  C   UNL     1      11.733   0.753  -2.053  0.00  0.00    +0.000 A 
ATOM      9  C   UNL     1      10.438   0.240  -1.941  0.00  0.00    +0.000 A 
BRANCH   7  10
ATOM     10  O   UNL     1      13.848   1.224  -0.925  0.00  0.00    +0.000 OA
BRANCH  10  11
ATOM     11  C   UNL     1      14.683   0.790  -1.995  0.00  0.00    +0.000 C 
ATOM     12  F   UNL     1      14.069   0.016  -2.915  0.00  0.00    +0.000 F 
ATOM     13  F   UNL     1      15.190   1.876  -2.618  0.00  0.00    +0.000 F 
ATOM     14  F   UNL     1      15.714   0.080  -1.483  0.00  0.00    +0.000 F 
ENDBRANCH  10  11
ENDBRANCH   7  10
ENDBRANCH   1   4
BRANCH   1  15
ATOM     15  N   UNL     1       7.436  -0.141  -0.443  0.00  0.00    +0.000 N 
ATOM     16  H   UNL     1       6.991   0.259  -1.263  0.00  0.00    +0.000 HD
BRANCH  15  20
ATOM     17  C   UNL     1       4.763   0.149   2.660  0.00  0.00    +0.000 A 
ATOM     18  C   UNL     1       4.486   0.601   1.384  0.00  0.00    +0.000 A 
ATOM     19  N   UNL     1       5.374   0.502   0.362  0.00  0.00    +0.000 NA
ATOM     20  C   UNL     1       6.569  -0.076   0.635  0.00  0.00    +0.000 A 
ATOM     21  C   UNL     1       6.840  -0.520   1.928  0.00  0.00    +0.000 A 
ATOM     22  N   UNL     1       5.952  -0.427   2.965  0.00  0.00    +0.000 NA
BRANCH  17  24
ATOM     23  N   UNL     1       2.959   0.402   4.511  0.00  0.00    +0.000 NA
ATOM     24  C   UNL     1       3.787   0.277   3.709  0.00  0.00    +0.000 C 
ENDBRANCH  17  24
ENDBRANCH  15  20
ENDBRANCH   1  15
TORSDOF 6
