REMARK  Name = 
REMARK  7 active torsions:
REMARK  status: ('A' for Active; 'I' for Inactive)
REMARK    1  A    between atoms: C_1  and  C_2
REMARK    2  A    between atoms: C_4  and  C_5
REMARK    3  A    between atoms: C_5  and  N_6
REMARK    4  A    between atoms: C_7  and  C_9
REMARK    5  A    between atoms: C_16  and  C_17
REMARK    6  A    between atoms: C_17  and  N_18
REMARK    7  A    between atoms: C_19  and  C_21
REMARK                            x       y       z     vdW  Elec       q    Type
REMARK                         _______ _______ _______ _____ _____    ______ ____
ROOT
ATOM      1  C   UNL     1       2.568   0.246  -0.156  0.00  0.00    +0.000 C 
ATOM      2  C   UNL     1       1.069   0.130  -0.117  0.00  0.00    +0.000 A 
ATOM      3  C   UNL     1       0.310   1.318  -0.122  0.00  0.00    +0.000 A 
ATOM      4  C   UNL     1      -1.090   1.299  -0.064  0.00  0.00    +0.000 A 
ATOM      5  C   UNL     1      -1.737   0.060  -0.045  0.00  0.00    +0.000 A 
ATOM      6  C   UNL     1      -0.996  -1.129  -0.031  0.00  0.00    +0.000 A 
ATOM      7  C   UNL     1       0.411  -1.116  -0.037  0.00  0.00    +0.000 A 
ENDROOT
BRANCH   4   8
ATOM      8  C   UNL     1      -1.865   2.591  -0.013  0.00  0.00    +0.000 C 
BRANCH   8   9
ATOM      9  N   UNL     1      -2.150   3.119  -1.320  0.00  0.00    +0.000 N 
ATOM     10  C   UNL     1      -2.884   4.272  -1.492  0.00  0.00    +0.000 C 
ATOM     11  O   UNL     1      -3.342   4.927  -0.564  0.00  0.00    +0.000 OA
ATOM     12  H   UNL     1      -1.775   2.688  -2.160  0.00  0.00    +0.000 HD
BRANCH  10  13
ATOM     13  C   UNL     1      -3.069   4.647  -2.904  0.00  0.00    +0.000 A 
ATOM     14  C   UNL     1      -3.745   5.794  -3.404  0.00  0.00    +0.000 A 
ATOM     15  C   UNL     1      -3.674   5.695  -4.771  0.00  0.00    +0.000 A 
ATOM     16  N   UNL     1      -2.991   4.544  -5.026  0.00  0.00    +0.000 N 
ATOM     17  N   UNL     1      -2.593   3.893  -3.919  0.00  0.00    +0.000 NA
ATOM     18  H   UNL     1      -2.761   4.143  -5.930  0.00  0.00    +0.000 HD
ENDBRANCH  10  13
ENDBRANCH   8   9
ENDBRANCH   4   8
BRANCH   7  19
ATOM     19  C   UNL     1       1.151  -2.439   0.013  0.00  0.00    +0.000 C 
BRANCH  19  20
ATOM     20  N   UNL     1       1.332  -2.987  -1.308  0.00  0.00    +0.000 N 
ATOM     21  C   UNL     1       1.793  -4.262  -1.524  0.00  0.00    +0.000 C 
ATOM     22  O   UNL     1       2.053  -5.030  -0.601  0.00  0.00    +0.000 OA
ATOM     23  H   UNL     1       1.383  -2.313  -2.064  0.00  0.00    +0.000 HD
BRANCH  21  24
ATOM     24  C   UNL     1       1.887  -4.690  -2.931  0.00  0.00    +0.000 A 
ATOM     25  C   UNL     1       1.908  -6.042  -3.251  0.00  0.00    +0.000 A 
ATOM     26  S   UNL     1       1.885  -6.345  -4.933  0.00  0.00    +0.000 S 
ATOM     27  C   UNL     1       1.898  -4.682  -5.290  0.00  0.00    +0.000 A 
ATOM     28  N   UNL     1       1.867  -4.237  -6.576  0.00  0.00    +0.000 NA
ATOM     29  C   UNL     1       1.892  -2.951  -6.697  0.00  0.00    +0.000 A 
ATOM     30  N   UNL     1       1.965  -2.070  -5.650  0.00  0.00    +0.000 N 
ATOM     31  C   UNL     1       2.023  -2.473  -4.340  0.00  0.00    +0.000 A 
ATOM     32  O   UNL     1       2.132  -1.659  -3.430  0.00  0.00    +0.000 OA
ATOM     33  C   UNL     1       1.943  -3.907  -4.144  0.00  0.00    +0.000 A 
ATOM     34  H   UNL     1       2.006  -1.074  -5.810  0.00  0.00    +0.000 HD
ENDBRANCH  21  24
ENDBRANCH  19  20
ENDBRANCH   7  19
TORSDOF 6
