REMARK  Name = 
REMARK  7 active torsions:
REMARK  status: ('A' for Active; 'I' for Inactive)
REMARK    1  A    between atoms: C_1  and  C_2
REMARK    2  A    between atoms: C_6  and  C_7
REMARK    3  A    between atoms: N_9  and  C_10
REMARK    4  A    between atoms: C_10  and  C_11
REMARK    5  A    between atoms: C_14  and  C_15
REMARK    6  A    between atoms: C_15  and  N_16
REMARK    7  A    between atoms: C_17  and  C_19
REMARK                            x       y       z     vdW  Elec       q    Type
REMARK                         _______ _______ _______ _____ _____    ______ ____
ROOT
ATOM      1  C   UNL     1      -3.374  -4.897   0.082  0.00  0.00    +0.000 A 
ATOM      2  C   UNL     1      -3.818  -6.216   0.092  0.00  0.00    +0.000 A 
ATOM      3  C   UNL     1      -5.188  -6.471   0.070  0.00  0.00    +0.000 A 
ATOM      4  C   UNL     1      -6.091  -5.407   0.036  0.00  0.00    +0.000 A 
ATOM      5  C   UNL     1      -5.558  -4.123   0.073  0.00  0.00    +0.000 A 
ATOM      6  N   UNL     1      -4.231  -3.845   0.095  0.00  0.00    +0.000 NA
ENDROOT
BRANCH   1   7
ATOM      7  C   UNL     1      -1.892  -4.596   0.062  0.00  0.00    +0.000 C 
BRANCH   7  10
ATOM      8  C   UNL     1      -0.825  -5.512   2.111  0.00  0.00    +0.000 C 
ATOM      9  O   UNL     1      -0.783  -6.647   1.638  0.00  0.00    +0.000 OA
ATOM     10  N   UNL     1      -1.334  -4.455   1.390  0.00  0.00    +0.000 N 
ATOM     11  H   UNL     1      -1.462  -3.567   1.856  0.00  0.00    +0.000 HD
BRANCH   8  17
ATOM     12  C   UNL     1       0.441  -7.499   4.293  0.00  0.00    +0.000 C 
ATOM     13  C   UNL     1       0.208  -6.033   4.404  0.00  0.00    +0.000 A 
ATOM     14  N   UNL     1       0.584  -5.411   5.590  0.00  0.00    +0.000 NA
ATOM     15  C   UNL     1       0.323  -4.128   5.522  0.00  0.00    +0.000 A 
ATOM     16  S   UNL     1      -0.391  -3.582   4.070  0.00  0.00    +0.000 S 
ATOM     17  C   UNL     1      -0.346  -5.190   3.448  0.00  0.00    +0.000 A 
ENDBRANCH   8  17
ENDBRANCH   7  10
ENDBRANCH   1   7
BRANCH   4  18
ATOM     18  C   UNL     1      -7.574  -5.634  -0.003  0.00  0.00    +0.000 C 
BRANCH  18  19
ATOM     19  N   UNL     1      -8.130  -5.732   1.323  0.00  0.00    +0.000 N 
ATOM     20  C   UNL     1      -9.454  -6.035   1.519  0.00  0.00    +0.000 C 
ATOM     21  O   UNL     1     -10.205  -6.300   0.584  0.00  0.00    +0.000 OA
ATOM     22  H   UNL     1      -7.596  -5.321   2.083  0.00  0.00    +0.000 HD
BRANCH  20  23
ATOM     23  C   UNL     1      -9.917  -6.081   2.912  0.00  0.00    +0.000 A 
ATOM     24  C   UNL     1     -11.047  -6.819   3.239  0.00  0.00    +0.000 A 
ATOM     25  S   UNL     1     -11.421  -6.799   4.902  0.00  0.00    +0.000 S 
ATOM     26  C   UNL     1     -10.113  -5.765   5.240  0.00  0.00    +0.000 A 
ATOM     27  N   UNL     1      -9.874  -5.331   6.507  0.00  0.00    +0.000 NA
ATOM     28  C   UNL     1      -8.867  -4.530   6.615  0.00  0.00    +0.000 A 
ATOM     29  N   UNL     1      -8.074  -4.125   5.572  0.00  0.00    +0.000 N 
ATOM     30  C   UNL     1      -8.262  -4.560   4.281  0.00  0.00    +0.000 A 
ATOM     31  O   UNL     1      -7.508  -4.214   3.377  0.00  0.00    +0.000 OA
ATOM     32  C   UNL     1      -9.389  -5.454   4.102  0.00  0.00    +0.000 A 
ATOM     33  H   UNL     1      -7.295  -3.504   5.726  0.00  0.00    +0.000 HD
ENDBRANCH  20  23
ENDBRANCH  18  19
ENDBRANCH   4  18
TORSDOF 6
