REMARK  Name = 
REMARK  8 active torsions:
REMARK  status: ('A' for Active; 'I' for Inactive)
REMARK    1  A    between atoms: C_1  and  O_2
REMARK    2  A    between atoms: O_2  and  C_3
REMARK    3  A    between atoms: C_5  and  C_6
REMARK    4  A    between atoms: C_6  and  N_7
REMARK    5  A    between atoms: C_8  and  C_10
REMARK    6  A    between atoms: C_22  and  C_23
REMARK    7  A    between atoms: C_23  and  O_24
REMARK    8  A    between atoms: O_24  and  C_25
REMARK                            x       y       z     vdW  Elec       q    Type
REMARK                         _______ _______ _______ _____ _____    ______ ____
ROOT
ATOM      1  C   UNL     1       2.963  -0.656  -0.896  0.00  0.00    +0.000 A 
ATOM      2  C   UNL     1       2.692  -0.486  -2.259  0.00  0.00    +0.000 A 
ATOM      3  C   UNL     1       3.433  -1.160  -3.238  0.00  0.00    +0.000 A 
ATOM      4  C   UNL     1       4.463  -2.017  -2.837  0.00  0.00    +0.000 A 
ATOM      5  C   UNL     1       4.750  -2.184  -1.480  0.00  0.00    +0.000 A 
ATOM      6  C   UNL     1       3.998  -1.519  -0.495  0.00  0.00    +0.000 A 
ENDROOT
BRANCH   1   8
ATOM      7  C   UNL     1       1.009   0.536  -0.266  0.00  0.00    +0.000 C 
ATOM      8  O   UNL     1       2.270  -0.017   0.100  0.00  0.00    +0.000 OA
ENDBRANCH   1   8
BRANCH   3   9
ATOM      9  C   UNL     1       3.085  -0.976  -4.690  0.00  0.00    +0.000 C 
BRANCH   9  10
ATOM     10  N   UNL     1       2.124  -1.954  -5.134  0.00  0.00    +0.000 N 
ATOM     11  C   UNL     1       0.785  -1.691  -5.245  0.00  0.00    +0.000 C 
ATOM     12  O   UNL     1       0.301  -0.600  -4.951  0.00  0.00    +0.000 OA
ATOM     13  H   UNL     1       2.450  -2.913  -5.182  0.00  0.00    +0.000 HD
BRANCH  11  14
ATOM     14  C   UNL     1      -0.046  -2.766  -5.811  0.00  0.00    +0.000 A 
ATOM     15  C   UNL     1      -1.268  -2.454  -6.391  0.00  0.00    +0.000 A 
ATOM     16  S   UNL     1      -2.082  -3.802  -7.046  0.00  0.00    +0.000 S 
ATOM     17  C   UNL     1      -0.851  -4.861  -6.536  0.00  0.00    +0.000 A 
ATOM     18  N   UNL     1      -0.942  -6.198  -6.766  0.00  0.00    +0.000 NA
ATOM     19  C   UNL     1       0.045  -6.889  -6.297  0.00  0.00    +0.000 A 
ATOM     20  N   UNL     1       1.117  -6.359  -5.629  0.00  0.00    +0.000 N 
ATOM     21  C   UNL     1       1.281  -5.010  -5.427  0.00  0.00    +0.000 A 
ATOM     22  O   UNL     1       2.305  -4.564  -4.919  0.00  0.00    +0.000 OA
ATOM     23  C   UNL     1       0.179  -4.191  -5.899  0.00  0.00    +0.000 A 
ATOM     24  H   UNL     1       1.868  -6.953  -5.307  0.00  0.00    +0.000 HD
ENDBRANCH  11  14
ENDBRANCH   9  10
ENDBRANCH   3   9
BRANCH   6  25
ATOM     25  C   UNL     1       4.281  -1.802   0.967  0.00  0.00    +0.000 C 
BRANCH  25  26
ATOM     26  O   UNL     1       5.308  -0.941   1.467  0.00  0.00    +0.000 OA
BRANCH  26  27
ATOM     27  C   UNL     1       5.577  -1.174   2.805  0.00  0.00    +0.000 A 
ATOM     28  C   UNL     1       6.536  -0.378   3.399  0.00  0.00    +0.000 A 
ATOM     29  C   UNL     1       6.818  -0.614   4.735  0.00  0.00    +0.000 A 
ATOM     30  F   UNL     1       7.746   0.128   5.356  0.00  0.00    +0.000 F 
ATOM     31  C   UNL     1       6.161  -1.606   5.445  0.00  0.00    +0.000 A 
ATOM     32  C   UNL     1       5.218  -2.348   4.761  0.00  0.00    +0.000 A 
ATOM     33  N   UNL     1       4.921  -2.159   3.460  0.00  0.00    +0.000 NA
ENDBRANCH  26  27
ENDBRANCH  25  26
ENDBRANCH   6  25
TORSDOF 7
