REMARK  Name = 
REMARK  7 active torsions:
REMARK  status: ('A' for Active; 'I' for Inactive)
REMARK    1  A    between atoms: C_1  and  O_2
REMARK    2  A    between atoms: O_2  and  C_3
REMARK    3  A    between atoms: C_8  and  C_9
REMARK    4  A    between atoms: C_9  and  C_10
REMARK    5  A    between atoms: C_13  and  C_14
REMARK    6  A    between atoms: C_14  and  N_15
REMARK    7  A    between atoms: C_16  and  C_18
REMARK                            x       y       z     vdW  Elec       q    Type
REMARK                         _______ _______ _______ _____ _____    ______ ____
ROOT
ATOM      1  C   UNL     1       0.702  -4.451   1.514  0.00  0.00    +0.000 C 
ENDROOT
BRANCH   1   5
ATOM      2  C   UNL     1       3.479  -2.108  -0.835  0.00  0.00    +0.000 A 
ATOM      3  C   UNL     1       2.138  -2.222  -1.222  0.00  0.00    +0.000 A 
ATOM      4  C   UNL     1       1.250  -3.019  -0.493  0.00  0.00    +0.000 A 
ATOM      5  C   UNL     1       1.682  -3.704   0.649  0.00  0.00    +0.000 A 
ATOM      6  C   UNL     1       3.040  -3.656   0.990  0.00  0.00    +0.000 A 
ATOM      7  C   UNL     1       3.928  -2.860   0.259  0.00  0.00    +0.000 A 
BRANCH   2   8
ATOM      8  C   UNL     1       4.409  -1.173  -1.576  0.00  0.00    +0.000 C 
BRANCH   8  14
ATOM      9  C   UNL     1       3.744   1.300  -1.403  0.00  0.00    +0.000 A 
ATOM     10  C   UNL     1       3.944   2.569  -0.841  0.00  0.00    +0.000 A 
ATOM     11  C   UNL     1       4.926   2.772   0.130  0.00  0.00    +0.000 A 
ATOM     12  C   UNL     1       5.702   1.706   0.566  0.00  0.00    +0.000 A 
ATOM     13  C   UNL     1       5.503   0.436   0.024  0.00  0.00    +0.000 A 
ATOM     14  C   UNL     1       4.535   0.215  -0.973  0.00  0.00    +0.000 A 
BRANCH   9  16
ATOM     15  C   UNL     1       2.278   2.154  -3.069  0.00  0.00    +0.000 C 
ATOM     16  O   UNL     1       2.797   1.033  -2.359  0.00  0.00    +0.000 OA
ENDBRANCH   9  16
ENDBRANCH   8  14
ENDBRANCH   2   8
ENDBRANCH   1   5
BRANCH   1  17
ATOM     17  N   UNL     1       0.556  -5.825   1.116  0.00  0.00    +0.000 N 
ATOM     18  C   UNL     1      -0.376  -6.628   1.727  0.00  0.00    +0.000 C 
ATOM     19  O   UNL     1      -1.150  -6.195   2.577  0.00  0.00    +0.000 OA
ATOM     20  H   UNL     1       1.321  -6.244   0.597  0.00  0.00    +0.000 HD
BRANCH  18  21
ATOM     21  C   UNL     1      -0.450  -8.020   1.270  0.00  0.00    +0.000 A 
ATOM     22  C   UNL     1      -1.618  -8.743   1.468  0.00  0.00    +0.000 A 
ATOM     23  S   UNL     1      -1.560 -10.325   0.834  0.00  0.00    +0.000 S 
ATOM     24  C   UNL     1       0.049 -10.117   0.322  0.00  0.00    +0.000 A 
ATOM     25  N   UNL     1       0.719 -11.129  -0.290  0.00  0.00    +0.000 NA
ATOM     26  C   UNL     1       1.942 -10.845  -0.599  0.00  0.00    +0.000 A 
ATOM     27  N   UNL     1       2.552  -9.641  -0.352  0.00  0.00    +0.000 N 
ATOM     28  C   UNL     1       1.906  -8.583   0.242  0.00  0.00    +0.000 A 
ATOM     29  O   UNL     1       2.470  -7.509   0.414  0.00  0.00    +0.000 OA
ATOM     30  C   UNL     1       0.530  -8.852   0.615  0.00  0.00    +0.000 A 
ATOM     31  H   UNL     1       3.510  -9.484  -0.623  0.00  0.00    +0.000 HD
ENDBRANCH  18  21
ENDBRANCH   1  17
TORSDOF 6
