REMARK  Name = 
REMARK  9 active torsions:
REMARK  status: ('A' for Active; 'I' for Inactive)
REMARK    1  A    between atoms: C_2  and  C_21
REMARK    2  A    between atoms: N_3  and  C_4
REMARK    3  A    between atoms: C_4  and  C_5
REMARK    4  A    between atoms: C_8  and  C_9
REMARK    5  A    between atoms: C_9  and  N_10
REMARK    6  A    between atoms: N_10  and  CA_11
REMARK    7  A    between atoms: CA_11  and  C_12
REMARK    8  A    between atoms: CA_11  and  C_14
REMARK    9  A    between atoms: C_12  and  O_13
REMARK                            x       y       z     vdW  Elec       q    Type
REMARK                         _______ _______ _______ _____ _____    ______ ____
ROOT
ATOM      1  C   UNL     1       4.889   3.157 -11.829  0.00  0.00    +0.000 A 
ATOM      2  C   UNL     1       5.882   4.101 -11.541  0.00  0.00    +0.000 A 
ATOM      3  C   UNL     1       5.932   4.724 -10.291  0.00  0.00    +0.000 A 
ATOM      4  C   UNL     1       4.995   4.407  -9.299  0.00  0.00    +0.000 A 
ATOM      5  C   UNL     1       4.016   3.443  -9.580  0.00  0.00    +0.000 A 
ATOM      6  C   UNL     1       3.967   2.819 -10.830  0.00  0.00    +0.000 A 
ENDROOT
BRANCH   1   7
ATOM      7  C   UNL     1       4.848   2.482 -13.175  0.00  0.00    +0.000 C 
BRANCH   7  10
ATOM      8  O   UNL     1       7.514   2.179 -14.038  0.00  0.00    +0.000 OA
ATOM      9  C   UNL     1       6.934   1.218 -13.544  0.00  0.00    +0.000 C 
ATOM     10  N   UNL     1       5.617   1.264 -13.167  0.00  0.00    +0.000 N 
ATOM     11  H   UNL     1       5.241   0.512 -12.602  0.00  0.00    +0.000 HD
BRANCH   9  12
ATOM     12  C   UNL     1       7.603  -0.078 -13.380  0.00  0.00    +0.000 A 
ATOM     13  C   UNL     1       8.725  -0.378 -14.141  0.00  0.00    +0.000 A 
ATOM     14  S   UNL     1       9.360  -1.933 -13.843  0.00  0.00    +0.000 S 
ATOM     15  C   UNL     1       8.188  -2.242 -12.649  0.00  0.00    +0.000 A 
ATOM     16  N   UNL     1       8.184  -3.417 -11.961  0.00  0.00    +0.000 NA
ATOM     17  C   UNL     1       7.268  -3.501 -11.053  0.00  0.00    +0.000 A 
ATOM     18  N   UNL     1       6.352  -2.521 -10.776  0.00  0.00    +0.000 N 
ATOM     19  C   UNL     1       6.269  -1.353 -11.497  0.00  0.00    +0.000 A 
ATOM     20  O   UNL     1       5.352  -0.562 -11.310  0.00  0.00    +0.000 OA
ATOM     21  C   UNL     1       7.307  -1.188 -12.498  0.00  0.00    +0.000 A 
ATOM     22  H   UNL     1       5.642  -2.662 -10.073  0.00  0.00    +0.000 HD
ENDBRANCH   9  12
ENDBRANCH   7  10
ENDBRANCH   1   7
BRANCH   4  23
ATOM     23  C   UNL     1       5.067   5.053  -7.934  0.00  0.00    +0.000 C 
BRANCH  23  24
ATOM     24  N   UNL     1       4.871   6.499  -8.003  0.00  0.00    +0.000 NA
ATOM     25  H   UNL     1       3.988   6.724  -8.453  0.00  0.00    +0.000 HD
BRANCH  24  26
ATOM     26  CA  UNL     1       5.023   7.188  -6.699  0.00  0.00    +0.000 C 
BRANCH  26  27
ATOM     27  C   UNL     1       4.882   8.729  -6.891  0.00  0.00    +0.000 C 
ATOM     28  C   UNL     1       5.841   9.315  -7.921  0.00  0.00    +0.000 C 
ATOM     29  C   UNL     1       5.802  10.799  -7.610  0.00  0.00    +0.000 C 
ATOM     30  C   UNL     1       5.536  10.868  -6.114  0.00  0.00    +0.000 C 
ATOM     31  N   UNL     1       5.221   9.504  -5.682  0.00  0.00    +0.000 NA
ATOM     32  H   UNL     1       4.428   9.515  -5.039  0.00  0.00    +0.000 HD
ENDBRANCH  26  27
BRANCH  26  33
ATOM     33  C   UNL     1       4.020   6.696  -5.624  0.00  0.00    +0.000 C 
BRANCH  33  34
ATOM     34  O   UNL     1       2.668   6.928  -6.016  0.00  0.00    +0.000 OA
ATOM     35  H   UNL     1       2.559   6.544  -6.902  0.00  0.00    +0.000 HD
ENDBRANCH  33  34
ENDBRANCH  26  33
ENDBRANCH  24  26
ENDBRANCH  23  24
ENDBRANCH   4  23
TORSDOF 9
