REMARK  Name = 
REMARK  8 active torsions:
REMARK  status: ('A' for Active; 'I' for Inactive)
REMARK    1  A    between atoms: C_1  and  O_2
REMARK    2  A    between atoms: O_2  and  C_3
REMARK    3  A    between atoms: C_10  and  C_11
REMARK    4  A    between atoms: N_13  and  C_14
REMARK    5  A    between atoms: C_14  and  C_15
REMARK    6  A    between atoms: C_18  and  N_19
REMARK    7  A    between atoms: N_19  and  C_20
REMARK    8  A    between atoms: C_20  and  C_21
REMARK                            x       y       z     vdW  Elec       q    Type
REMARK                         _______ _______ _______ _____ _____    ______ ____
ROOT
ATOM      1  C   UNL     1       2.780   3.281   0.228  0.00  0.00    +0.000 C 
ENDROOT
BRANCH   1   2
ATOM      2  C   UNL     1       1.589   3.222  -0.699  0.00  0.00    +0.000 A 
ATOM      3  C   UNL     1       1.256   2.033  -1.360  0.00  0.00    +0.000 A 
ATOM      4  C   UNL     1       0.038   1.910  -2.044  0.00  0.00    +0.000 A 
ATOM      5  C   UNL     1      -0.871   2.969  -2.083  0.00  0.00    +0.000 A 
ATOM      6  C   UNL     1      -0.452   4.206  -1.582  0.00  0.00    +0.000 A 
ATOM      7  C   UNL     1       0.754   4.331  -0.878  0.00  0.00    +0.000 A 
BRANCH   5   8
ATOM      8  N   UNL     1      -2.147   2.881  -2.653  0.00  0.00    +0.000 N 
ATOM      9  H   UNL     1      -2.143   3.210  -3.616  0.00  0.00    +0.000 HD
BRANCH   8  10
ATOM     10  C   UNL     1      -2.873   1.609  -2.518  0.00  0.00    +0.000 C 
BRANCH  10  11
ATOM     11  C   UNL     1      -4.372   1.838  -2.459  0.00  0.00    +0.000 A 
ATOM     12  C   UNL     1      -4.885   3.028  -1.905  0.00  0.00    +0.000 A 
ATOM     13  C   UNL     1      -6.259   3.255  -1.806  0.00  0.00    +0.000 A 
ATOM     14  C   UNL     1      -7.157   2.289  -2.248  0.00  0.00    +0.000 A 
ATOM     15  C   UNL     1      -6.677   1.085  -2.758  0.00  0.00    +0.000 A 
ATOM     16  C   UNL     1      -5.297   0.852  -2.846  0.00  0.00    +0.000 A 
ATOM     17 CL   UNL     1      -4.793  -0.702  -3.412  0.00  0.00    +0.000 Cl
ENDBRANCH  10  11
ENDBRANCH   8  10
ENDBRANCH   5   8
ENDBRANCH   1   2
BRANCH   1  20
ATOM     18  C   UNL     1       5.178   3.838   0.239  0.00  0.00    +0.000 C 
ATOM     19  O   UNL     1       5.268   3.588   1.435  0.00  0.00    +0.000 OA
ATOM     20  N   UNL     1       3.985   3.700  -0.433  0.00  0.00    +0.000 N 
ATOM     21  H   UNL     1       3.942   3.854  -1.427  0.00  0.00    +0.000 HD
BRANCH  18  29
ATOM     22  C   UNL     1       5.645   4.578  -3.079  0.00  0.00    +0.000 A 
ATOM     23  N   UNL     1       6.038   5.053  -4.276  0.00  0.00    +0.000 NA
ATOM     24  C   UNL     1       7.262   5.583  -4.364  0.00  0.00    +0.000 A 
ATOM     25  N   UNL     1       8.170   5.674  -3.394  0.00  0.00    +0.000 NA
ATOM     26  C   UNL     1       7.728   5.202  -2.216  0.00  0.00    +0.000 A 
ATOM     27  S   UNL     1       8.755   5.209  -0.865  0.00  0.00    +0.000 S 
ATOM     28  C   UNL     1       7.539   4.550   0.126  0.00  0.00    +0.000 A 
ATOM     29  C   UNL     1       6.334   4.330  -0.533  0.00  0.00    +0.000 A 
ATOM     30  C   UNL     1       6.472   4.667  -1.947  0.00  0.00    +0.000 A 
BRANCH  22  32
ATOM     31  C   UNL     1       3.930   3.454  -4.205  0.00  0.00    +0.000 C 
ATOM     32  O   UNL     1       4.390   4.019  -2.982  0.00  0.00    +0.000 OA
ENDBRANCH  22  32
ENDBRANCH  18  29
ENDBRANCH   1  20
TORSDOF 7
