REMARK  Name = 
REMARK  6 active torsions:
REMARK  status: ('A' for Active; 'I' for Inactive)
REMARK    1  A    between atoms: N_1  and  C_2
REMARK    2  A    between atoms: C_2  and  C_3
REMARK    3  A    between atoms: C_6  and  S_7
REMARK    4  A    between atoms: S_7  and  C_8
REMARK    5  A    between atoms: C_8  and  C_9
REMARK    6  A    between atoms: C_13  and  C_14
REMARK                            x       y       z     vdW  Elec       q    Type
REMARK                         _______ _______ _______ _____ _____    ______ ____
ROOT
ATOM      1  C   UNL     1       3.476   6.313   2.715  0.00  0.00    +0.000 C 
ENDROOT
BRANCH   1   2
ATOM      2  C   UNL     1       3.684   7.541   3.562  0.00  0.00    +0.000 A 
ATOM      3  C   UNL     1       2.613   8.201   4.157  0.00  0.00    +0.000 A 
ATOM      4  N   UNL     1       2.732   9.327   4.898  0.00  0.00    +0.000 NA
ATOM      5  C   UNL     1       3.984   9.818   5.071  0.00  0.00    +0.000 A 
ATOM      6  C   UNL     1       5.125   9.219   4.552  0.00  0.00    +0.000 A 
ATOM      7  C   UNL     1       4.966   8.066   3.779  0.00  0.00    +0.000 A 
BRANCH   6   8
ATOM      8  C   UNL     1       6.439   9.841   4.812  0.00  0.00    +0.000 C 
ATOM      9  N   UNL     1       7.540   9.030   4.759  0.00  0.00    +0.000 N 
ATOM     10  O   UNL     1       6.543  11.028   5.093  0.00  0.00    +0.000 OA
ATOM     11  H   UNL     1       7.476   8.023   4.788  0.00  0.00    +0.000 HD
ATOM     12  H   UNL     1       8.418   9.449   5.044  0.00  0.00    +0.000 HD
ENDBRANCH   6   8
ENDBRANCH   1   2
BRANCH   1  13
ATOM     13  S   UNL     1       3.731   4.787   3.681  0.00  0.00    +0.000 S 
BRANCH  13  17
ATOM     14  C   UNL     1       2.649   1.404   0.726  0.00  0.00    +0.000 A 
ATOM     15  C   UNL     1       3.335   2.537   0.267  0.00  0.00    +0.000 A 
ATOM     16  C   UNL     1       3.672   3.579   1.141  0.00  0.00    +0.000 A 
ATOM     17  C   UNL     1       3.319   3.515   2.492  0.00  0.00    +0.000 A 
ATOM     18  C   UNL     1       2.655   2.374   2.957  0.00  0.00    +0.000 A 
ATOM     19  C   UNL     1       2.320   1.331   2.084  0.00  0.00    +0.000 A 
BRANCH  14  20
ATOM     20  C   UNL     1       2.242   0.308  -0.226  0.00  0.00    +0.000 C 
BRANCH  20  21
ATOM     21  N   UNL     1       3.385  -0.261  -0.932  0.00  0.00    +0.000 NA
ATOM     22  H   UNL     1       3.068  -1.048  -1.495  0.00  0.00    +0.000 HD
ATOM     23  H   UNL     1       4.034  -0.643  -0.246  0.00  0.00    +0.000 HD
ENDBRANCH  20  21
ENDBRANCH  14  20
ENDBRANCH  13  17
ENDBRANCH   1  13
TORSDOF 6
