REMARK  Name = 
REMARK  5 active torsions:
REMARK  status: ('A' for Active; 'I' for Inactive)
REMARK    1  A    between atoms: N_1  and  C_2
REMARK    2  A    between atoms: C_2  and  C_3
REMARK    3  A    between atoms: C_3  and  C_4
REMARK    4  A    between atoms: C_8  and  C_9
REMARK    5  A    between atoms: C_9  and  N_10
REMARK                            x       y       z     vdW  Elec       q    Type
REMARK                         _______ _______ _______ _____ _____    ______ ____
ROOT
ATOM      1  C   UNL     1       4.421   0.372  -1.313  0.00  0.00    +0.000 A 
ATOM      2  C   UNL     1       5.075   1.608  -1.255  0.00  0.00    +0.000 A 
ATOM      3  C   UNL     1       6.467   1.666  -1.202  0.00  0.00    +0.000 A 
ATOM      4  C   UNL     1       7.218   0.490  -1.181  0.00  0.00    +0.000 A 
ATOM      5  C   UNL     1       6.583  -0.759  -1.209  0.00  0.00    +0.000 A 
ATOM      6  C   UNL     1       5.183  -0.804  -1.304  0.00  0.00    +0.000 A 
ENDROOT
BRANCH   1   7
ATOM      7  C   UNL     1       2.915   0.303  -1.379  0.00  0.00    +0.000 C 
BRANCH   7   8
ATOM      8  C   UNL     1       2.395   0.420  -2.815  0.00  0.00    +0.000 C 
BRANCH   8   9
ATOM      9  N   UNL     1       0.934   0.355  -2.850  0.00  0.00    +0.000 NA
ATOM     10  H   UNL     1       0.618   0.468  -3.812  0.00  0.00    +0.000 HD
ATOM     11  H   UNL     1       0.544   1.137  -2.329  0.00  0.00    +0.000 HD
ENDBRANCH   8   9
ENDBRANCH   7   8
ENDBRANCH   1   7
BRANCH   5  12
ATOM     12  C   UNL     1       7.376  -2.036  -1.091  0.00  0.00    +0.000 C 
BRANCH  12  13
ATOM     13  N   UNL     1       7.494  -2.480   0.297  0.00  0.00    +0.000 N 
ATOM     14  C   UNL     1       6.585  -3.300   0.922  0.00  0.00    +0.000 A 
ATOM     15  C   UNL     1       7.078  -3.617   2.168  0.00  0.00    +0.000 A 
ATOM     16  C   UNL     1       8.337  -2.973   2.312  0.00  0.00    +0.000 A 
ATOM     17  C   UNL     1       9.301  -2.941   3.326  0.00  0.00    +0.000 A 
ATOM     18  N   UNL     1      10.439  -2.219   3.181  0.00  0.00    +0.000 NA
ATOM     19  C   UNL     1      10.622  -1.526   2.039  0.00  0.00    +0.000 A 
ATOM     20  C   UNL     1       9.731  -1.490   0.978  0.00  0.00    +0.000 A 
ATOM     21  C   UNL     1       8.569  -2.252   1.133  0.00  0.00    +0.000 A 
ENDBRANCH  12  13
ENDBRANCH   5  12
TORSDOF 5
