REMARK  Name = 
REMARK  9 active torsions:
REMARK  status: ('A' for Active; 'I' for Inactive)
REMARK    1  A    between atoms: C_1  and  O_2
REMARK    2  A    between atoms: O_2  and  C_3
REMARK    3  A    between atoms: C_10  and  C_11
REMARK    4  A    between atoms: N_13  and  C_14
REMARK    5  A    between atoms: C_14  and  C_15
REMARK    6  A    between atoms: C_18  and  N_19
REMARK    7  A    between atoms: N_19  and  C_20
REMARK    8  A    between atoms: C_20  and  C_21
REMARK    9  A    between atoms: C_21  and  C_22
REMARK                            x       y       z     vdW  Elec       q    Type
REMARK                         _______ _______ _______ _____ _____    ______ ____
ROOT
ATOM      1  C   UNL     1       2.859  -2.832  -1.904  0.00  0.00    +0.000 C 
ENDROOT
BRANCH   1   2
ATOM      2  C   UNL     1       1.731  -3.297  -1.024  0.00  0.00    +0.000 A 
ATOM      3  C   UNL     1       1.662  -4.626  -0.595  0.00  0.00    +0.000 A 
ATOM      4  C   UNL     1       0.696  -5.018   0.336  0.00  0.00    +0.000 A 
ATOM      5  C   UNL     1      -0.190  -4.086   0.887  0.00  0.00    +0.000 A 
ATOM      6  C   UNL     1      -0.209  -2.798   0.346  0.00  0.00    +0.000 A 
ATOM      7  C   UNL     1       0.745  -2.402  -0.595  0.00  0.00    +0.000 A 
BRANCH   5   8
ATOM      8  N   UNL     1      -1.078  -4.377   1.932  0.00  0.00    +0.000 N 
ATOM      9  H   UNL     1      -2.011  -4.549   1.563  0.00  0.00    +0.000 HD
BRANCH   8  10
ATOM     10  C   UNL     1      -0.672  -5.390   2.915  0.00  0.00    +0.000 C 
BRANCH  10  11
ATOM     11  C   UNL     1       0.599  -4.965   3.671  0.00  0.00    +0.000 C 
BRANCH  11  12
ATOM     12  C   UNL     1       1.062  -6.013   4.648  0.00  0.00    +0.000 A 
ATOM     13  C   UNL     1       1.925  -7.034   4.239  0.00  0.00    +0.000 A 
ATOM     14  C   UNL     1       2.318  -7.983   5.170  0.00  0.00    +0.000 A 
ATOM     15  N   UNL     1       1.911  -7.985   6.456  0.00  0.00    +0.000 NA
ATOM     16  C   UNL     1       1.080  -6.988   6.830  0.00  0.00    +0.000 A 
ATOM     17  C   UNL     1       0.632  -5.994   5.975  0.00  0.00    +0.000 A 
ENDBRANCH  11  12
ENDBRANCH  10  11
ENDBRANCH   8  10
ENDBRANCH   5   8
ENDBRANCH   1   2
BRANCH   1  20
ATOM     18  C   UNL     1       3.475  -2.623  -4.258  0.00  0.00    +0.000 C 
ATOM     19  O   UNL     1       4.568  -2.163  -3.943  0.00  0.00    +0.000 OA
ATOM     20  N   UNL     1       2.557  -2.976  -3.303  0.00  0.00    +0.000 N 
ATOM     21  H   UNL     1       1.651  -3.342  -3.563  0.00  0.00    +0.000 HD
BRANCH  18  29
ATOM     22  C   UNL     1       0.679  -3.878  -5.846  0.00  0.00    +0.000 A 
ATOM     23  N   UNL     1      -0.246  -4.339  -6.712  0.00  0.00    +0.000 NA
ATOM     24  C   UNL     1       0.020  -4.264  -8.018  0.00  0.00    +0.000 A 
ATOM     25  N   UNL     1       1.120  -3.777  -8.581  0.00  0.00    +0.000 NA
ATOM     26  C   UNL     1       2.023  -3.345  -7.685  0.00  0.00    +0.000 A 
ATOM     27  S   UNL     1       3.489  -2.689  -8.232  0.00  0.00    +0.000 S 
ATOM     28  C   UNL     1       4.018  -2.418  -6.643  0.00  0.00    +0.000 A 
ATOM     29  C   UNL     1       3.106  -2.813  -5.670  0.00  0.00    +0.000 A 
ATOM     30  C   UNL     1       1.906  -3.360  -6.298  0.00  0.00    +0.000 A 
BRANCH  22  32
ATOM     31  C   UNL     1      -1.023  -3.913  -4.257  0.00  0.00    +0.000 C 
ATOM     32  O   UNL     1       0.385  -3.937  -4.498  0.00  0.00    +0.000 OA
ENDBRANCH  22  32
ENDBRANCH  18  29
ENDBRANCH   1  20
TORSDOF 8
