REMARK  Name = 
REMARK  8 active torsions:
REMARK  status: ('A' for Active; 'I' for Inactive)
REMARK    1  A    between atoms: C_1  and  C_2
REMARK    2  A    between atoms: C_2  and  C_3
REMARK    3  A    between atoms: C_2  and  C_4
REMARK    4  A    between atoms: C_2  and  O_5
REMARK    5  A    between atoms: O_5  and  C_6
REMARK    6  A    between atoms: C_6  and  C_7
REMARK    7  A    between atoms: C_10  and  C_11
REMARK    8  A    between atoms: C_11  and  N_12
REMARK                            x       y       z     vdW  Elec       q    Type
REMARK                         _______ _______ _______ _____ _____    ______ ____
ROOT
ATOM      1  C   UNL     1       4.812   1.825   2.146  0.00  0.00    +0.000 A 
ATOM      2  C   UNL     1       4.801   3.191   1.834  0.00  0.00    +0.000 A 
ATOM      3  C   UNL     1       5.021   4.149   2.827  0.00  0.00    +0.000 A 
ATOM      4  C   UNL     1       5.261   3.760   4.153  0.00  0.00    +0.000 A 
ATOM      5  C   UNL     1       5.287   2.392   4.460  0.00  0.00    +0.000 A 
ATOM      6  C   UNL     1       5.064   1.436   3.468  0.00  0.00    +0.000 A 
ENDROOT
BRANCH   1   7
ATOM      7  C   UNL     1       4.471   0.797   1.098  0.00  0.00    +0.000 C 
BRANCH   7   8
ATOM      8  O   UNL     1       5.373   0.897  -0.000  0.00  0.00    +0.000 OA
BRANCH   8  10
ATOM      9  C   UNL     1       3.753   0.309  -1.750  0.00  0.00    +0.000 C 
ATOM     10  C   UNL     1       5.118   0.022  -1.113  0.00  0.00    +0.000 C 
ATOM     11  C   UNL     1       5.237  -1.454  -0.712  0.00  0.00    +0.000 C 
ATOM     12  C   UNL     1       6.211   0.336  -2.146  0.00  0.00    +0.000 C 
ENDBRANCH   8  10
ENDBRANCH   7   8
ENDBRANCH   1   7
BRANCH   4  13
ATOM     13  C   UNL     1       5.467   4.788   5.235  0.00  0.00    +0.000 C 
BRANCH  13  14
ATOM     14  N   UNL     1       4.215   5.151   5.892  0.00  0.00    +0.000 N 
ATOM     15  C   UNL     1       3.683   4.478   6.969  0.00  0.00    +0.000 A 
ATOM     16  C   UNL     1       2.563   5.160   7.389  0.00  0.00    +0.000 A 
ATOM     17  C   UNL     1       2.415   6.288   6.550  0.00  0.00    +0.000 A 
ATOM     18  N   UNL     1       1.470   7.258   6.599  0.00  0.00    +0.000 NA
ATOM     19  C   UNL     1       1.597   8.218   5.660  0.00  0.00    +0.000 A 
ATOM     20  C   UNL     1       2.581   8.267   4.684  0.00  0.00    +0.000 A 
ATOM     21  C   UNL     1       3.547   7.266   4.640  0.00  0.00    +0.000 A 
ATOM     22  C   UNL     1       3.447   6.264   5.611  0.00  0.00    +0.000 A 
ENDBRANCH  13  14
ENDBRANCH   4  13
TORSDOF 5
