REMARK  Name = 
REMARK  5 active torsions:
REMARK  status: ('A' for Active; 'I' for Inactive)
REMARK    1  A    between atoms: C_1  and  C_2
REMARK    2  A    between atoms: C_2  and  C_3
REMARK    3  A    between atoms: C_12  and  N_13
REMARK    4  A    between atoms: N_13  and  C_14
REMARK    5  A    between atoms: C_17  and  C_18
REMARK                            x       y       z     vdW  Elec       q    Type
REMARK                         _______ _______ _______ _____ _____    ______ ____
ROOT
ATOM      1  N   UNL     1       0.978   1.984   1.150  0.00  0.00    +0.000 N 
ATOM      2  H   UNL     1       1.871   1.647   1.496  0.00  0.00    +0.000 HD
ENDROOT
BRANCH   1   3
ATOM      3  C   UNL     1       0.408   3.028   1.908  0.00  0.00    +0.000 A 
ATOM      4  C   UNL     1      -0.936   3.377   1.811  0.00  0.00    +0.000 A 
ATOM      5  C   UNL     1      -1.481   4.304   2.697  0.00  0.00    +0.000 A 
ATOM      6  C   UNL     1      -0.640   4.909   3.621  0.00  0.00    +0.000 A 
ATOM      7  N   UNL     1       0.699   4.682   3.685  0.00  0.00    +0.000 NA
ATOM      8  C   UNL     1       1.180   3.758   2.816  0.00  0.00    +0.000 A 
BRANCH   6   9
ATOM      9  C   UNL     1      -1.216   5.848   4.639  0.00  0.00    +0.000 C 
ATOM     10  N   UNL     1      -0.319   6.404   5.511  0.00  0.00    +0.000 N 
ATOM     11  O   UNL     1      -2.412   6.103   4.701  0.00  0.00    +0.000 OA
ATOM     12  H   UNL     1       0.665   6.167   5.433  0.00  0.00    +0.000 HD
ATOM     13  H   UNL     1      -0.645   7.036   6.218  0.00  0.00    +0.000 HD
ENDBRANCH   6   9
ENDBRANCH   1   3
BRANCH   1  18
ATOM     14  C   UNL     1      -1.726  -0.032  -0.499  0.00  0.00    +0.000 C 
ATOM     15  C   UNL     1      -0.602  -0.019   0.571  0.00  0.00    +0.000 C 
ATOM     16  C   UNL     1       0.553  -1.002   0.225  0.00  0.00    +0.000 C 
ATOM     17  C   UNL     1       1.330   0.139  -0.445  0.00  0.00    +0.000 C 
ATOM     18  C   UNL     1       0.345   1.172   0.151  0.00  0.00    +0.000 C 
BRANCH  15  19
ATOM     19  C   UNL     1      -1.266  -0.204   2.059  0.00  0.00    +0.000 A 
ATOM     20  C   UNL     1      -2.461  -0.940   2.261  0.00  0.00    +0.000 A 
ATOM     21  C   UNL     1      -3.159  -0.942   3.474  0.00  0.00    +0.000 A 
ATOM     22  C   UNL     1      -2.658  -0.226   4.544  0.00  0.00    +0.000 A 
ATOM     23  F   UNL     1      -3.360  -0.146   5.681  0.00  0.00    +0.000 F 
ATOM     24  C   UNL     1      -1.427   0.393   4.449  0.00  0.00    +0.000 A 
ATOM     25  C   UNL     1      -0.725   0.350   3.237  0.00  0.00    +0.000 A 
ENDBRANCH  15  19
ENDBRANCH   1  18
TORSDOF 4
