REMARK  Name = 
REMARK  8 active torsions:
REMARK  status: ('A' for Active; 'I' for Inactive)
REMARK    1  A    between atoms: C_1  and  O_2
REMARK    2  A    between atoms: O_2  and  C_3
REMARK    3  A    between atoms: C_5  and  C_6
REMARK    4  A    between atoms: C_6  and  N_7
REMARK    5  A    between atoms: C_8  and  C_10
REMARK    6  A    between atoms: C_17  and  C_18
REMARK    7  A    between atoms: C_18  and  N_19
REMARK    8  A    between atoms: C_20  and  C_22
REMARK                            x       y       z     vdW  Elec       q    Type
REMARK                         _______ _______ _______ _____ _____    ______ ____
ROOT
ATOM      1  C   UNL     1       2.949   1.063   0.357  0.00  0.00    +0.000 A 
ATOM      2  C   UNL     1       2.578   1.664   1.569  0.00  0.00    +0.000 A 
ATOM      3  C   UNL     1       3.333   2.712   2.120  0.00  0.00    +0.000 A 
ATOM      4  C   UNL     1       4.459   3.170   1.430  0.00  0.00    +0.000 A 
ATOM      5  C   UNL     1       4.833   2.581   0.223  0.00  0.00    +0.000 A 
ATOM      6  C   UNL     1       4.095   1.517  -0.322  0.00  0.00    +0.000 A 
ENDROOT
BRANCH   1   8
ATOM      7  C   UNL     1       0.928  -0.181   0.188  0.00  0.00    +0.000 C 
ATOM      8  O   UNL     1       2.283   0.004  -0.207  0.00  0.00    +0.000 OA
ENDBRANCH   1   8
BRANCH   3   9
ATOM      9  C   UNL     1       2.907   3.366   3.410  0.00  0.00    +0.000 C 
BRANCH   9  10
ATOM     10  N   UNL     1       2.039   4.486   3.154  0.00  0.00    +0.000 N 
ATOM     11  C   UNL     1       1.490   5.221   4.176  0.00  0.00    +0.000 C 
ATOM     12  O   UNL     1       1.677   4.945   5.359  0.00  0.00    +0.000 OA
ATOM     13  H   UNL     1       1.928   4.798   2.201  0.00  0.00    +0.000 HD
BRANCH  11  14
ATOM     14  C   UNL     1       0.681   6.347   3.761  0.00  0.00    +0.000 A 
ATOM     15  C   UNL     1       0.311   6.815   2.508  0.00  0.00    +0.000 A 
ATOM     16  C   UNL     1      -0.503   7.961   2.684  0.00  0.00    +0.000 A 
ATOM     17  C   UNL     1      -0.617   8.175   4.037  0.00  0.00    +0.000 A 
ATOM     18  N   UNL     1       0.099   7.200   4.678  0.00  0.00    +0.000 N 
ATOM     19  H   UNL     1       0.200   7.097   5.681  0.00  0.00    +0.000 HD
ENDBRANCH  11  14
ENDBRANCH   9  10
ENDBRANCH   3   9
BRANCH   6  20
ATOM     20  C   UNL     1       4.538   0.931  -1.640  0.00  0.00    +0.000 C 
BRANCH  20  21
ATOM     21  N   UNL     1       3.885   1.568  -2.762  0.00  0.00    +0.000 N 
ATOM     22  C   UNL     1       4.427   2.620  -3.455  0.00  0.00    +0.000 C 
ATOM     23  O   UNL     1       5.531   3.089  -3.190  0.00  0.00    +0.000 OA
ATOM     24  H   UNL     1       2.903   1.348  -2.875  0.00  0.00    +0.000 HD
BRANCH  22  25
ATOM     25  C   UNL     1       3.646   3.106  -4.603  0.00  0.00    +0.000 A 
ATOM     26  C   UNL     1       4.284   3.761  -5.650  0.00  0.00    +0.000 A 
ATOM     27  S   UNL     1       3.240   4.167  -6.938  0.00  0.00    +0.000 S 
ATOM     28  C   UNL     1       1.891   3.531  -6.119  0.00  0.00    +0.000 A 
ATOM     29  N   UNL     1       0.652   3.558  -6.682  0.00  0.00    +0.000 NA
ATOM     30  C   UNL     1      -0.284   3.073  -5.936  0.00  0.00    +0.000 A 
ATOM     31  N   UNL     1      -0.094   2.570  -4.676  0.00  0.00    +0.000 N 
ATOM     32  C   UNL     1       1.141   2.495  -4.079  0.00  0.00    +0.000 A 
ATOM     33  O   UNL     1       1.277   1.995  -2.968  0.00  0.00    +0.000 OA
ATOM     34  C   UNL     1       2.231   3.021  -4.878  0.00  0.00    +0.000 A 
ATOM     35  H   UNL     1      -0.869   2.204  -4.142  0.00  0.00    +0.000 HD
ENDBRANCH  22  25
ENDBRANCH  20  21
ENDBRANCH   6  20
TORSDOF 7
