REMARK  Name = 
REMARK  6 active torsions:
REMARK  status: ('A' for Active; 'I' for Inactive)
REMARK    1  A    between atoms: C_2  and  C_19
REMARK    2  A    between atoms: N_3  and  C_4
REMARK    3  A    between atoms: C_4  and  C_5
REMARK    4  A    between atoms: C_8  and  C_9
REMARK    5  A    between atoms: C_10  and  C_11
REMARK    6  A    between atoms: C_11  and  N_12
REMARK                            x       y       z     vdW  Elec       q    Type
REMARK                         _______ _______ _______ _____ _____    ______ ____
ROOT
ATOM      1  O   UNL     1       0.375   2.495  -2.401  0.00  0.00    +0.000 OA
ATOM      2  C   UNL     1       0.141   1.373  -2.841  0.00  0.00    +0.000 C 
ATOM      3  N   UNL     1       1.054   0.353  -2.773  0.00  0.00    +0.000 N 
ATOM      4  H   UNL     1       0.880  -0.498  -3.298  0.00  0.00    +0.000 HD
ENDROOT
BRANCH   2   5
ATOM      5  C   UNL     1      -1.160   1.036  -3.432  0.00  0.00    +0.000 A 
ATOM      6  C   UNL     1      -2.280   1.792  -3.111  0.00  0.00    +0.000 A 
ATOM      7  S   UNL     1      -3.707   1.258  -3.876  0.00  0.00    +0.000 S 
ATOM      8  C   UNL     1      -2.871   0.025  -4.699  0.00  0.00    +0.000 A 
ATOM      9  N   UNL     1      -3.517  -0.800  -5.567  0.00  0.00    +0.000 NA
ATOM     10  C   UNL     1      -2.752  -1.656  -6.158  0.00  0.00    +0.000 A 
ATOM     11  N   UNL     1      -1.402  -1.773  -5.948  0.00  0.00    +0.000 N 
ATOM     12  C   UNL     1      -0.726  -1.020  -5.019  0.00  0.00    +0.000 A 
ATOM     13  O   UNL     1       0.449  -1.248  -4.749  0.00  0.00    +0.000 OA
ATOM     14  C   UNL     1      -1.527   0.000  -4.370  0.00  0.00    +0.000 A 
ATOM     15  H   UNL     1      -0.867  -2.489  -6.417  0.00  0.00    +0.000 HD
ENDBRANCH   2   5
BRANCH   3  16
ATOM     16  C   UNL     1       2.401   0.545  -2.301  0.00  0.00    +0.000 C 
BRANCH  16  17
ATOM     17  C   UNL     1       3.342   0.833  -3.433  0.00  0.00    +0.000 A 
ATOM     18  C   UNL     1       3.576   2.135  -3.878  0.00  0.00    +0.000 A 
ATOM     19  C   UNL     1       4.463   2.358  -4.931  0.00  0.00    +0.000 A 
ATOM     20  C   UNL     1       5.093   1.264  -5.528  0.00  0.00    +0.000 A 
ATOM     21  N   UNL     1       4.859  -0.005  -5.126  0.00  0.00    +0.000 NA
ATOM     22  C   UNL     1       3.992  -0.193  -4.105  0.00  0.00    +0.000 A 
BRANCH  20  23
ATOM     23  C   UNL     1       6.059   1.462  -6.619  0.00  0.00    +0.000 C 
ATOM     24  C   UNL     1       6.701   0.454  -7.237  0.00  0.00    +0.000 C 
BRANCH  24  25
ATOM     25  C   UNL     1       7.706   0.622  -8.339  0.00  0.00    +0.000 C 
BRANCH  25  26
ATOM     26  N   UNL     1       7.374  -0.201  -9.507  0.00  0.00    +0.000 NA
ATOM     27  C   UNL     1       6.194   0.282 -10.232  0.00  0.00    +0.000 C 
ATOM     28  C   UNL     1       6.721   1.283 -11.245  0.00  0.00    +0.000 C 
ATOM     29  O   UNL     1       8.125   1.036 -11.372  0.00  0.00    +0.000 OA
ATOM     30  C   UNL     1       8.416  -0.075 -10.526  0.00  0.00    +0.000 C 
ENDBRANCH  25  26
ENDBRANCH  24  25
ENDBRANCH  20  23
ENDBRANCH  16  17
ENDBRANCH   3  16
TORSDOF 6
