REMARK  Name = 
REMARK  9 active torsions:
REMARK  status: ('A' for Active; 'I' for Inactive)
REMARK    1  A    between atoms: C_1  and  O_2
REMARK    2  A    between atoms: O_2  and  C_3
REMARK    3  A    between atoms: C_10  and  C_11
REMARK    4  A    between atoms: N_13  and  C_14
REMARK    5  A    between atoms: C_14  and  C_15
REMARK    6  A    between atoms: C_18  and  C_19
REMARK    7  A    between atoms: C_19  and  N_20
REMARK    8  A    between atoms: N_20  and  C_21
REMARK    9  A    between atoms: C_21  and  C_22
REMARK                            x       y       z     vdW  Elec       q    Type
REMARK                         _______ _______ _______ _____ _____    ______ ____
ROOT
ATOM      1  C   UNL     1       1.799   1.825   2.868  0.00  0.00    +0.000 A 
ATOM      2  C   UNL     1       0.481   1.427   2.610  0.00  0.00    +0.000 A 
ATOM      3  C   UNL     1      -0.494   2.369   2.262  0.00  0.00    +0.000 A 
ATOM      4  C   UNL     1      -0.175   3.732   2.161  0.00  0.00    +0.000 A 
ATOM      5  C   UNL     1       1.146   4.126   2.416  0.00  0.00    +0.000 A 
ATOM      6  C   UNL     1       2.122   3.184   2.760  0.00  0.00    +0.000 A 
ENDROOT
BRANCH   1   7
ATOM      7  C   UNL     1       2.861   0.812   3.205  0.00  0.00    +0.000 C 
BRANCH   7  10
ATOM      8  C   UNL     1       4.497  -0.627   2.059  0.00  0.00    +0.000 C 
ATOM      9  O   UNL     1       4.864  -1.110   3.129  0.00  0.00    +0.000 OA
ATOM     10  N   UNL     1       3.520   0.329   2.016  0.00  0.00    +0.000 N 
ATOM     11  H   UNL     1       3.260   0.750   1.133  0.00  0.00    +0.000 HD
BRANCH   8  19
ATOM     12  C   UNL     1       3.876   0.154  -1.240  0.00  0.00    +0.000 A 
ATOM     13  N   UNL     1       3.858   0.283  -2.583  0.00  0.00    +0.000 NA
ATOM     14  C   UNL     1       4.730  -0.432  -3.296  0.00  0.00    +0.000 A 
ATOM     15  N   UNL     1       5.641  -1.279  -2.826  0.00  0.00    +0.000 NA
ATOM     16  C   UNL     1       5.634  -1.371  -1.485  0.00  0.00    +0.000 A 
ATOM     17  S   UNL     1       6.730  -2.410  -0.715  0.00  0.00    +0.000 S 
ATOM     18  C   UNL     1       6.128  -1.989   0.817  0.00  0.00    +0.000 A 
ATOM     19  C   UNL     1       5.097  -1.056   0.782  0.00  0.00    +0.000 A 
ATOM     20  C   UNL     1       4.800  -0.690  -0.601  0.00  0.00    +0.000 A 
BRANCH  12  22
ATOM     21  C   UNL     1       1.795   1.203  -1.241  0.00  0.00    +0.000 C 
ATOM     22  O   UNL     1       2.985   0.913  -0.510  0.00  0.00    +0.000 OA
ENDBRANCH  12  22
ENDBRANCH   8  19
ENDBRANCH   7  10
ENDBRANCH   1   7
BRANCH   4  23
ATOM     23  C   UNL     1      -1.221   4.751   1.758  0.00  0.00    +0.000 C 
BRANCH  23  24
ATOM     24  N   UNL     1      -2.331   4.785   2.709  0.00  0.00    +0.000 NA
ATOM     25  H   UNL     1      -1.966   5.004   3.635  0.00  0.00    +0.000 HD
BRANCH  24  26
ATOM     26  C   UNL     1      -3.329   5.789   2.343  0.00  0.00    +0.000 C 
BRANCH  26  27
ATOM     27  C   UNL     1      -4.481   5.789   3.325  0.00  0.00    +0.000 A 
ATOM     28  C   UNL     1      -4.818   6.943   4.052  0.00  0.00    +0.000 A 
ATOM     29  C   UNL     1      -5.899   6.937   4.940  0.00  0.00    +0.000 A 
ATOM     30  C   UNL     1      -6.654   5.779   5.112  0.00  0.00    +0.000 A 
ATOM     31  C   UNL     1      -6.320   4.635   4.398  0.00  0.00    +0.000 A 
ATOM     32  F   UNL     1      -7.044   3.520   4.565  0.00  0.00    +0.000 F 
ATOM     33  C   UNL     1      -5.249   4.630   3.512  0.00  0.00    +0.000 A 
ENDBRANCH  26  27
ENDBRANCH  24  26
ENDBRANCH  23  24
ENDBRANCH   4  23
TORSDOF 8
