REMARK  Name = 
REMARK  8 active torsions:
REMARK  status: ('A' for Active; 'I' for Inactive)
REMARK    1  A    between atoms: C_1  and  C_2
REMARK    2  A    between atoms: C_4  and  C_5
REMARK    3  A    between atoms: C_5  and  N_6
REMARK    4  A    between atoms: C_7  and  C_9
REMARK    5  A    between atoms: C_21  and  C_22
REMARK    6  A    between atoms: C_22  and  N_23
REMARK    7  A    between atoms: N_23  and  C_24
REMARK    8  A    between atoms: C_24  and  C_25
REMARK                            x       y       z     vdW  Elec       q    Type
REMARK                         _______ _______ _______ _____ _____    ______ ____
ROOT
ATOM      1  C   UNL     1       2.504   0.153  -0.050  0.00  0.00    +0.000 C 
ATOM      2  C   UNL     1       1.002   0.074  -0.004  0.00  0.00    +0.000 A 
ATOM      3  C   UNL     1       0.270   1.277   0.005  0.00  0.00    +0.000 A 
ATOM      4  C   UNL     1      -1.130   1.285   0.004  0.00  0.00    +0.000 A 
ATOM      5  C   UNL     1      -1.806   0.062   0.036  0.00  0.00    +0.000 A 
ATOM      6  C   UNL     1      -1.093  -1.142   0.052  0.00  0.00    +0.000 A 
ATOM      7  C   UNL     1       0.314  -1.159   0.036  0.00  0.00    +0.000 A 
ENDROOT
BRANCH   4   8
ATOM      8  C   UNL     1      -1.878   2.592   0.002  0.00  0.00    +0.000 C 
BRANCH   8   9
ATOM      9  N   UNL     1      -2.121   3.060   1.343  0.00  0.00    +0.000 N 
ATOM     10  C   UNL     1      -2.874   4.183   1.575  0.00  0.00    +0.000 C 
ATOM     11  O   UNL     1      -3.410   4.806   0.662  0.00  0.00    +0.000 OA
ATOM     12  H   UNL     1      -1.508   2.708   2.072  0.00  0.00    +0.000 HD
BRANCH  10  13
ATOM     13  C   UNL     1      -3.065   4.572   2.979  0.00  0.00    +0.000 A 
ATOM     14  C   UNL     1      -4.151   5.364   3.328  0.00  0.00    +0.000 A 
ATOM     15  S   UNL     1      -4.260   5.680   5.000  0.00  0.00    +0.000 S 
ATOM     16  C   UNL     1      -2.828   4.817   5.312  0.00  0.00    +0.000 A 
ATOM     17  N   UNL     1      -2.333   4.717   6.575  0.00  0.00    +0.000 NA
ATOM     18  C   UNL     1      -1.228   4.055   6.665  0.00  0.00    +0.000 A 
ATOM     19  N   UNL     1      -0.572   3.483   5.605  0.00  0.00    +0.000 N 
ATOM     20  C   UNL     1      -1.047   3.540   4.315  0.00  0.00    +0.000 A 
ATOM     21  O   UNL     1      -0.451   2.992   3.393  0.00  0.00    +0.000 OA
ATOM     22  C   UNL     1      -2.285   4.277   4.158  0.00  0.00    +0.000 A 
ATOM     23  H   UNL     1       0.287   2.975   5.740  0.00  0.00    +0.000 HD
ENDBRANCH  10  13
ENDBRANCH   8   9
ENDBRANCH   4   8
BRANCH   7  24
ATOM     24  C   UNL     1       1.033  -2.499   0.051  0.00  0.00    +0.000 C 
BRANCH  24  25
ATOM     25  N   UNL     1       1.843  -2.654   1.258  0.00  0.00    +0.000 NA
ATOM     26  H   UNL     1       1.236  -2.576   2.073  0.00  0.00    +0.000 HD
BRANCH  25  27
ATOM     27  C   UNL     1       2.515  -3.959   1.307  0.00  0.00    +0.000 C 
BRANCH  27  28
ATOM     28  C   UNL     1       3.377  -4.096   2.552  0.00  0.00    +0.000 A 
ATOM     29  C   UNL     1       4.421  -3.200   2.780  0.00  0.00    +0.000 A 
ATOM     30  C   UNL     1       5.178  -3.322   3.942  0.00  0.00    +0.000 A 
ATOM     31  C   UNL     1       4.882  -4.339   4.841  0.00  0.00    +0.000 A 
ATOM     32  C   UNL     1       3.836  -5.194   4.537  0.00  0.00    +0.000 A 
ATOM     33  N   UNL     1       3.077  -5.096   3.421  0.00  0.00    +0.000 NA
ENDBRANCH  27  28
ENDBRANCH  25  27
ENDBRANCH  24  25
ENDBRANCH   7  24
TORSDOF 7
