REMARK  Name = 
REMARK  8 active torsions:
REMARK  status: ('A' for Active; 'I' for Inactive)
REMARK    1  A    between atoms: C_1  and  N_2
REMARK    2  A    between atoms: N_2  and  C_3
REMARK    3  A    between atoms: N_2  and  C_24
REMARK    4  A    between atoms: C_3  and  C_4
REMARK    5  A    between atoms: C_7  and  C_8
REMARK    6  A    between atoms: C_8  and  N_9
REMARK    7  A    between atoms: C_10  and  C_12
REMARK    8  A    between atoms: C_24  and  C_25
REMARK                            x       y       z     vdW  Elec       q    Type
REMARK                         _______ _______ _______ _____ _____    ______ ____
ROOT
ATOM      1  C   UNL     1       2.411  -0.823   2.267  0.00  0.00    +0.000 A 
ATOM      2  C   UNL     1       2.028  -1.939   3.020  0.00  0.00    +0.000 A 
ATOM      3  C   UNL     1       1.577  -1.779   4.324  0.00  0.00    +0.000 A 
ATOM      4  C   UNL     1       1.568  -0.502   4.874  0.00  0.00    +0.000 A 
ATOM      5  N   UNL     1       1.945   0.598   4.171  0.00  0.00    +0.000 NA
ATOM      6  C   UNL     1       2.341   0.415   2.890  0.00  0.00    +0.000 A 
ENDROOT
BRANCH   1   7
ATOM      7  C   UNL     1       2.850  -0.973   0.828  0.00  0.00    +0.000 C 
BRANCH   7   9
ATOM      8  C   UNL     1       0.747  -1.933   0.041  0.00  0.00    +0.000 C 
ATOM      9  N   UNL     1       1.756  -0.876  -0.158  0.00  0.00    +0.000 NA
BRANCH   9  10
ATOM     10  C   UNL     1       2.318  -0.994  -1.531  0.00  0.00    +0.000 C 
BRANCH  10  11
ATOM     11  C   UNL     1       1.287  -0.811  -2.637  0.00  0.00    +0.000 A 
ATOM     12  C   UNL     1       0.560   0.375  -2.731  0.00  0.00    +0.000 A 
ATOM     13  C   UNL     1      -0.459   0.466  -3.675  0.00  0.00    +0.000 A 
ATOM     14  C   UNL     1      -0.719  -0.618  -4.504  0.00  0.00    +0.000 A 
ATOM     15  C   UNL     1       0.062  -1.752  -4.361  0.00  0.00    +0.000 A 
ATOM     16  N   UNL     1       1.054  -1.873  -3.451  0.00  0.00    +0.000 NA
ENDBRANCH  10  11
ENDBRANCH   9  10
ENDBRANCH   7   9
ENDBRANCH   1   7
BRANCH   4  17
ATOM     17  C   UNL     1       1.111  -0.294   6.297  0.00  0.00    +0.000 C 
BRANCH  17  18
ATOM     18  N   UNL     1      -0.302  -0.013   6.382  0.00  0.00    +0.000 N 
ATOM     19  C   UNL     1      -1.234  -0.983   6.634  0.00  0.00    +0.000 C 
ATOM     20  O   UNL     1      -0.927  -2.161   6.803  0.00  0.00    +0.000 OA
ATOM     21  H   UNL     1      -0.596   0.864   5.963  0.00  0.00    +0.000 HD
BRANCH  19  22
ATOM     22  C   UNL     1      -2.621  -0.524   6.767  0.00  0.00    +0.000 A 
ATOM     23  C   UNL     1      -3.516  -1.246   7.545  0.00  0.00    +0.000 A 
ATOM     24  S   UNL     1      -5.078  -0.563   7.598  0.00  0.00    +0.000 S 
ATOM     25  C   UNL     1      -4.620   0.703   6.555  0.00  0.00    +0.000 A 
ATOM     26  N   UNL     1      -5.519   1.642   6.155  0.00  0.00    +0.000 NA
ATOM     27  C   UNL     1      -5.039   2.530   5.351  0.00  0.00    +0.000 A 
ATOM     28  N   UNL     1      -3.738   2.574   4.921  0.00  0.00    +0.000 N 
ATOM     29  C   UNL     1      -2.788   1.674   5.333  0.00  0.00    +0.000 A 
ATOM     30  O   UNL     1      -1.614   1.790   4.995  0.00  0.00    +0.000 OA
ATOM     31  C   UNL     1      -3.286   0.626   6.204  0.00  0.00    +0.000 A 
ATOM     32  H   UNL     1      -3.416   3.310   4.309  0.00  0.00    +0.000 HD
ENDBRANCH  19  22
ENDBRANCH  17  18
ENDBRANCH   4  17
TORSDOF 7
