REMARK  Name = 
REMARK  7 active torsions:
REMARK  status: ('A' for Active; 'I' for Inactive)
REMARK    1  A    between atoms: C_1  and  O_2
REMARK    2  A    between atoms: O_2  and  C_3
REMARK    3  A    between atoms: C_5  and  C_6
REMARK    4  A    between atoms: C_11  and  O_12
REMARK    5  A    between atoms: O_12  and  C_13
REMARK    6  A    between atoms: C_13  and  C_14
REMARK    7  A    between atoms: C_18  and  C_19
REMARK                            x       y       z     vdW  Elec       q    Type
REMARK                         _______ _______ _______ _____ _____    ______ ____
ROOT
ATOM      1  O   UNL     1       4.751   1.153   1.141  0.00  0.00    +0.000 OA
ENDROOT
BRANCH   1   7
ATOM      2  C   UNL     1       3.186  -0.759   0.749  0.00  0.00    +0.000 A 
ATOM      3  C   UNL     1       3.001  -2.138   0.925  0.00  0.00    +0.000 A 
ATOM      4  C   UNL     1       3.980  -2.939   1.537  0.00  0.00    +0.000 A 
ATOM      5  C   UNL     1       5.162  -2.344   1.978  0.00  0.00    +0.000 A 
ATOM      6  C   UNL     1       5.351  -0.969   1.814  0.00  0.00    +0.000 A 
ATOM      7  C   UNL     1       4.376  -0.165   1.204  0.00  0.00    +0.000 A 
BRANCH   4   8
ATOM      8  C   UNL     1       3.691  -4.397   1.667  0.00  0.00    +0.000 C 
ATOM      9  N   UNL     1       4.640  -5.211   2.216  0.00  0.00    +0.000 N 
ATOM     10  O   UNL     1       2.626  -4.872   1.290  0.00  0.00    +0.000 OA
ATOM     11  H   UNL     1       5.552  -4.921   2.530  0.00  0.00    +0.000 HD
ATOM     12  H   UNL     1       4.412  -6.196   2.272  0.00  0.00    +0.000 HD
ENDBRANCH   4   8
BRANCH   2  14
ATOM     13  C   UNL     1       0.931  -0.429   0.012  0.00  0.00    +0.000 C 
ATOM     14  O   UNL     1       2.277   0.023   0.089  0.00  0.00    +0.000 OA
ENDBRANCH   2  14
ENDBRANCH   1   7
BRANCH   1  15
ATOM     15  C   UNL     1       3.812   2.097   0.621  0.00  0.00    +0.000 C 
BRANCH  15  16
ATOM     16  C   UNL     1       4.386   3.496   0.677  0.00  0.00    +0.000 A 
ATOM     17  N   UNL     1       5.082   3.927  -0.394  0.00  0.00    +0.000 NA
ATOM     18  C   UNL     1       5.546   5.183  -0.338  0.00  0.00    +0.000 A 
ATOM     19  C   UNL     1       5.339   6.021   0.731  0.00  0.00    +0.000 A 
ATOM     20  C   UNL     1       4.608   5.512   1.789  0.00  0.00    +0.000 A 
ATOM     21  N   UNL     1       4.134   4.246   1.773  0.00  0.00    +0.000 NA
BRANCH  20  22
ATOM     22  C   UNL     1       4.298   6.301   3.001  0.00  0.00    +0.000 A 
ATOM     23  C   UNL     1       4.129   5.671   4.252  0.00  0.00    +0.000 A 
ATOM     24  C   UNL     1       3.852   6.403   5.413  0.00  0.00    +0.000 A 
ATOM     25  C   UNL     1       3.731   7.787   5.348  0.00  0.00    +0.000 A 
ATOM     26  C   UNL     1       3.879   8.421   4.123  0.00  0.00    +0.000 A 
ATOM     27  F   UNL     1       3.756   9.753   4.051  0.00  0.00    +0.000 F 
ATOM     28  C   UNL     1       4.154   7.699   2.964  0.00  0.00    +0.000 A 
ENDBRANCH  20  22
ENDBRANCH  15  16
ENDBRANCH   1  15
TORSDOF 6
