REMARK  Name = 
REMARK  7 active torsions:
REMARK  status: ('A' for Active; 'I' for Inactive)
REMARK    1  A    between atoms: N_1  and  C_2
REMARK    2  A    between atoms: C_2  and  C_3
REMARK    3  A    between atoms: C_7  and  O_8
REMARK    4  A    between atoms: O_8  and  C_9
REMARK    5  A    between atoms: C_9  and  C_10
REMARK    6  A    between atoms: C_10  and  C_11
REMARK    7  A    between atoms: C_13  and  C_14
REMARK                            x       y       z     vdW  Elec       q    Type
REMARK                         _______ _______ _______ _____ _____    ______ ____
ROOT
ATOM      1  C   UNL     1       4.958   4.386   3.405  0.00  0.00    +0.000 C 
ENDROOT
BRANCH   1   2
ATOM      2  O   UNL     1       4.980   3.078   2.817  0.00  0.00    +0.000 OA
BRANCH   2   7
ATOM      3  C   UNL     1       3.448   1.380  -0.036  0.00  0.00    +0.000 A 
ATOM      4  C   UNL     1       2.934   2.460  -0.767  0.00  0.00    +0.000 A 
ATOM      5  C   UNL     1       3.104   3.766  -0.313  0.00  0.00    +0.000 A 
ATOM      6  C   UNL     1       3.782   4.009   0.881  0.00  0.00    +0.000 A 
ATOM      7  C   UNL     1       4.300   2.950   1.630  0.00  0.00    +0.000 A 
ATOM      8  C   UNL     1       4.136   1.639   1.162  0.00  0.00    +0.000 A 
BRANCH   3   9
ATOM      9  C   UNL     1       3.218  -0.031  -0.516  0.00  0.00    +0.000 C 
BRANCH   9  10
ATOM     10  N   UNL     1       3.745  -0.241  -1.861  0.00  0.00    +0.000 NA
ATOM     11  H   UNL     1       3.621  -1.217  -2.119  0.00  0.00    +0.000 HD
ATOM     12  H   UNL     1       4.750  -0.070  -1.847  0.00  0.00    +0.000 HD
ENDBRANCH   9  10
ENDBRANCH   3   9
ENDBRANCH   2   7
ENDBRANCH   1   2
BRANCH   1  13
ATOM     13  C   UNL     1       5.677   4.390   4.750  0.00  0.00    +0.000 C 
BRANCH  13  14
ATOM     14  C   UNL     1       4.932   3.612   5.803  0.00  0.00    +0.000 A 
ATOM     15  C   UNL     1       5.267   2.287   6.063  0.00  0.00    +0.000 A 
ATOM     16  C   UNL     1       4.579   1.590   7.061  0.00  0.00    +0.000 A 
ATOM     17  C   UNL     1       3.563   2.252   7.757  0.00  0.00    +0.000 A 
ATOM     18  C   UNL     1       3.288   3.567   7.428  0.00  0.00    +0.000 A 
ATOM     19  N   UNL     1       3.949   4.258   6.473  0.00  0.00    +0.000 NA
BRANCH  16  20
ATOM     20  C   UNL     1       4.923   0.164   7.390  0.00  0.00    +0.000 C 
ATOM     21  F   UNL     1       5.944  -0.337   6.640  0.00  0.00    +0.000 F 
ATOM     22  F   UNL     1       5.305   0.009   8.688  0.00  0.00    +0.000 F 
ATOM     23  F   UNL     1       3.873  -0.682   7.205  0.00  0.00    +0.000 F 
ENDBRANCH  16  20
ENDBRANCH  13  14
ENDBRANCH   1  13
TORSDOF 7
