REMARK  Name = 
REMARK  9 active torsions:
REMARK  status: ('A' for Active; 'I' for Inactive)
REMARK    1  A    between atoms: C_1  and  C_2
REMARK    2  A    between atoms: C_2  and  C_3
REMARK    3  A    between atoms: C_2  and  C_14
REMARK    4  A    between atoms: C_3  and  N_4
REMARK    5  A    between atoms: N_4  and  C_5
REMARK    6  A    between atoms: C_8  and  C_9
REMARK    7  A    between atoms: C_19  and  N_20
REMARK    8  A    between atoms: N_20  and  C_21
REMARK    9  A    between atoms: C_21  and  C_22
REMARK                            x       y       z     vdW  Elec       q    Type
REMARK                         _______ _______ _______ _____ _____    ______ ____
ROOT
ATOM      1  C   UNL     1       3.082   1.671   0.188  0.00  0.00    +0.000 C 
ATOM      2  C   UNL     1       2.565   0.234   0.025  0.00  0.00    +0.000 C 
ENDROOT
BRANCH   2   3
ATOM      3  C   UNL     1       3.045  -0.722   1.116  0.00  0.00    +0.000 A 
ATOM      4  C   UNL     1       3.223  -0.326   2.447  0.00  0.00    +0.000 A 
ATOM      5  C   UNL     1       3.615  -1.258   3.404  0.00  0.00    +0.000 A 
ATOM      6  F   UNL     1       3.776  -0.865   4.674  0.00  0.00    +0.000 F 
ATOM      7  C   UNL     1       3.836  -2.591   3.071  0.00  0.00    +0.000 A 
ATOM      8  C   UNL     1       3.648  -3.028   1.757  0.00  0.00    +0.000 A 
ATOM      9  C   UNL     1       3.260  -2.080   0.794  0.00  0.00    +0.000 A 
BRANCH   8  10
ATOM     10  N   UNL     1       3.922  -4.374   1.432  0.00  0.00    +0.000 N 
ATOM     11  H   UNL     1       4.075  -4.967   2.244  0.00  0.00    +0.000 HD
BRANCH  10  12
ATOM     12  C   UNL     1       3.247  -5.062   0.331  0.00  0.00    +0.000 C 
ATOM     13  C   UNL     1       3.985  -5.098  -0.981  0.00  0.00    +0.000 C 
ATOM     14  C   UNL     1       1.751  -5.309   0.369  0.00  0.00    +0.000 C 
ATOM     15  N   UNL     1       2.690  -6.334   0.793  0.00  0.00    +0.000 NA
ATOM     16  H   UNL     1       2.780  -7.054   0.073  0.00  0.00    +0.000 HD
ENDBRANCH  10  12
ENDBRANCH   8  10
ENDBRANCH   2   3
BRANCH   2  17
ATOM     17  C   UNL     1       1.021   0.189  -0.036  0.00  0.00    +0.000 C 
BRANCH  17  18
ATOM     18  N   UNL     1       0.482   0.996  -1.140  0.00  0.00    +0.000 N 
ATOM     19  H   UNL     1       0.963   0.831  -2.023  0.00  0.00    +0.000 HD
BRANCH  18  20
ATOM     20  C   UNL     1      -0.911   1.042  -1.298  0.00  0.00    +0.000 A 
ATOM     21  C   UNL     1      -1.810   0.883  -0.241  0.00  0.00    +0.000 A 
ATOM     22  C   UNL     1      -3.184   1.008  -0.443  0.00  0.00    +0.000 A 
ATOM     23  C   UNL     1      -3.636   1.326  -1.713  0.00  0.00    +0.000 A 
ATOM     24  N   UNL     1      -2.812   1.540  -2.773  0.00  0.00    +0.000 NA
ATOM     25  C   UNL     1      -1.483   1.412  -2.524  0.00  0.00    +0.000 A 
BRANCH  23  26
ATOM     26  C   UNL     1      -5.111   1.459  -1.952  0.00  0.00    +0.000 C 
ATOM     27  N   UNL     1      -5.479   1.775  -3.229  0.00  0.00    +0.000 N 
ATOM     28  O   UNL     1      -5.943   1.293  -1.063  0.00  0.00    +0.000 OA
ATOM     29  H   UNL     1      -4.765   1.921  -3.934  0.00  0.00    +0.000 HD
ATOM     30  H   UNL     1      -6.456   1.896  -3.446  0.00  0.00    +0.000 HD
ENDBRANCH  23  26
ENDBRANCH  18  20
ENDBRANCH  17  18
ENDBRANCH   2  17
TORSDOF 7
