REMARK  Name = 
REMARK  2 active torsions:
REMARK  status: ('A' for Active; 'I' for Inactive)
REMARK    1  A    between atoms: C_7  and  C_8
REMARK    2  A    between atoms: C_8  and  N_9
REMARK                            x       y       z     vdW  Elec       q    Type
REMARK                         _______ _______ _______ _____ _____    ______ ____
ROOT
ATOM      1  N   UNL     1       1.020   0.194   0.001  0.00  0.00    +0.000 NA
ATOM      2  C   UNL     1       2.295   0.156   0.142  0.00  0.00    +0.000 C 
ATOM      3  N   UNL     1       2.887  -0.512   1.157  0.00  0.00    +0.000 N 
ATOM      4  N   UNL     1       3.188   0.822  -0.645  0.00  0.00    +0.000 N 
ATOM      5  C   UNL     1       4.294   0.089  -1.270  0.00  0.00    +0.000 C 
ATOM      6  C   UNL     1       5.501   1.020  -1.327  0.00  0.00    +0.000 C 
ATOM      7  C   UNL     1       5.202   2.294  -2.139  0.00  0.00    +0.000 C 
ATOM      8  C   UNL     1       3.914   2.952  -1.591  0.00  0.00    +0.000 C 
ATOM      9  C   UNL     1       2.742   1.971  -1.436  0.00  0.00    +0.000 C 
ATOM     10  H   UNL     1       0.590  -0.407   0.709  0.00  0.00    +0.000 HD
ATOM     11  H   UNL     1       2.285  -0.701   1.947  0.00  0.00    +0.000 HD
ATOM     12  H   UNL     1       3.739  -0.046   1.455  0.00  0.00    +0.000 HD
ENDROOT
BRANCH   7  13
ATOM     13  C   UNL     1       5.081   2.052  -3.656  0.00  0.00    +0.000 C 
BRANCH  13  14
ATOM     14  N   UNL     1       6.254   1.453  -4.282  0.00  0.00    +0.000 N 
ATOM     15  C   UNL     1       6.407   0.101  -4.470  0.00  0.00    +0.000 A 
ATOM     16  C   UNL     1       7.538  -0.103  -5.223  0.00  0.00    +0.000 A 
ATOM     17  C   UNL     1       8.082   1.170  -5.536  0.00  0.00    +0.000 A 
ATOM     18  C   UNL     1       9.179   1.586  -6.316  0.00  0.00    +0.000 A 
ATOM     19  C   UNL     1       9.451   2.951  -6.449  0.00  0.00    +0.000 A 
ATOM     20  C   UNL     1       8.663   3.888  -5.790  0.00  0.00    +0.000 A 
ATOM     21 CL   UNL     1       9.022   5.565  -5.969  0.00  0.00    +0.000 Cl
ATOM     22  C   UNL     1       7.574   3.505  -4.999  0.00  0.00    +0.000 A 
ATOM     23  C   UNL     1       7.284   2.133  -4.905  0.00  0.00    +0.000 A 
ENDBRANCH  13  14
ENDBRANCH   7  13
TORSDOF 2
