REMARK  Name = 
REMARK  4 active torsions:
REMARK  status: ('A' for Active; 'I' for Inactive)
REMARK    1  A    between atoms: C_2  and  C_4
REMARK    2  A    between atoms: C_7  and  N_8
REMARK    3  A    between atoms: N_8  and  C_9
REMARK    4  A    between atoms: C_9  and  C_10
REMARK                            x       y       z     vdW  Elec       q    Type
REMARK                         _______ _______ _______ _____ _____    ______ ____
ROOT
ATOM      1  C   UNL     1       3.290   0.247   1.180  0.00  0.00    +0.000 A 
ATOM      2  C   UNL     1       2.873  -0.364   2.368  0.00  0.00    +0.000 A 
ATOM      3  C   UNL     1       3.647  -0.242   3.528  0.00  0.00    +0.000 A 
ATOM      4  C   UNL     1       4.857   0.462   3.519  0.00  0.00    +0.000 A 
ATOM      5  C   UNL     1       5.226   1.125   2.343  0.00  0.00    +0.000 A 
ATOM      6  C   UNL     1       4.469   0.998   1.174  0.00  0.00    +0.000 A 
ENDROOT
BRANCH   1   8
ATOM      7  N   UNL     1       1.195  -0.143   0.000  0.00  0.00    +0.000 N 
ATOM      8  C   UNL     1       2.539   0.088  -0.091  0.00  0.00    +0.000 C 
ATOM      9  O   UNL     1       3.089   0.181  -1.180  0.00  0.00    +0.000 OA
ATOM     10  H   UNL     1       0.685  -0.153  -0.875  0.00  0.00    +0.000 HD
ATOM     11  H   UNL     1       0.673   0.029   0.846  0.00  0.00    +0.000 HD
ENDBRANCH   1   8
BRANCH   4  12
ATOM     12  N   UNL     1       5.677   0.618   4.642  0.00  0.00    +0.000 N 
ATOM     13  H   UNL     1       5.470   1.486   5.136  0.00  0.00    +0.000 HD
BRANCH  12  14
ATOM     14  C   UNL     1       5.736  -0.503   5.596  0.00  0.00    +0.000 C 
BRANCH  14  15
ATOM     15  C   UNL     1       6.700  -0.228   6.739  0.00  0.00    +0.000 A 
ATOM     16  N   UNL     1       6.419   0.812   7.558  0.00  0.00    +0.000 NA
ATOM     17  C   UNL     1       7.260   1.002   8.592  0.00  0.00    +0.000 A 
ATOM     18  C   UNL     1       8.354   0.208   8.839  0.00  0.00    +0.000 A 
ATOM     19  C   UNL     1       8.553  -0.823   7.953  0.00  0.00    +0.000 A 
ATOM     20  N   UNL     1       7.745  -1.068   6.906  0.00  0.00    +0.000 NA
ENDBRANCH  14  15
ENDBRANCH  12  14
ENDBRANCH   4  12
TORSDOF 4
