REMARK  Name = 
REMARK  5 active torsions:
REMARK  status: ('A' for Active; 'I' for Inactive)
REMARK    1  A    between atoms: C_2  and  C_4
REMARK    2  A    between atoms: C_7  and  N_8
REMARK    3  A    between atoms: N_8  and  C_9
REMARK    4  A    between atoms: C_9  and  C_10
REMARK    5  A    between atoms: C_14  and  C_15
REMARK                            x       y       z     vdW  Elec       q    Type
REMARK                         _______ _______ _______ _____ _____    ______ ____
ROOT
ATOM      1  C   UNL     1       4.748  -2.722  -5.314  0.00  0.00    +0.000 C 
ENDROOT
BRANCH   1   2
ATOM      2  C   UNL     1       5.712  -3.482  -6.196  0.00  0.00    +0.000 A 
ATOM      3  C   UNL     1       6.707  -2.815  -6.916  0.00  0.00    +0.000 A 
ATOM      4  C   UNL     1       7.619  -3.540  -7.679  0.00  0.00    +0.000 A 
ATOM      5  C   UNL     1       7.558  -4.937  -7.709  0.00  0.00    +0.000 A 
ATOM      6  C   UNL     1       6.600  -5.646  -6.963  0.00  0.00    +0.000 A 
ATOM      7  C   UNL     1       5.671  -4.888  -6.227  0.00  0.00    +0.000 A 
BRANCH   6   8
ATOM      8  C   UNL     1       6.616  -7.126  -6.874  0.00  0.00    +0.000 A 
ATOM      9  C   UNL     1       7.831  -7.836  -6.865  0.00  0.00    +0.000 A 
ATOM     10  C   UNL     1       7.857  -9.218  -6.678  0.00  0.00    +0.000 A 
ATOM     11  F   UNL     1       9.036  -9.852  -6.656  0.00  0.00    +0.000 F 
ATOM     12  C   UNL     1       6.690  -9.938  -6.493  0.00  0.00    +0.000 A 
ATOM     13  C   UNL     1       5.485  -9.258  -6.519  0.00  0.00    +0.000 A 
ATOM     14  F   UNL     1       4.344  -9.934  -6.332  0.00  0.00    +0.000 F 
ATOM     15  C   UNL     1       5.436  -7.876  -6.717  0.00  0.00    +0.000 A 
ENDBRANCH   6   8
ENDBRANCH   1   2
BRANCH   1  16
ATOM     16  N   UNL     1       5.258  -2.765  -3.948  0.00  0.00    +0.000 N 
ATOM     17  H   UNL     1       6.222  -2.447  -3.901  0.00  0.00    +0.000 HD
BRANCH  16  21
ATOM     18  C   UNL     1       2.997  -0.936  -1.050  0.00  0.00    +0.000 A 
ATOM     19  C   UNL     1       2.576  -0.950  -2.370  0.00  0.00    +0.000 A 
ATOM     20  N   UNL     1       3.302  -1.531  -3.363  0.00  0.00    +0.000 NA
ATOM     21  C   UNL     1       4.472  -2.101  -3.002  0.00  0.00    +0.000 A 
ATOM     22  C   UNL     1       4.874  -2.083  -1.658  0.00  0.00    +0.000 A 
ATOM     23  N   UNL     1       4.169  -1.501  -0.652  0.00  0.00    +0.000 NA
BRANCH  18  25
ATOM     24  N   UNL     1       2.659  -0.300   1.259  0.00  0.00    +0.000 N 
ATOM     25  C   UNL     1       2.152  -0.289  -0.012  0.00  0.00    +0.000 C 
ATOM     26  O   UNL     1       1.072   0.225  -0.274  0.00  0.00    +0.000 OA
ATOM     27  H   UNL     1       2.126   0.114   2.011  0.00  0.00    +0.000 HD
ATOM     28  H   UNL     1       3.552  -0.740   1.447  0.00  0.00    +0.000 HD
ENDBRANCH  18  25
ENDBRANCH  16  21
ENDBRANCH   1  16
TORSDOF 5
