REMARK  Name = 
REMARK  6 active torsions:
REMARK  status: ('A' for Active; 'I' for Inactive)
REMARK    1  A    between atoms: C_2  and  C_3
REMARK    2  A    between atoms: C_6  and  N_7
REMARK    3  A    between atoms: N_7  and  C_8
REMARK    4  A    between atoms: C_8  and  C_9
REMARK    5  A    between atoms: C_13  and  C_14
REMARK    6  A    between atoms: C_18  and  C_19
REMARK                            x       y       z     vdW  Elec       q    Type
REMARK                         _______ _______ _______ _____ _____    ______ ____
ROOT
ATOM      1  C   UNL     1       9.686   0.085  -0.545  0.00  0.00    +0.000 A 
ATOM      2  C   UNL     1       9.695   1.112  -1.502  0.00  0.00    +0.000 A 
ATOM      3  C   UNL     1      10.420   2.279  -1.293  0.00  0.00    +0.000 A 
ATOM      4  C   UNL     1      11.207   2.409  -0.150  0.00  0.00    +0.000 A 
ATOM      5  C   UNL     1      11.320   1.361   0.781  0.00  0.00    +0.000 A 
ATOM      6  C   UNL     1      10.540   0.214   0.561  0.00  0.00    +0.000 A 
ENDROOT
BRANCH   5   7
ATOM      7  C   UNL     1      12.214   1.450   1.950  0.00  0.00    +0.000 A 
ATOM      8  C   UNL     1      12.873   0.327   2.463  0.00  0.00    +0.000 A 
ATOM      9  N   UNL     1      13.731   0.338   3.509  0.00  0.00    +0.000 NA
ATOM     10  C   UNL     1      13.972   1.542   4.077  0.00  0.00    +0.000 A 
ATOM     11  C   UNL     1      13.378   2.727   3.664  0.00  0.00    +0.000 A 
ATOM     12  C   UNL     1      12.475   2.667   2.598  0.00  0.00    +0.000 A 
BRANCH  11  13
ATOM     13  C   UNL     1      13.750   3.981   4.358  0.00  0.00    +0.000 C 
ATOM     14  N   UNL     1      13.166   5.149   3.963  0.00  0.00    +0.000 N 
ATOM     15  O   UNL     1      14.577   3.982   5.262  0.00  0.00    +0.000 OA
ATOM     16  H   UNL     1      12.462   5.248   3.250  0.00  0.00    +0.000 HD
ATOM     17  H   UNL     1      13.451   5.987   4.458  0.00  0.00    +0.000 HD
ENDBRANCH  11  13
ENDBRANCH   5   7
BRANCH   1  18
ATOM     18  C   UNL     1       8.675  -1.046  -0.626  0.00  0.00    +0.000 C 
ATOM     19  C   UNL     1       7.823  -1.368   0.586  0.00  0.00    +0.000 C 
ATOM     20  C   UNL     1       7.229  -0.557  -0.516  0.00  0.00    +0.000 C 
BRANCH  18  21
ATOM     21  N   UNL     1       8.925  -2.032  -1.667  0.00  0.00    +0.000 N 
ATOM     22  H   UNL     1       8.790  -1.769  -2.638  0.00  0.00    +0.000 HD
BRANCH  21  26
ATOM     23  C   UNL     1      11.230  -5.419  -1.785  0.00  0.00    +0.000 A 
ATOM     24  C   UNL     1      10.680  -4.838  -2.909  0.00  0.00    +0.000 A 
ATOM     25  N   UNL     1       9.942  -3.702  -2.854  0.00  0.00    +0.000 NA
ATOM     26  C   UNL     1       9.742  -3.150  -1.636  0.00  0.00    +0.000 A 
ATOM     27  C   UNL     1      10.292  -3.751  -0.506  0.00  0.00    +0.000 A 
ATOM     28  N   UNL     1      11.050  -4.890  -0.548  0.00  0.00    +0.000 NA
BRANCH  23  30
ATOM     29  N   UNL     1      12.626  -7.586  -2.074  0.00  0.00    +0.000 NA
ATOM     30  C   UNL     1      12.008  -6.621  -1.904  0.00  0.00    +0.000 C 
ENDBRANCH  23  30
ENDBRANCH  21  26
ENDBRANCH  18  21
ENDBRANCH   1  18
TORSDOF 6
