REMARK  Name = 
REMARK  3 active torsions:
REMARK  status: ('A' for Active; 'I' for Inactive)
REMARK    1  A    between atoms: C_2  and  C_4
REMARK    2  A    between atoms: N_8  and  C_9
REMARK    3  A    between atoms: C_9  and  C_10
REMARK                            x       y       z     vdW  Elec       q    Type
REMARK                         _______ _______ _______ _____ _____    ______ ____
ROOT
ATOM      1  C   UNL     1       3.525   3.665   0.598  0.00  0.00    +0.000 A 
ATOM      2  C   UNL     1       2.758   3.559   1.755  0.00  0.00    +0.000 A 
ATOM      3  C   UNL     1       3.335   3.028   2.913  0.00  0.00    +0.000 A 
ATOM      4  C   UNL     1       4.658   2.601   2.887  0.00  0.00    +0.000 A 
ATOM      5  N   UNL     1       5.277   1.956   3.961  0.00  0.00    +0.000 N 
ATOM      6  N   UNL     1       5.410   2.699   1.772  0.00  0.00    +0.000 NA
ATOM      7  C   UNL     1       4.836   3.224   0.657  0.00  0.00    +0.000 A 
ATOM      8  H   UNL     1       6.243   1.819   3.669  0.00  0.00    +0.000 HD
ENDROOT
BRANCH   1  10
ATOM      9  N   UNL     1       1.912   5.007  -0.636  0.00  0.00    +0.000 N 
ATOM     10  C   UNL     1       2.997   4.175  -0.685  0.00  0.00    +0.000 C 
ATOM     11  O   UNL     1       3.523   3.888  -1.754  0.00  0.00    +0.000 OA
ATOM     12  H   UNL     1       1.620   5.416  -1.513  0.00  0.00    +0.000 HD
ATOM     13  H   UNL     1       1.609   5.461   0.215  0.00  0.00    +0.000 HD
ENDBRANCH   1  10
BRANCH   5  14
ATOM     14  C   UNL     1       5.075   2.307   5.378  0.00  0.00    +0.000 C 
ATOM     15  C   UNL     1       4.971   1.108   6.319  0.00  0.00    +0.000 C 
ATOM     16  C   UNL     1       3.792   2.000   6.123  0.00  0.00    +0.000 C 
BRANCH  14  17
ATOM     17  C   UNL     1       5.912   3.495   5.835  0.00  0.00    +0.000 A 
ATOM     18  C   UNL     1       7.214   3.349   6.340  0.00  0.00    +0.000 A 
ATOM     19  C   UNL     1       7.968   4.461   6.707  0.00  0.00    +0.000 A 
ATOM     20  C   UNL     1       7.401   5.714   6.560  0.00  0.00    +0.000 A 
ATOM     21  N   UNL     1       6.154   5.917   6.092  0.00  0.00    +0.000 NA
ATOM     22  C   UNL     1       5.451   4.810   5.742  0.00  0.00    +0.000 A 
ENDBRANCH  14  17
ENDBRANCH   5  14
TORSDOF 3
