REMARK  Name = 
REMARK  7 active torsions:
REMARK  status: ('A' for Active; 'I' for Inactive)
REMARK    1  A    between atoms: C_2  and  C_19
REMARK    2  A    between atoms: N_3  and  C_4
REMARK    3  A    between atoms: C_4  and  C_5
REMARK    4  A    between atoms: C_8  and  C_9
REMARK    5  A    between atoms: C_9  and  C_10
REMARK    6  A    between atoms: C_10  and  O_11
REMARK    7  A    between atoms: C_10  and  C_12
REMARK                            x       y       z     vdW  Elec       q    Type
REMARK                         _______ _______ _______ _____ _____    ______ ____
ROOT
ATOM      1  C   UNL     1       2.277  -2.124   1.275  0.00  0.00    +0.000 C 
ENDROOT
BRANCH   1   2
ATOM      2  C   UNL     1       3.199  -3.127   1.903  0.00  0.00    +0.000 A 
ATOM      3  C   UNL     1       4.343  -2.728   2.592  0.00  0.00    +0.000 A 
ATOM      4  C   UNL     1       5.149  -3.684   3.207  0.00  0.00    +0.000 A 
ATOM      5  C   UNL     1       4.799  -5.031   3.113  0.00  0.00    +0.000 A 
ATOM      6  N   UNL     1       3.714  -5.446   2.418  0.00  0.00    +0.000 NA
ATOM      7  C   UNL     1       2.953  -4.494   1.824  0.00  0.00    +0.000 A 
BRANCH   5   8
ATOM      8  C   UNL     1       5.655  -6.098   3.766  0.00  0.00    +0.000 C 
BRANCH   8   9
ATOM      9  C   UNL     1       6.741  -6.604   2.804  0.00  0.00    +0.000 C 
BRANCH   9  10
ATOM     10  C   UNL     1       7.620  -7.752   3.362  0.00  0.00    +0.000 C 
ATOM     11  C   UNL     1       8.657  -8.190   2.323  0.00  0.00    +0.000 C 
ATOM     12  C   UNL     1       7.885  -9.195   1.494  0.00  0.00    +0.000 C 
ATOM     13  N   UNL     1       7.114  -9.957   2.482  0.00  0.00    +0.000 NA
ATOM     14  C   UNL     1       6.889  -9.069   3.637  0.00  0.00    +0.000 C 
ATOM     15  H   UNL     1       7.679 -10.752   2.787  0.00  0.00    +0.000 HD
ENDBRANCH   9  10
BRANCH   9  16
ATOM     16  O   UNL     1       7.632  -5.513   2.497  0.00  0.00    +0.000 OA
ATOM     17  H   UNL     1       8.003  -5.183   3.332  0.00  0.00    +0.000 HD
ENDBRANCH   9  16
ENDBRANCH   8   9
ENDBRANCH   5   8
ENDBRANCH   1   2
BRANCH   1  20
ATOM     18  O   UNL     1       3.783   0.144   0.538  0.00  0.00    +0.000 OA
ATOM     19  C   UNL     1       3.468  -0.668  -0.326  0.00  0.00    +0.000 C 
ATOM     20  N   UNL     1       2.694  -1.765  -0.056  0.00  0.00    +0.000 N 
ATOM     21  H   UNL     1       2.570  -2.475  -0.769  0.00  0.00    +0.000 HD
BRANCH  19  22
ATOM     22  C   UNL     1       3.871  -0.490  -1.727  0.00  0.00    +0.000 A 
ATOM     23  C   UNL     1       4.224   0.769  -2.193  0.00  0.00    +0.000 A 
ATOM     24  S   UNL     1       4.698   0.783  -3.832  0.00  0.00    +0.000 S 
ATOM     25  C   UNL     1       4.483  -0.901  -3.964  0.00  0.00    +0.000 A 
ATOM     26  N   UNL     1       4.775  -1.557  -5.122  0.00  0.00    +0.000 NA
ATOM     27  C   UNL     1       4.605  -2.833  -5.069  0.00  0.00    +0.000 A 
ATOM     28  N   UNL     1       4.155  -3.516  -3.973  0.00  0.00    +0.000 N 
ATOM     29  C   UNL     1       3.761  -2.890  -2.818  0.00  0.00    +0.000 A 
ATOM     30  O   UNL     1       3.192  -3.505  -1.920  0.00  0.00    +0.000 OA
ATOM     31  C   UNL     1       4.008  -1.457  -2.792  0.00  0.00    +0.000 A 
ATOM     32  H   UNL     1       3.999  -4.514  -4.011  0.00  0.00    +0.000 HD
ENDBRANCH  19  22
ENDBRANCH   1  20
TORSDOF 7
