REMARK  Name = 
REMARK  8 active torsions:
REMARK  status: ('A' for Active; 'I' for Inactive)
REMARK    1  A    between atoms: C_1  and  C_2
REMARK    2  A    between atoms: C_2  and  N_3
REMARK    3  A    between atoms: N_3  and  C_4
REMARK    4  A    between atoms: C_4  and  C_5
REMARK    5  A    between atoms: C_8  and  C_9
REMARK    6  A    between atoms: C_9  and  O_10
REMARK    7  A    between atoms: C_9  and  C_11
REMARK    8  A    between atoms: C_19  and  C_21
REMARK                            x       y       z     vdW  Elec       q    Type
REMARK                         _______ _______ _______ _____ _____    ______ ____
ROOT
ATOM      1  N   UNL     1       2.877  -0.690  -1.154  0.00  0.00    +0.000 N 
ATOM      2  C   UNL     1       4.208  -1.137  -1.022  0.00  0.00    +0.000 C 
ATOM      3  O   UNL     1       4.988  -0.599  -0.237  0.00  0.00    +0.000 OA
ENDROOT
BRANCH   2   4
ATOM      4  C   UNL     1       4.696  -2.241  -1.865  0.00  0.00    +0.000 A 
ATOM      5  C   UNL     1       4.564  -2.305  -3.243  0.00  0.00    +0.000 A 
ATOM      6  S   UNL     1       5.317  -3.669  -3.943  0.00  0.00    +0.000 S 
ATOM      7  C   UNL     1       5.968  -4.140  -2.445  0.00  0.00    +0.000 A 
ATOM      8  N   UNL     1       6.825  -5.192  -2.353  0.00  0.00    +0.000 NA
ATOM      9  C   UNL     1       7.288  -5.390  -1.163  0.00  0.00    +0.000 A 
ATOM     10  N   UNL     1       6.940  -4.660  -0.054  0.00  0.00    +0.000 N 
ATOM     11  C   UNL     1       5.980  -3.670  -0.078  0.00  0.00    +0.000 A 
ATOM     12  O   UNL     1       5.524  -3.201   0.958  0.00  0.00    +0.000 OA
ATOM     13  C   UNL     1       5.528  -3.331  -1.414  0.00  0.00    +0.000 A 
ATOM     14  H   UNL     1       7.287  -4.914   0.859  0.00  0.00    +0.000 HD
ENDBRANCH   2   4
BRANCH   1  16
ATOM     15  C   UNL     1       2.182   0.161   1.065  0.00  0.00    +0.000 C 
ATOM     16  C   UNL     1       2.500   0.498  -0.385  0.00  0.00    +0.000 C 
ENDBRANCH   1  16
BRANCH   1  17
ATOM     17  C   UNL     1       1.946  -1.272  -2.114  0.00  0.00    +0.000 C 
BRANCH  17  18
ATOM     18  C   UNL     1       0.474  -1.006  -2.004  0.00  0.00    +0.000 A 
ATOM     19  C   UNL     1      -0.151  -0.054  -2.819  0.00  0.00    +0.000 A 
ATOM     20  C   UNL     1      -1.539  -0.023  -2.909  0.00  0.00    +0.000 A 
ATOM     21  C   UNL     1      -2.269  -0.961  -2.186  0.00  0.00    +0.000 A 
ATOM     22  N   UNL     1      -1.686  -1.835  -1.316  0.00  0.00    +0.000 NA
ATOM     23  C   UNL     1      -0.338  -1.823  -1.231  0.00  0.00    +0.000 A 
BRANCH  21  24
ATOM     24  C   UNL     1      -3.764  -1.135  -2.434  0.00  0.00    +0.000 C 
BRANCH  24  25
ATOM     25  C   UNL     1      -4.633  -0.124  -1.726  0.00  0.00    +0.000 A 
ATOM     26  C   UNL     1      -5.485   0.717  -2.459  0.00  0.00    +0.000 A 
ATOM     27  C   UNL     1      -6.268   1.672  -1.809  0.00  0.00    +0.000 A 
ATOM     28  C   UNL     1      -6.213   1.793  -0.421  0.00  0.00    +0.000 A 
ATOM     29  C   UNL     1      -5.389   0.948   0.320  0.00  0.00    +0.000 A 
ATOM     30  C   UNL     1      -4.608  -0.008  -0.327  0.00  0.00    +0.000 A 
ENDBRANCH  24  25
BRANCH  24  31
ATOM     31  O   UNL     1      -4.174  -2.451  -2.039  0.00  0.00    +0.000 OA
ATOM     32  H   UNL     1      -3.371  -2.846  -1.642  0.00  0.00    +0.000 HD
ENDBRANCH  24  31
ENDBRANCH  21  24
ENDBRANCH  17  18
ENDBRANCH   1  17
TORSDOF 7
