REMARK  Name = 
REMARK  8 active torsions:
REMARK  status: ('A' for Active; 'I' for Inactive)
REMARK    1  A    between atoms: C_1  and  C_2
REMARK    2  A    between atoms: C_5  and  C_6
REMARK    3  A    between atoms: C_6  and  N_7
REMARK    4  A    between atoms: N_7  and  C_8
REMARK    5  A    between atoms: C_8  and  C_9
REMARK    6  A    between atoms: C_12  and  C_13
REMARK    7  A    between atoms: C_13  and  N_14
REMARK    8  A    between atoms: C_15  and  C_17
REMARK                            x       y       z     vdW  Elec       q    Type
REMARK                         _______ _______ _______ _____ _____    ______ ____
ROOT
ATOM      1  C   UNL     1      -6.005  -2.422  -0.008  0.00  0.00    +0.000 A 
ATOM      2  C   UNL     1      -5.199  -3.538  -0.276  0.00  0.00    +0.000 A 
ATOM      3  C   UNL     1      -5.737  -4.828  -0.243  0.00  0.00    +0.000 A 
ATOM      4  C   UNL     1      -7.091  -5.026   0.051  0.00  0.00    +0.000 A 
ATOM      5  C   UNL     1      -7.888  -3.914   0.350  0.00  0.00    +0.000 A 
ATOM      6  C   UNL     1      -7.352  -2.623   0.317  0.00  0.00    +0.000 A 
ENDROOT
BRANCH   1   7
ATOM      7  C   UNL     1      -5.437  -1.025  -0.097  0.00  0.00    +0.000 C 
BRANCH   7   8
ATOM      8  N   UNL     1      -4.874  -0.707  -1.412  0.00  0.00    +0.000 NA
ATOM      9  H   UNL     1      -4.468   0.227  -1.376  0.00  0.00    +0.000 HD
BRANCH   8  10
ATOM     10  C   UNL     1      -5.888  -0.731  -2.469  0.00  0.00    +0.000 C 
BRANCH  10  15
ATOM     11  C   UNL     1      -3.771   0.723  -7.623  0.00  0.00    +0.000 C 
ATOM     12  C   UNL     1      -4.283   0.308  -6.277  0.00  0.00    +0.000 A 
ATOM     13  C   UNL     1      -3.744  -0.789  -5.614  0.00  0.00    +0.000 A 
ATOM     14  C   UNL     1      -4.256  -1.134  -4.364  0.00  0.00    +0.000 A 
ATOM     15  C   UNL     1      -5.289  -0.380  -3.803  0.00  0.00    +0.000 A 
ATOM     16  C   UNL     1      -5.768   0.690  -4.547  0.00  0.00    +0.000 A 
ATOM     17  N   UNL     1      -5.290   1.050  -5.761  0.00  0.00    +0.000 NA
ENDBRANCH  10  15
ENDBRANCH   8  10
ENDBRANCH   7   8
ENDBRANCH   1   7
BRANCH   4  18
ATOM     18  C   UNL     1      -7.682  -6.411   0.085  0.00  0.00    +0.000 C 
BRANCH  18  19
ATOM     19  N   UNL     1      -7.576  -6.989   1.400  0.00  0.00    +0.000 N 
ATOM     20  C   UNL     1      -7.986  -8.274   1.644  0.00  0.00    +0.000 C 
ATOM     21  O   UNL     1      -8.428  -8.995   0.753  0.00  0.00    +0.000 OA
ATOM     22  H   UNL     1      -7.434  -6.350   2.177  0.00  0.00    +0.000 HD
BRANCH  20  23
ATOM     23  C   UNL     1      -7.811  -8.769   3.014  0.00  0.00    +0.000 A 
ATOM     24  C   UNL     1      -7.714 -10.136   3.242  0.00  0.00    +0.000 A 
ATOM     25  S   UNL     1      -7.467 -10.540   4.880  0.00  0.00    +0.000 S 
ATOM     26  C   UNL     1      -7.532  -8.906   5.350  0.00  0.00    +0.000 A 
ATOM     27  N   UNL     1      -7.414  -8.549   6.657  0.00  0.00    +0.000 NA
ATOM     28  C   UNL     1      -7.514  -7.280   6.874  0.00  0.00    +0.000 A 
ATOM     29  N   UNL     1      -7.713  -6.335   5.902  0.00  0.00    +0.000 N 
ATOM     30  C   UNL     1      -7.807  -6.645   4.566  0.00  0.00    +0.000 A 
ATOM     31  O   UNL     1      -7.941  -5.770   3.717  0.00  0.00    +0.000 OA
ATOM     32  C   UNL     1      -7.718  -8.062   4.269  0.00  0.00    +0.000 A 
ATOM     33  H   UNL     1      -7.772  -5.355   6.137  0.00  0.00    +0.000 HD
ENDBRANCH  20  23
ENDBRANCH  18  19
ENDBRANCH   4  18
TORSDOF 7
