REMARK  Name = 
REMARK  5 active torsions:
REMARK  status: ('A' for Active; 'I' for Inactive)
REMARK    1  A    between atoms: N_1  and  C_2
REMARK    2  A    between atoms: C_2  and  C_3
REMARK    3  A    between atoms: C_6  and  O_7
REMARK    4  A    between atoms: O_7  and  N_8
REMARK    5  A    between atoms: C_9  and  C_10
REMARK                            x       y       z     vdW  Elec       q    Type
REMARK                         _______ _______ _______ _____ _____    ______ ____
ROOT
ATOM      1  C   UNL     1       2.799   0.996  -1.057  0.00  0.00    +0.000 A 
ATOM      2  C   UNL     1       2.571   2.376  -0.946  0.00  0.00    +0.000 A 
ATOM      3  C   UNL     1       2.908   3.241  -1.992  0.00  0.00    +0.000 A 
ATOM      4  C   UNL     1       3.476   2.739  -3.165  0.00  0.00    +0.000 A 
ATOM      5  C   UNL     1       3.749   1.372  -3.258  0.00  0.00    +0.000 A 
ATOM      6  F   UNL     1       4.362   0.844  -4.329  0.00  0.00    +0.000 F 
ATOM      7  C   UNL     1       3.407   0.505  -2.219  0.00  0.00    +0.000 A 
ENDROOT
BRANCH   1   8
ATOM      8  C   UNL     1       2.390   0.061   0.052  0.00  0.00    +0.000 C 
BRANCH   8   9
ATOM      9  N   UNL     1       0.949   0.108   0.270  0.00  0.00    +0.000 NA
ATOM     10  H   UNL     1       0.687  -0.616   0.936  0.00  0.00    +0.000 HD
ATOM     11  H   UNL     1       0.476  -0.118  -0.603  0.00  0.00    +0.000 HD
ENDBRANCH   8   9
ENDBRANCH   1   8
BRANCH   4  12
ATOM     12  O   UNL     1       3.750   3.672  -4.138  0.00  0.00    +0.000 OA
BRANCH  12  13
ATOM     13  N   UNL     1       3.679   3.083  -5.403  0.00  0.00    +0.000 NA
ATOM     14  C   UNL     1       3.944   3.964  -6.310  0.00  0.00    +0.000 C 
BRANCH  14  15
ATOM     15  C   UNL     1       4.029   3.583  -7.733  0.00  0.00    +0.000 A 
ATOM     16  C   UNL     1       3.824   2.256  -8.124  0.00  0.00    +0.000 A 
ATOM     17  C   UNL     1       3.977   1.893  -9.463  0.00  0.00    +0.000 A 
ATOM     18  C   UNL     1       4.336   2.854 -10.412  0.00  0.00    +0.000 A 
ATOM     19 CL   UNL     1       4.541   2.331 -12.046  0.00  0.00    +0.000 Cl
ATOM     20  C   UNL     1       4.529   4.185 -10.019  0.00  0.00    +0.000 A 
ATOM     21 CL   UNL     1       4.982   5.422 -11.138  0.00  0.00    +0.000 Cl
ATOM     22  C   UNL     1       4.372   4.552  -8.678  0.00  0.00    +0.000 A 
ENDBRANCH  14  15
ENDBRANCH  12  13
ENDBRANCH   4  12
TORSDOF 5
