REMARK  Name = 
REMARK  5 active torsions:
REMARK  status: ('A' for Active; 'I' for Inactive)
REMARK    1  A    between atoms: C_2  and  C_4
REMARK    2  A    between atoms: C_7  and  S_8
REMARK    3  A    between atoms: S_8  and  C_9
REMARK    4  A    between atoms: C_9  and  C_10
REMARK    5  A    between atoms: C_14  and  C_15
REMARK                            x       y       z     vdW  Elec       q    Type
REMARK                         _______ _______ _______ _____ _____    ______ ____
ROOT
ATOM      1  C   UNL     1       4.934   3.143   5.341  0.00  0.00    +0.000 C 
ENDROOT
BRANCH   1   2
ATOM      2  C   UNL     1       5.668   3.961   6.373  0.00  0.00    +0.000 A 
ATOM      3  C   UNL     1       6.703   3.409   7.127  0.00  0.00    +0.000 A 
ATOM      4  C   UNL     1       7.336   4.210   8.060  0.00  0.00    +0.000 A 
ATOM      5  N   UNL     1       7.009   5.501   8.292  0.00  0.00    +0.000 NA
ATOM      6  C   UNL     1       5.997   6.040   7.570  0.00  0.00    +0.000 A 
ATOM      7  C   UNL     1       5.323   5.301   6.594  0.00  0.00    +0.000 A 
BRANCH   6   8
ATOM      8  C   UNL     1       5.653   7.426   7.896  0.00  0.00    +0.000 A 
ATOM      9  C   UNL     1       6.581   8.342   8.365  0.00  0.00    +0.000 A 
ATOM     10  N   UNL     1       6.305   9.629   8.685  0.00  0.00    +0.000 NA
ATOM     11  C   UNL     1       5.028  10.001   8.536  0.00  0.00    +0.000 A 
ATOM     12  N   UNL     1       4.028   9.221   8.101  0.00  0.00    +0.000 NA
ATOM     13  C   UNL     1       4.373   7.949   7.797  0.00  0.00    +0.000 A 
ENDBRANCH   6   8
ENDBRANCH   1   2
BRANCH   1  14
ATOM     14  S   UNL     1       5.734   3.245   3.708  0.00  0.00    +0.000 S 
BRANCH  14  18
ATOM     15  C   UNL     1       2.839   0.726   1.288  0.00  0.00    +0.000 A 
ATOM     16  C   UNL     1       3.948   1.284   0.651  0.00  0.00    +0.000 A 
ATOM     17  C   UNL     1       4.842   2.058   1.396  0.00  0.00    +0.000 A 
ATOM     18  C   UNL     1       4.603   2.251   2.754  0.00  0.00    +0.000 A 
ATOM     19  N   UNL     1       3.533   1.720   3.384  0.00  0.00    +0.000 NA
ATOM     20  C   UNL     1       2.671   0.982   2.641  0.00  0.00    +0.000 A 
BRANCH  15  22
ATOM     21  N   UNL     1       2.210  -0.766  -0.528  0.00  0.00    +0.000 N 
ATOM     22  C   UNL     1       1.822  -0.090   0.594  0.00  0.00    +0.000 C 
ATOM     23  O   UNL     1       0.681  -0.185   1.027  0.00  0.00    +0.000 OA
ATOM     24  H   UNL     1       1.526  -1.397  -0.928  0.00  0.00    +0.000 HD
ATOM     25  H   UNL     1       3.178  -0.915  -0.773  0.00  0.00    +0.000 HD
ENDBRANCH  15  22
ENDBRANCH  14  18
ENDBRANCH   1  14
TORSDOF 5
