REMARK  Name = 
REMARK  5 active torsions:
REMARK  status: ('A' for Active; 'I' for Inactive)
REMARK    1  A    between atoms: C_2  and  C_4
REMARK    2  A    between atoms: C_7  and  N_8
REMARK    3  A    between atoms: N_8  and  C_9
REMARK    4  A    between atoms: C_9  and  C_10
REMARK    5  A    between atoms: C_14  and  C_15
REMARK                            x       y       z     vdW  Elec       q    Type
REMARK                         _______ _______ _______ _____ _____    ______ ____
ROOT
ATOM      1  N   UNL     1       5.435  -5.554   1.297  0.00  0.00    +0.000 N 
ATOM      2  H   UNL     1       6.375  -5.698   0.938  0.00  0.00    +0.000 HD
ENDROOT
BRANCH   1   6
ATOM      3  C   UNL     1       2.700  -3.940  -1.493  0.00  0.00    +0.000 A 
ATOM      4  C   UNL     1       2.627  -3.551  -0.154  0.00  0.00    +0.000 A 
ATOM      5  C   UNL     1       3.550  -4.053   0.773  0.00  0.00    +0.000 A 
ATOM      6  C   UNL     1       4.576  -4.928   0.391  0.00  0.00    +0.000 A 
ATOM      7  C   UNL     1       4.635  -5.306  -0.959  0.00  0.00    +0.000 A 
ATOM      8  C   UNL     1       3.708  -4.822  -1.893  0.00  0.00    +0.000 A 
BRANCH   3  10
ATOM      9  N   UNL     1       1.076  -2.294  -2.275  0.00  0.00    +0.000 N 
ATOM     10  C   UNL     1       1.696  -3.493  -2.493  0.00  0.00    +0.000 C 
ATOM     11  O   UNL     1       1.458  -4.147  -3.502  0.00  0.00    +0.000 OA
ATOM     12  H   UNL     1       0.468  -1.963  -3.016  0.00  0.00    +0.000 HD
ATOM     13  H   UNL     1       1.409  -1.624  -1.601  0.00  0.00    +0.000 HD
ENDBRANCH   3  10
ENDBRANCH   1   6
BRANCH   1  14
ATOM     14  C   UNL     1       5.376  -5.224   2.710  0.00  0.00    +0.000 C 
BRANCH  14  15
ATOM     15  C   UNL     1       6.340  -6.064   3.514  0.00  0.00    +0.000 A 
ATOM     16  C   UNL     1       7.360  -5.457   4.255  0.00  0.00    +0.000 A 
ATOM     17  C   UNL     1       8.186  -6.226   5.069  0.00  0.00    +0.000 A 
ATOM     18  C   UNL     1       7.987  -7.605   5.168  0.00  0.00    +0.000 A 
ATOM     19  C   UNL     1       6.951  -8.250   4.469  0.00  0.00    +0.000 A 
ATOM     20  C   UNL     1       6.159  -7.456   3.616  0.00  0.00    +0.000 A 
BRANCH  19  21
ATOM     21  C   UNL     1       6.640  -9.682   4.697  0.00  0.00    +0.000 A 
ATOM     22  C   UNL     1       6.760 -10.249   5.982  0.00  0.00    +0.000 A 
ATOM     23  C   UNL     1       6.385 -11.571   6.240  0.00  0.00    +0.000 A 
ATOM     24  C   UNL     1       5.874 -12.360   5.216  0.00  0.00    +0.000 A 
ATOM     25  C   UNL     1       5.758 -11.833   3.933  0.00  0.00    +0.000 A 
ATOM     26  C   UNL     1       6.146 -10.512   3.675  0.00  0.00    +0.000 A 
ENDBRANCH  19  21
ENDBRANCH  14  15
ENDBRANCH   1  14
TORSDOF 5
