REMARK  Name = 
REMARK  6 active torsions:
REMARK  status: ('A' for Active; 'I' for Inactive)
REMARK    1  A    between atoms: C_1  and  C_2
REMARK    2  A    between atoms: C_2  and  C_3
REMARK    3  A    between atoms: C_2  and  C_4
REMARK    4  A    between atoms: C_2  and  C_15
REMARK    5  A    between atoms: C_5  and  C_6
REMARK    6  A    between atoms: C_9  and  C_10
REMARK                            x       y       z     vdW  Elec       q    Type
REMARK                         _______ _______ _______ _____ _____    ______ ____
ROOT
ATOM      1  C   UNL     1       3.026   1.287  -0.456  0.00  0.00    +0.000 C 
ATOM      2  C   UNL     1       3.322   2.373   0.278  0.00  0.00    +0.000 C 
ENDROOT
BRANCH   2   3
ATOM      3  C   UNL     1       3.788   3.613  -0.343  0.00  0.00    +0.000 A 
ATOM      4  C   UNL     1       5.152   3.851  -0.516  0.00  0.00    +0.000 A 
ATOM      5  C   UNL     1       5.577   5.042  -1.103  0.00  0.00    +0.000 A 
ATOM      6  C   UNL     1       4.615   5.960  -1.505  0.00  0.00    +0.000 A 
ATOM      7  N   UNL     1       3.273   5.762  -1.364  0.00  0.00    +0.000 NA
ATOM      8  C   UNL     1       2.899   4.592  -0.788  0.00  0.00    +0.000 A 
BRANCH   6   9
ATOM      9  C   UNL     1       5.043   7.255  -2.128  0.00  0.00    +0.000 C 
ATOM     10  N   UNL     1       4.027   8.098  -2.488  0.00  0.00    +0.000 N 
ATOM     11  O   UNL     1       6.218   7.549  -2.304  0.00  0.00    +0.000 OA
ATOM     12  H   UNL     1       3.066   7.826  -2.318  0.00  0.00    +0.000 HD
ATOM     13  H   UNL     1       4.244   8.993  -2.902  0.00  0.00    +0.000 HD
ENDBRANCH   6   9
ENDBRANCH   2   3
BRANCH   1  15
ATOM     14  C   UNL     1       0.997  -0.059  -0.065  0.00  0.00    +0.000 C 
ATOM     15  C   UNL     1       2.538  -0.075   0.054  0.00  0.00    +0.000 C 
ATOM     16  C   UNL     1       3.053  -1.164  -0.918  0.00  0.00    +0.000 C 
BRANCH  15  17
ATOM     17  C   UNL     1       3.034  -0.415   1.479  0.00  0.00    +0.000 A 
ATOM     18  C   UNL     1       4.418  -0.459   1.756  0.00  0.00    +0.000 A 
ATOM     19  C   UNL     1       4.895  -0.765   3.037  0.00  0.00    +0.000 A 
ATOM     20  C   UNL     1       3.996  -1.036   4.061  0.00  0.00    +0.000 A 
ATOM     21  F   UNL     1       4.473  -1.323   5.281  0.00  0.00    +0.000 F 
ATOM     22  C   UNL     1       2.629  -1.008   3.819  0.00  0.00    +0.000 A 
ATOM     23 CL   UNL     1       1.506  -1.347   5.080  0.00  0.00    +0.000 Cl
ATOM     24  C   UNL     1       2.151  -0.699   2.540  0.00  0.00    +0.000 A 
ENDBRANCH  15  17
ENDBRANCH   1  15
TORSDOF 4
