REMARK  Name = 
REMARK  5 active torsions:
REMARK  status: ('A' for Active; 'I' for Inactive)
REMARK    1  A    between atoms: C_2  and  C_4
REMARK    2  A    between atoms: N_8  and  C_9
REMARK    3  A    between atoms: C_9  and  C_10
REMARK    4  A    between atoms: C_13  and  O_14
REMARK    5  A    between atoms: O_14  and  C_15
REMARK                            x       y       z     vdW  Elec       q    Type
REMARK                         _______ _______ _______ _____ _____    ______ ____
ROOT
ATOM      1  C   UNL     1       7.876  -1.426   0.179  0.00  0.00    +0.000 A 
ATOM      2  C   UNL     1       7.383  -2.678  -0.169  0.00  0.00    +0.000 A 
ATOM      3  C   UNL     1       6.624  -3.394   0.760  0.00  0.00    +0.000 A 
ATOM      4  C   UNL     1       6.382  -2.855   2.019  0.00  0.00    +0.000 A 
ATOM      5  N   UNL     1       5.592  -3.462   2.968  0.00  0.00    +0.000 N 
ATOM      6  N   UNL     1       6.866  -1.647   2.370  0.00  0.00    +0.000 NA
ATOM      7  C   UNL     1       7.606  -0.963   1.457  0.00  0.00    +0.000 A 
ATOM      8  H   UNL     1       5.620  -2.918   3.826  0.00  0.00    +0.000 HD
ENDROOT
BRANCH   1  10
ATOM      9  N   UNL     1       8.480  -0.764  -2.081  0.00  0.00    +0.000 N 
ATOM     10  C   UNL     1       8.676  -0.590  -0.737  0.00  0.00    +0.000 C 
ATOM     11  O   UNL     1       9.461   0.250  -0.315  0.00  0.00    +0.000 OA
ATOM     12  H   UNL     1       8.959  -0.118  -2.692  0.00  0.00    +0.000 HD
ATOM     13  H   UNL     1       7.672  -1.245  -2.453  0.00  0.00    +0.000 HD
ENDBRANCH   1  10
BRANCH   5  14
ATOM     14  C   UNL     1       5.523  -4.899   3.143  0.00  0.00    +0.000 C 
BRANCH  14  15
ATOM     15  C   UNL     1       6.591  -5.497   4.036  0.00  0.00    +0.000 A 
ATOM     16  C   UNL     1       7.620  -4.758   4.635  0.00  0.00    +0.000 A 
ATOM     17  C   UNL     1       8.558  -5.374   5.475  0.00  0.00    +0.000 A 
ATOM     18  C   UNL     1       8.462  -6.732   5.765  0.00  0.00    +0.000 A 
ATOM     19  C   UNL     1       7.472  -7.487   5.136  0.00  0.00    +0.000 A 
ATOM     20  C   UNL     1       6.544  -6.879   4.286  0.00  0.00    +0.000 A 
BRANCH  18  21
ATOM     21  O   UNL     1       9.285  -7.440   6.585  0.00  0.00    +0.000 OA
BRANCH  21  22
ATOM     22  C   UNL     1       9.903  -6.794   7.690  0.00  0.00    +0.000 C 
ATOM     23  F   UNL     1       9.457  -5.543   7.931  0.00  0.00    +0.000 F 
ATOM     24  F   UNL     1       9.669  -7.531   8.800  0.00  0.00    +0.000 F 
ATOM     25  F   UNL     1      11.238  -6.750   7.491  0.00  0.00    +0.000 F 
ENDBRANCH  21  22
ENDBRANCH  18  21
ENDBRANCH  14  15
ENDBRANCH   5  14
TORSDOF 5
