REMARK  Name = 
REMARK  5 active torsions:
REMARK  status: ('A' for Active; 'I' for Inactive)
REMARK    1  A    between atoms: C_2  and  C_4
REMARK    2  A    between atoms: C_7  and  N_8
REMARK    3  A    between atoms: N_8  and  C_9
REMARK    4  A    between atoms: C_9  and  C_10
REMARK    5  A    between atoms: C_15  and  C_16
REMARK                            x       y       z     vdW  Elec       q    Type
REMARK                         _______ _______ _______ _____ _____    ______ ____
ROOT
ATOM      1  C   UNL     1       4.445  -5.629   2.661  0.00  0.00    +0.000 C 
ENDROOT
BRANCH   1   2
ATOM      2  C   UNL     1       5.149  -6.627   3.561  0.00  0.00    +0.000 A 
ATOM      3  C   UNL     1       6.106  -6.204   4.490  0.00  0.00    +0.000 A 
ATOM      4  C   UNL     1       6.755  -7.136   5.295  0.00  0.00    +0.000 A 
ATOM      5  C   UNL     1       6.456  -8.495   5.178  0.00  0.00    +0.000 A 
ATOM      6  F   UNL     1       7.133  -9.346   5.965  0.00  0.00    +0.000 F 
ATOM      7  C   UNL     1       5.496  -8.972   4.268  0.00  0.00    +0.000 A 
ATOM      8  C   UNL     1       4.859  -8.005   3.462  0.00  0.00    +0.000 A 
BRANCH   7   9
ATOM      9  C   UNL     1       5.152 -10.409   4.161  0.00  0.00    +0.000 A 
ATOM     10  C   UNL     1       4.778 -11.004   2.945  0.00  0.00    +0.000 A 
ATOM     11  C   UNL     1       4.436 -12.355   2.883  0.00  0.00    +0.000 A 
ATOM     12  C   UNL     1       4.481 -13.099   4.047  0.00  0.00    +0.000 A 
ATOM     13  N   UNL     1       4.834 -12.586   5.241  0.00  0.00    +0.000 NA
ATOM     14  C   UNL     1       5.157 -11.267   5.266  0.00  0.00    +0.000 A 
ENDBRANCH   7   9
ENDBRANCH   1   2
BRANCH   1  15
ATOM     15  N   UNL     1       3.005  -5.736   2.867  0.00  0.00    +0.000 N 
ATOM     16  H   UNL     1       2.759  -5.627   3.847  0.00  0.00    +0.000 HD
BRANCH  15  20
ATOM     17  C   UNL     1       0.565  -3.379   0.537  0.00  0.00    +0.000 A 
ATOM     18  C   UNL     1       1.943  -3.302   0.416  0.00  0.00    +0.000 A 
ATOM     19  N   UNL     1       2.791  -4.052   1.176  0.00  0.00    +0.000 NA
ATOM     20  C   UNL     1       2.221  -4.885   2.074  0.00  0.00    +0.000 A 
ATOM     21  C   UNL     1       0.822  -4.944   2.179  0.00  0.00    +0.000 A 
ATOM     22  N   UNL     1      -0.040  -4.203   1.434  0.00  0.00    +0.000 NA
BRANCH  17  24
ATOM     23  N   UNL     1      -1.655  -2.668  -0.125  0.00  0.00    +0.000 N 
ATOM     24  C   UNL     1      -0.308  -2.553  -0.344  0.00  0.00    +0.000 C 
ATOM     25  O   UNL     1       0.146  -1.818  -1.211  0.00  0.00    +0.000 OA
ATOM     26  H   UNL     1      -2.299  -2.139  -0.695  0.00  0.00    +0.000 HD
ATOM     27  H   UNL     1      -2.002  -3.282   0.604  0.00  0.00    +0.000 HD
ENDBRANCH  17  24
ENDBRANCH  15  20
ENDBRANCH   1  15
TORSDOF 5
