REMARK  Name = 
REMARK  5 active torsions:
REMARK  status: ('A' for Active; 'I' for Inactive)
REMARK    1  A    between atoms: N_1  and  C_2
REMARK    2  A    between atoms: C_2  and  C_3
REMARK    3  A    between atoms: C_6  and  C_7
REMARK    4  A    between atoms: C_7  and  N_8
REMARK    5  A    between atoms: C_13  and  C_14
REMARK                            x       y       z     vdW  Elec       q    Type
REMARK                         _______ _______ _______ _____ _____    ______ ____
ROOT
ATOM      1  N   UNL     1       4.344   5.439   3.734  0.00  0.00    +0.000 N 
ATOM      2  N   UNL     1       5.605   5.262   4.203  0.00  0.00    +0.000 NA
ATOM      3  C   UNL     1       6.022   6.502   4.459  0.00  0.00    +0.000 A 
ATOM      4  C   UNL     1       5.061   7.477   4.128  0.00  0.00    +0.000 A 
ATOM      5  C   UNL     1       4.941   8.866   4.293  0.00  0.00    +0.000 A 
ATOM      6  C   UNL     1       3.799   9.526   3.803  0.00  0.00    +0.000 A 
ATOM      7  C   UNL     1       2.841   8.805   3.075  0.00  0.00    +0.000 A 
ATOM      8  C   UNL     1       2.932   7.410   2.928  0.00  0.00    +0.000 A 
ATOM      9  C   UNL     1       4.031   6.769   3.516  0.00  0.00    +0.000 A 
ENDROOT
BRANCH   6  10
ATOM     10  C   UNL     1       3.657  10.970   4.148  0.00  0.00    +0.000 C 
ATOM     11  N   UNL     1       2.580  11.663   3.670  0.00  0.00    +0.000 N 
ATOM     12  O   UNL     1       4.459  11.533   4.886  0.00  0.00    +0.000 OA
ATOM     13  H   UNL     1       1.857  11.293   3.082  0.00  0.00    +0.000 HD
ATOM     14  H   UNL     1       2.492  12.623   3.985  0.00  0.00    +0.000 HD
ENDBRANCH   6  10
BRANCH   1  15
ATOM     15  C   UNL     1       3.380   4.351   3.902  0.00  0.00    +0.000 C 
BRANCH  15  19
ATOM     16  C   UNL     1       3.157   1.692   0.495  0.00  0.00    +0.000 A 
ATOM     17  C   UNL     1       4.335   1.788   1.248  0.00  0.00    +0.000 A 
ATOM     18  C   UNL     1       4.408   2.639   2.353  0.00  0.00    +0.000 A 
ATOM     19  C   UNL     1       3.305   3.420   2.723  0.00  0.00    +0.000 A 
ATOM     20  C   UNL     1       2.109   3.282   2.006  0.00  0.00    +0.000 A 
ATOM     21  C   UNL     1       2.038   2.429   0.902  0.00  0.00    +0.000 A 
BRANCH  16  22
ATOM     22  C   UNL     1       3.116   0.869  -0.767  0.00  0.00    +0.000 C 
BRANCH  22  23
ATOM     23  N   UNL     1       3.446  -0.530  -0.531  0.00  0.00    +0.000 NA
ATOM     24  H   UNL     1       3.319  -1.049  -1.397  0.00  0.00    +0.000 HD
ATOM     25  H   UNL     1       2.781  -0.915   0.138  0.00  0.00    +0.000 HD
ENDBRANCH  22  23
ENDBRANCH  16  22
ENDBRANCH  15  19
ENDBRANCH   1  15
TORSDOF 5
