REMARK  Name = 
REMARK  5 active torsions:
REMARK  status: ('A' for Active; 'I' for Inactive)
REMARK    1  A    between atoms: C_2  and  C_3
REMARK    2  A    between atoms: C_6  and  C_7
REMARK    3  A    between atoms: C_7  and  N_8
REMARK    4  A    between atoms: N_8  and  C_9
REMARK    5  A    between atoms: C_12  and  C_13
REMARK                            x       y       z     vdW  Elec       q    Type
REMARK                         _______ _______ _______ _____ _____    ______ ____
ROOT
ATOM      1  N   UNL     1       4.080   1.266   0.947  0.00  0.00    +0.000 N 
ATOM      2  H   UNL     1       4.363   1.095   1.908  0.00  0.00    +0.000 HD
ENDROOT
BRANCH   1   3
ATOM      3  C   UNL     1       4.300   2.567   0.493  0.00  0.00    +0.000 A 
ATOM      4  C   UNL     1       4.277   2.987  -0.825  0.00  0.00    +0.000 A 
ATOM      5  N   UNL     1       4.483   4.265  -1.232  0.00  0.00    +0.000 NA
ATOM      6  C   UNL     1       4.686   5.167  -0.240  0.00  0.00    +0.000 A 
ATOM      7  N   UNL     1       4.686   4.896   1.076  0.00  0.00    +0.000 NA
ATOM      8  C   UNL     1       4.482   3.604   1.398  0.00  0.00    +0.000 A 
BRANCH   6   9
ATOM      9  C   UNL     1       4.962   6.595  -0.652  0.00  0.00    +0.000 C 
ATOM     10  N   UNL     1       4.997   6.832  -2.009  0.00  0.00    +0.000 N 
ATOM     11  O   UNL     1       5.156   7.514   0.138  0.00  0.00    +0.000 OA
ATOM     12  H   UNL     1       4.851   6.071  -2.664  0.00  0.00    +0.000 HD
ATOM     13  H   UNL     1       5.198   7.765  -2.335  0.00  0.00    +0.000 HD
ENDBRANCH   6   9
ENDBRANCH   1   3
BRANCH   1  14
ATOM     14  C   UNL     1       3.752   0.096   0.123  0.00  0.00    +0.000 C 
ATOM     15  C   UNL     1       4.738  -0.487  -0.871  0.00  0.00    +0.000 C 
ATOM     16  C   UNL     1       4.564  -1.158   0.450  0.00  0.00    +0.000 C 
BRANCH  14  20
ATOM     17  C   UNL     1      -0.503  -0.718  -0.410  0.00  0.00    +0.000 A 
ATOM     18  C   UNL     1       0.293  -0.418  -1.517  0.00  0.00    +0.000 A 
ATOM     19  C   UNL     1       1.650  -0.116  -1.347  0.00  0.00    +0.000 A 
ATOM     20  C   UNL     1       2.252  -0.125  -0.077  0.00  0.00    +0.000 A 
ATOM     21  C   UNL     1       1.416  -0.388   1.026  0.00  0.00    +0.000 A 
ATOM     22  C   UNL     1       0.058  -0.682   0.867  0.00  0.00    +0.000 A 
BRANCH  17  24
ATOM     23  N   UNL     1      -2.986  -1.400  -0.723  0.00  0.00    +0.000 NA
ATOM     24  C   UNL     1      -1.878  -1.085  -0.583  0.00  0.00    +0.000 C 
ENDBRANCH  17  24
ENDBRANCH  14  20
ENDBRANCH   1  14
TORSDOF 5
