REMARK  Name = 
REMARK  12 active torsions:
REMARK  status: ('A' for Active; 'I' for Inactive)
REMARK    1  A    between atoms: C_1  and  C_2
REMARK    2  A    between atoms: C_2  and  C_3
REMARK    3  A    between atoms: C_3  and  C_4
REMARK    4  A    between atoms: C_4  and  N_5
REMARK    5  A    between atoms: C_4  and  C_22
REMARK    6  A    between atoms: N_5  and  C_6
REMARK    7  A    between atoms: C_6  and  C_7
REMARK    8  A    between atoms: C_10  and  C_11
REMARK    9  A    between atoms: C_11  and  N_12
REMARK   10  A    between atoms: N_12  and  C_13
REMARK   11  A    between atoms: C_13  and  C_14
REMARK   12  A    between atoms: N_17  and  C_18
REMARK                            x       y       z     vdW  Elec       q    Type
REMARK                         _______ _______ _______ _____ _____    ______ ____
ROOT
ATOM      1  N   UNL     1       7.863   7.201  -8.047  0.00  0.00    +0.000 NA
ATOM      2  H   UNL     1       8.589   7.371  -7.355  0.00  0.00    +0.000 HD
ENDROOT
BRANCH   1   3
ATOM      3  C   UNL     1       8.429   7.274  -9.409  0.00  0.00    +0.000 C 
BRANCH   3   4
ATOM      4  C   UNL     1       7.329   6.907 -10.426  0.00  0.00    +0.000 A 
ATOM      5  C   UNL     1       6.590   7.878 -11.108  0.00  0.00    +0.000 A 
ATOM      6  S   UNL     1       5.381   7.250 -12.122  0.00  0.00    +0.000 S 
ATOM      7  C   UNL     1       5.804   5.656 -11.722  0.00  0.00    +0.000 A 
ATOM      8  N   UNL     1       5.123   4.627 -12.286  0.00  0.00    +0.000 NA
ATOM      9  C   UNL     1       5.542   3.454 -11.924  0.00  0.00    +0.000 A 
ATOM     10  N   UNL     1       6.577   3.237 -11.047  0.00  0.00    +0.000 N 
ATOM     11  C   UNL     1       7.297   4.250 -10.449  0.00  0.00    +0.000 A 
ATOM     12  O   UNL     1       8.236   4.006  -9.704  0.00  0.00    +0.000 OA
ATOM     13  C   UNL     1       6.861   5.593 -10.825  0.00  0.00    +0.000 A 
ATOM     14  H   UNL     1       6.863   2.295 -10.834  0.00  0.00    +0.000 HD
ENDBRANCH   3   4
BRANCH   3  15
ATOM     15  C   UNL     1       9.098   8.640  -9.796  0.00  0.00    +0.000 C 
BRANCH  15  17
ATOM     16  C   UNL     1      11.468   8.318  -8.901  0.00  0.00    +0.000 C 
ATOM     17  C   UNL     1      10.241   9.204  -8.954  0.00  0.00    +0.000 C 
ENDBRANCH  15  17
ENDBRANCH   3  15
ENDBRANCH   1   3
BRANCH   1  18
ATOM     18  C   UNL     1       6.731   8.093  -7.813  0.00  0.00    +0.000 C 
BRANCH  18  19
ATOM     19  C   UNL     1       6.178   8.065  -6.406  0.00  0.00    +0.000 A 
ATOM     20  C   UNL     1       6.741   8.856  -5.398  0.00  0.00    +0.000 A 
ATOM     21  C   UNL     1       6.111   8.968  -4.155  0.00  0.00    +0.000 A 
ATOM     22  C   UNL     1       4.907   8.293  -3.897  0.00  0.00    +0.000 A 
ATOM     23  C   UNL     1       4.357   7.488  -4.900  0.00  0.00    +0.000 A 
ATOM     24  C   UNL     1       5.000   7.354  -6.131  0.00  0.00    +0.000 A 
BRANCH  22  25
ATOM     25  C   UNL     1       4.208   8.426  -2.564  0.00  0.00    +0.000 C 
BRANCH  25  26
ATOM     26  N   UNL     1       3.882   9.824  -2.301  0.00  0.00    +0.000 NA
ATOM     27  H   UNL     1       3.318  10.169  -3.075  0.00  0.00    +0.000 HD
BRANCH  26  28
ATOM     28  C   UNL     1       3.172  10.004  -1.039  0.00  0.00    +0.000 C 
BRANCH  28  29
ATOM     29  C   UNL     1       2.890  11.494  -0.804  0.00  0.00    +0.000 C 
ATOM     30  C   UNL     1       2.001  12.186  -1.852  0.00  0.00    +0.000 C 
ATOM     31  C   UNL     1       0.750  12.592  -1.091  0.00  0.00    +0.000 C 
ATOM     32  N   UNL     1       1.284  12.857   0.243  0.00  0.00    +0.000 NA
ATOM     33  C   UNL     1       0.238  13.017   1.240  0.00  0.00    +0.000 C 
ATOM     34  C   UNL     1       2.163  11.720   0.525  0.00  0.00    +0.000 C 
ENDBRANCH  28  29
ENDBRANCH  26  28
ENDBRANCH  25  26
ENDBRANCH  22  25
ENDBRANCH  18  19
ENDBRANCH   1  18
TORSDOF 10
