REMARK  Name = 
REMARK  8 active torsions:
REMARK  status: ('A' for Active; 'I' for Inactive)
REMARK    1  A    between atoms: N_1  and  C_2
REMARK    2  A    between atoms: C_2  and  C_3
REMARK    3  A    between atoms: C_7  and  O_8
REMARK    4  A    between atoms: O_8  and  C_9
REMARK    5  A    between atoms: C_9  and  C_10
REMARK    6  A    between atoms: C_10  and  C_13
REMARK    7  A    between atoms: C_16  and  C_17
REMARK    8  A    between atoms: C_17  and  O_19
REMARK                            x       y       z     vdW  Elec       q    Type
REMARK                         _______ _______ _______ _____ _____    ______ ____
ROOT
ATOM      1  C   UNL     1       7.215   3.187  -4.635  0.00  0.00    +0.000 C 
ATOM      2  F   UNL     1       8.142   2.646  -3.793  0.00  0.00    +0.000 F 
ATOM      3  F   UNL     1       7.028   2.267  -5.624  0.00  0.00    +0.000 F 
ENDROOT
BRANCH   1   4
ATOM      4  C   UNL     1       7.674   4.532  -5.192  0.00  0.00    +0.000 A 
ATOM      5  C   UNL     1       8.503   5.382  -4.441  0.00  0.00    +0.000 A 
ATOM      6  C   UNL     1       8.891   6.632  -4.942  0.00  0.00    +0.000 A 
ATOM      7  C   UNL     1       8.438   7.054  -6.198  0.00  0.00    +0.000 A 
ATOM      8  C   UNL     1       7.620   6.208  -6.956  0.00  0.00    +0.000 A 
ATOM      9  C   UNL     1       7.240   4.959  -6.457  0.00  0.00    +0.000 A 
BRANCH   7  10
ATOM     10  C   UNL     1       8.837   8.354  -6.798  0.00  0.00    +0.000 C 
ATOM     11  O   UNL     1       8.929   8.523  -8.002  0.00  0.00    +0.000 OA
BRANCH  10  12
ATOM     12  O   UNL     1       9.042   9.341  -5.901  0.00  0.00    +0.000 OA
ATOM     13  H   UNL     1       8.765   9.143  -4.988  0.00  0.00    +0.000 HD
ENDBRANCH  10  12
ENDBRANCH   7  10
ENDBRANCH   1   4
BRANCH   1  14
ATOM     14  C   UNL     1       5.895   3.390  -3.872  0.00  0.00    +0.000 C 
BRANCH  14  15
ATOM     15  O   UNL     1       5.340   2.166  -3.363  0.00  0.00    +0.000 OA
BRANCH  15  20
ATOM     16  C   UNL     1       2.458   1.151  -1.348  0.00  0.00    +0.000 A 
ATOM     17  C   UNL     1       1.836   2.383  -1.105  0.00  0.00    +0.000 A 
ATOM     18  C   UNL     1       2.360   3.558  -1.633  0.00  0.00    +0.000 A 
ATOM     19  C   UNL     1       3.523   3.520  -2.399  0.00  0.00    +0.000 A 
ATOM     20  C   UNL     1       4.177   2.306  -2.643  0.00  0.00    +0.000 A 
ATOM     21  C   UNL     1       3.635   1.126  -2.119  0.00  0.00    +0.000 A 
BRANCH  16  22
ATOM     22  C   UNL     1       1.876  -0.108  -0.756  0.00  0.00    +0.000 C 
BRANCH  22  23
ATOM     23  N   UNL     1       0.488  -0.301  -1.161  0.00  0.00    +0.000 NA
ATOM     24  H   UNL     1       0.149  -1.188  -0.793  0.00  0.00    +0.000 HD
ATOM     25  H   UNL     1       0.450  -0.377  -2.177  0.00  0.00    +0.000 HD
ENDBRANCH  22  23
ENDBRANCH  16  22
ENDBRANCH  15  20
ENDBRANCH  14  15
ENDBRANCH   1  14
TORSDOF 8
