REMARK  Name = 
REMARK  6 active torsions:
REMARK  status: ('A' for Active; 'I' for Inactive)
REMARK    1  A    between atoms: C_1  and  S_2
REMARK    2  A    between atoms: S_2  and  C_3
REMARK    3  A    between atoms: N_5  and  C_6
REMARK    4  A    between atoms: C_6  and  C_7
REMARK    5  A    between atoms: C_10  and  C_11
REMARK    6  A    between atoms: C_11  and  N_12
REMARK                            x       y       z     vdW  Elec       q    Type
REMARK                         _______ _______ _______ _____ _____    ______ ____
ROOT
ATOM      1  C   UNL     1       2.991   0.566   2.399  0.00  0.00    +0.000 A 
ATOM      2  N   UNL     1       2.590   1.677   3.027  0.00  0.00    +0.000 NA
ATOM      3  N   UNL     1       3.578   2.565   2.749  0.00  0.00    +0.000 N 
ATOM      4  C   UNL     1       4.601   2.032   2.008  0.00  0.00    +0.000 A 
ATOM      5  N   UNL     1       5.729   2.659   1.615  0.00  0.00    +0.000 NA
ATOM      6  C   UNL     1       6.545   1.866   0.883  0.00  0.00    +0.000 A 
ATOM      7  C   UNL     1       6.301   0.538   0.552  0.00  0.00    +0.000 A 
ATOM      8  C   UNL     1       5.124  -0.067   0.991  0.00  0.00    +0.000 A 
ATOM      9  C   UNL     1       4.239   0.715   1.752  0.00  0.00    +0.000 A 
ENDROOT
BRANCH   1  11
ATOM     10  C   UNL     1       0.612  -0.383   3.389  0.00  0.00    +0.000 C 
ATOM     11  S   UNL     1       2.050  -0.907   2.429  0.00  0.00    +0.000 S 
ENDBRANCH   1  11
BRANCH   3  12
ATOM     12  C   UNL     1       3.532   3.910   3.303  0.00  0.00    +0.000 C 
BRANCH  12  13
ATOM     13  C   UNL     1       2.839   4.875   2.372  0.00  0.00    +0.000 A 
ATOM     14  C   UNL     1       1.458   5.087   2.468  0.00  0.00    +0.000 A 
ATOM     15  C   UNL     1       0.802   5.942   1.577  0.00  0.00    +0.000 A 
ATOM     16  C   UNL     1       1.514   6.603   0.567  0.00  0.00    +0.000 A 
ATOM     17  C   UNL     1       2.898   6.400   0.480  0.00  0.00    +0.000 A 
ATOM     18  C   UNL     1       3.556   5.548   1.372  0.00  0.00    +0.000 A 
BRANCH  16  19
ATOM     19  C   UNL     1       0.802   7.465  -0.445  0.00  0.00    +0.000 C 
BRANCH  19  20
ATOM     20  N   UNL     1       1.282   8.842  -0.435  0.00  0.00    +0.000 NA
ATOM     21  H   UNL     1       1.054   9.261   0.467  0.00  0.00    +0.000 HD
ATOM     22  H   UNL     1       0.774   9.375  -1.137  0.00  0.00    +0.000 HD
ENDBRANCH  19  20
ENDBRANCH  16  19
ENDBRANCH  12  13
ENDBRANCH   3  12
TORSDOF 5
