REMARK  Name = 
REMARK  11 active torsions:
REMARK  status: ('A' for Active; 'I' for Inactive)
REMARK    1  A    between atoms: C_1  and  C_2
REMARK    2  A    between atoms: C_4  and  C_5
REMARK    3  A    between atoms: C_5  and  C_6
REMARK    4  A    between atoms: C_5  and  C_7
REMARK    5  A    between atoms: C_9  and  N_10
REMARK    6  A    between atoms: N_10  and  C_11
REMARK    7  A    between atoms: C_11  and  C_12
REMARK    8  A    between atoms: C_12  and  C_13
REMARK    9  A    between atoms: C_12  and  C_14
REMARK   10  A    between atoms: C_18  and  C_19
REMARK   11  A    between atoms: C_22  and  C_23
REMARK                            x       y       z     vdW  Elec       q    Type
REMARK                         _______ _______ _______ _____ _____    ______ ____
ROOT
ATOM      1  C   UNL     1      -5.056   4.141   0.038  0.00  0.00    +0.000 A 
ATOM      2  C   UNL     1      -5.780   3.622   1.117  0.00  0.00    +0.000 A 
ATOM      3  C   UNL     1      -7.170   3.757   1.174  0.00  0.00    +0.000 A 
ATOM      4  C   UNL     1      -7.850   4.471   0.180  0.00  0.00    +0.000 A 
ATOM      5  C   UNL     1      -7.163   5.025  -0.905  0.00  0.00    +0.000 A 
ATOM      6  C   UNL     1      -5.780   4.781  -0.979  0.00  0.00    +0.000 A 
ENDROOT
BRANCH   5   7
ATOM      7  C   UNL     1      -7.807   5.905  -1.906  0.00  0.00    +0.000 A 
ATOM      8  C   UNL     1      -7.102   6.969  -2.496  0.00  0.00    +0.000 A 
ATOM      9  C   UNL     1      -7.703   7.802  -3.437  0.00  0.00    +0.000 A 
ATOM     10  C   UNL     1      -9.032   7.584  -3.782  0.00  0.00    +0.000 A 
ATOM     11  N   UNL     1      -9.752   6.567  -3.225  0.00  0.00    +0.000 NA
ATOM     12  C   UNL     1      -9.128   5.767  -2.319  0.00  0.00    +0.000 A 
BRANCH  10  13
ATOM     13  C   UNL     1      -9.702   8.505  -4.793  0.00  0.00    +0.000 C 
ATOM     14  F   UNL     1      -8.855   9.451  -5.306  0.00  0.00    +0.000 F 
ATOM     15  F   UNL     1     -10.198   7.844  -5.879  0.00  0.00    +0.000 F 
ATOM     16  F   UNL     1     -10.747   9.208  -4.268  0.00  0.00    +0.000 F 
ENDBRANCH  10  13
ENDBRANCH   5   7
BRANCH   1  17
ATOM     17  C   UNL     1      -3.528   4.096   0.033  0.00  0.00    +0.000 C 
ATOM     18  C   UNL     1      -3.017   2.649   0.085  0.00  0.00    +0.000 C 
BRANCH  17  19
ATOM     19  C   UNL     1      -2.827   4.802  -1.158  0.00  0.00    +0.000 C 
BRANCH  19  20
ATOM     20  N   UNL     1      -3.058   6.236  -1.187  0.00  0.00    +0.000 N 
ATOM     21  H   UNL     1      -3.717   6.669  -0.550  0.00  0.00    +0.000 HD
BRANCH  20  27
ATOM     22  C   UNL     1      -3.149  10.617  -2.980  0.00  0.00    +0.000 C 
ATOM     23  C   UNL     1      -2.695   9.195  -3.121  0.00  0.00    +0.000 A 
ATOM     24  C   UNL     1      -1.882   8.817  -4.186  0.00  0.00    +0.000 A 
ATOM     25  C   UNL     1      -1.445   7.497  -4.266  0.00  0.00    +0.000 A 
ATOM     26  C   UNL     1      -1.864   6.612  -3.266  0.00  0.00    +0.000 A 
ATOM     27  C   UNL     1      -2.676   7.050  -2.226  0.00  0.00    +0.000 A 
ATOM     28  N   UNL     1      -3.105   8.325  -2.163  0.00  0.00    +0.000 NA
BRANCH  25  29
ATOM     29  C   UNL     1      -0.556   6.973  -5.379  0.00  0.00    +0.000 C 
ATOM     30  C   UNL     1      -1.396   6.544  -6.583  0.00  0.00    +0.000 C 
ATOM     31  C   UNL     1       0.543   7.950  -5.802  0.00  0.00    +0.000 C 
ENDBRANCH  25  29
ENDBRANCH  20  27
ENDBRANCH  19  20
ENDBRANCH  17  19
ENDBRANCH   1  17
TORSDOF 7
