REMARK  Name = 
REMARK  9 active torsions:
REMARK  status: ('A' for Active; 'I' for Inactive)
REMARK    1  A    between atoms: C_1  and  N_2
REMARK    2  A    between atoms: N_2  and  C_3
REMARK    3  A    between atoms: N_2  and  C_4
REMARK    4  A    between atoms: C_4  and  C_5
REMARK    5  A    between atoms: C_5  and  N_6
REMARK    6  A    between atoms: N_6  and  C_7
REMARK    7  A    between atoms: N_6  and  C_14
REMARK    8  A    between atoms: C_7  and  C_8
REMARK    9  A    between atoms: C_17  and  C_18
REMARK                            x       y       z     vdW  Elec       q    Type
REMARK                         _______ _______ _______ _____ _____    ______ ____
ROOT
ATOM      1  N   UNL     1       4.965   2.671  -0.702  0.00  0.00    +0.000 N 
ENDROOT
BRANCH   1   2
ATOM      2  C   UNL     1       6.323   2.999  -0.708  0.00  0.00    +0.000 A 
ATOM      3  C   UNL     1       6.834   3.913  -1.643  0.00  0.00    +0.000 A 
ATOM      4  C   UNL     1       8.188   4.255  -1.666  0.00  0.00    +0.000 A 
ATOM      5  C   UNL     1       9.025   3.666  -0.735  0.00  0.00    +0.000 A 
ATOM      6  N   UNL     1       8.599   2.779   0.200  0.00  0.00    +0.000 NA
ATOM      7  C   UNL     1       7.274   2.479   0.180  0.00  0.00    +0.000 A 
BRANCH   5   8
ATOM      8  C   UNL     1      10.490   3.992  -0.730  0.00  0.00    +0.000 C 
ATOM      9  N   UNL     1      11.221   3.360   0.241  0.00  0.00    +0.000 N 
ATOM     10  O   UNL     1      11.000   4.762  -1.528  0.00  0.00    +0.000 OA
ATOM     11  H   UNL     1      10.754   2.726   0.881  0.00  0.00    +0.000 HD
ATOM     12  H   UNL     1      12.213   3.523   0.304  0.00  0.00    +0.000 HD
ENDBRANCH   5   8
ENDBRANCH   1   2
BRANCH   1  13
ATOM     13  C   UNL     1       4.476   1.408  -0.091  0.00  0.00    +0.000 C 
BRANCH  13  14
ATOM     14  C   UNL     1       4.262   0.319  -1.173  0.00  0.00    +0.000 C 
BRANCH  14  16
ATOM     15  C   UNL     1       3.551  -1.880  -1.841  0.00  0.00    +0.000 C 
ATOM     16  N   UNL     1       3.919  -1.038  -0.692  0.00  0.00    +0.000 NA
ATOM     17  C   UNL     1       5.033  -1.668   0.019  0.00  0.00    +0.000 C 
ENDBRANCH  14  16
ENDBRANCH  13  14
ENDBRANCH   1  13
BRANCH   1  18
ATOM     18  C   UNL     1       4.014   3.801  -0.783  0.00  0.00    +0.000 C 
BRANCH  18  19
ATOM     19  C   UNL     1       3.325   3.978  -2.125  0.00  0.00    +0.000 A 
ATOM     20  C   UNL     1       3.427   3.062  -3.178  0.00  0.00    +0.000 A 
ATOM     21  C   UNL     1       2.634   3.182  -4.322  0.00  0.00    +0.000 A 
ATOM     22  C   UNL     1       1.759   4.255  -4.455  0.00  0.00    +0.000 A 
ATOM     23  C   UNL     1       1.707   5.228  -3.462  0.00  0.00    +0.000 A 
ATOM     24  C   UNL     1       2.479   5.088  -2.304  0.00  0.00    +0.000 A 
ENDBRANCH  18  19
ENDBRANCH   1  18
TORSDOF 7
