REMARK  Name = 
REMARK  4 active torsions:
REMARK  status: ('A' for Active; 'I' for Inactive)
REMARK    1  A    between atoms: C_2  and  C_4
REMARK    2  A    between atoms: N_8  and  C_9
REMARK    3  A    between atoms: C_9  and  C_10
REMARK    4  A    between atoms: C_14  and  C_15
REMARK                            x       y       z     vdW  Elec       q    Type
REMARK                         _______ _______ _______ _____ _____    ______ ____
ROOT
ATOM      1  C   UNL     1       6.164  -4.901   2.036  0.00  0.00    +0.000 C 
ENDROOT
BRANCH   1   6
ATOM      2  C   UNL     1       1.665  -4.937   4.187  0.00  0.00    +0.000 A 
ATOM      3  C   UNL     1       2.199  -5.362   2.998  0.00  0.00    +0.000 A 
ATOM      4  N   UNL     1       3.485  -5.163   2.647  0.00  0.00    +0.000 NA
ATOM      5  C   UNL     1       4.276  -4.530   3.527  0.00  0.00    +0.000 A 
ATOM      6  N   UNL     1       5.593  -4.303   3.217  0.00  0.00    +0.000 N 
ATOM      7  N   UNL     1       3.847  -4.075   4.713  0.00  0.00    +0.000 NA
ATOM      8  C   UNL     1       2.537  -4.262   5.009  0.00  0.00    +0.000 A 
ATOM      9  H   UNL     1       6.161  -4.163   4.039  0.00  0.00    +0.000 HD
BRANCH   2  11
ATOM     10  N   UNL     1      -0.370  -6.241   4.035  0.00  0.00    +0.000 N 
ATOM     11  C   UNL     1       0.263  -5.147   4.557  0.00  0.00    +0.000 C 
ATOM     12  O   UNL     1      -0.310  -4.386   5.329  0.00  0.00    +0.000 OA
ATOM     13  H   UNL     1      -1.310  -6.422   4.371  0.00  0.00    +0.000 HD
ATOM     14  H   UNL     1       0.120  -7.018   3.612  0.00  0.00    +0.000 HD
ENDBRANCH   2  11
ENDBRANCH   1   6
BRANCH   1  15
ATOM     15  C   UNL     1       6.639  -6.311   2.255  0.00  0.00    +0.000 A 
ATOM     16  C   UNL     1       5.811  -7.396   1.995  0.00  0.00    +0.000 A 
ATOM     17  N   UNL     1       6.195  -8.685   2.112  0.00  0.00    +0.000 NA
ATOM     18  C   UNL     1       7.472  -8.903   2.508  0.00  0.00    +0.000 A 
ATOM     19  C   UNL     1       8.404  -7.908   2.818  0.00  0.00    +0.000 A 
ATOM     20  C   UNL     1       7.943  -6.588   2.688  0.00  0.00    +0.000 A 
BRANCH  19  21
ATOM     21  C   UNL     1       9.788  -8.225   3.237  0.00  0.00    +0.000 A 
ATOM     22  C   UNL     1      10.084  -9.385   3.981  0.00  0.00    +0.000 A 
ATOM     23  C   UNL     1      11.393  -9.696   4.370  0.00  0.00    +0.000 A 
ATOM     24  C   UNL     1      12.438  -8.843   4.032  0.00  0.00    +0.000 A 
ATOM     25  C   UNL     1      12.164  -7.695   3.306  0.00  0.00    +0.000 A 
ATOM     26  F   UNL     1      13.166  -6.867   2.980  0.00  0.00    +0.000 F 
ATOM     27  C   UNL     1      10.866  -7.385   2.906  0.00  0.00    +0.000 A 
ENDBRANCH  19  21
ENDBRANCH   1  15
TORSDOF 4
