REMARK  Name = 
REMARK  4 active torsions:
REMARK  status: ('A' for Active; 'I' for Inactive)
REMARK    1  A    between atoms: C_2  and  C_4
REMARK    2  A    between atoms: N_8  and  C_9
REMARK    3  A    between atoms: C_9  and  C_10
REMARK    4  A    between atoms: C_14  and  C_15
REMARK                            x       y       z     vdW  Elec       q    Type
REMARK                         _______ _______ _______ _____ _____    ______ ____
ROOT
ATOM      1  C   UNL     1       5.028  -2.863  -5.185  0.00  0.00    +0.000 C 
ATOM      2  C   UNL     1       5.166  -1.718  -6.179  0.00  0.00    +0.000 C 
ATOM      3  C   UNL     1       3.849  -2.399  -6.016  0.00  0.00    +0.000 C 
ENDROOT
BRANCH   1   8
ATOM      4  C   UNL     1       3.176  -3.477  -0.352  0.00  0.00    +0.000 A 
ATOM      5  C   UNL     1       2.463  -3.281  -1.530  0.00  0.00    +0.000 A 
ATOM      6  C   UNL     1       3.155  -2.961  -2.704  0.00  0.00    +0.000 A 
ATOM      7  C   UNL     1       4.535  -2.853  -2.678  0.00  0.00    +0.000 A 
ATOM      8  N   UNL     1       5.291  -2.455  -3.789  0.00  0.00    +0.000 N 
ATOM      9  N   UNL     1       5.239  -3.022  -1.533  0.00  0.00    +0.000 NA
ATOM     10  C   UNL     1       4.550  -3.319  -0.395  0.00  0.00    +0.000 A 
ATOM     11  H   UNL     1       6.260  -2.543  -3.490  0.00  0.00    +0.000 HD
BRANCH   4  13
ATOM     12  N   UNL     1       1.316  -4.466   0.849  0.00  0.00    +0.000 N 
ATOM     13  C   UNL     1       2.508  -3.799   0.927  0.00  0.00    +0.000 C 
ATOM     14  O   UNL     1       3.006  -3.504   2.004  0.00  0.00    +0.000 OA
ATOM     15  H   UNL     1       0.897  -4.755   1.723  0.00  0.00    +0.000 HD
ATOM     16  H   UNL     1       1.007  -4.934   0.008  0.00  0.00    +0.000 HD
ENDBRANCH   4  13
ENDBRANCH   1   8
BRANCH   1  17
ATOM     17  C   UNL     1       5.621  -4.227  -5.513  0.00  0.00    +0.000 A 
ATOM     18  C   UNL     1       6.925  -4.370  -6.010  0.00  0.00    +0.000 A 
ATOM     19  C   UNL     1       7.518  -5.624  -6.130  0.00  0.00    +0.000 A 
ATOM     20  C   UNL     1       6.818  -6.763  -5.738  0.00  0.00    +0.000 A 
ATOM     21  C   UNL     1       5.507  -6.677  -5.241  0.00  0.00    +0.000 A 
ATOM     22  C   UNL     1       4.917  -5.402  -5.184  0.00  0.00    +0.000 A 
BRANCH  21  23
ATOM     23  C   UNL     1       4.825  -7.854  -4.675  0.00  0.00    +0.000 A 
ATOM     24  C   UNL     1       3.443  -8.057  -4.767  0.00  0.00    +0.000 A 
ATOM     25  N   UNL     1       2.764  -9.086  -4.195  0.00  0.00    +0.000 NA
ATOM     26  C   UNL     1       3.504  -9.974  -3.494  0.00  0.00    +0.000 A 
ATOM     27  C   UNL     1       4.873  -9.876  -3.348  0.00  0.00    +0.000 A 
ATOM     28  F   UNL     1       5.555 -10.781  -2.636  0.00  0.00    +0.000 F 
ATOM     29  C   UNL     1       5.537  -8.811  -3.935  0.00  0.00    +0.000 A 
ENDBRANCH  21  23
ENDBRANCH   1  17
TORSDOF 4
