REMARK  Name = 
REMARK  9 active torsions:
REMARK  status: ('A' for Active; 'I' for Inactive)
REMARK    1  A    between atoms: C_1  and  C_2
REMARK    2  A    between atoms: C_2  and  C_24
REMARK    3  A    between atoms: C_3  and  C_4
REMARK    4  A    between atoms: C_7  and  C_8
REMARK    5  A    between atoms: C_8  and  N_9
REMARK    6  A    between atoms: C_10  and  C_12
REMARK    7  A    between atoms: N_26  and  C_27
REMARK    8  A    between atoms: C_27  and  C_28
REMARK    9  A    between atoms: C_28  and  N_29
REMARK                            x       y       z     vdW  Elec       q    Type
REMARK                         _______ _______ _______ _____ _____    ______ ____
ROOT
ATOM      1  C   UNL     1       2.630   1.687   1.764  0.00  0.00    +0.000 A 
ATOM      2  C   UNL     1       1.558   1.241   2.545  0.00  0.00    +0.000 A 
ATOM      3  C   UNL     1       0.962   2.087   3.487  0.00  0.00    +0.000 A 
ATOM      4  C   UNL     1       1.420   3.400   3.656  0.00  0.00    +0.000 A 
ATOM      5  C   UNL     1       2.509   3.836   2.887  0.00  0.00    +0.000 A 
ATOM      6  C   UNL     1       3.105   2.989   1.942  0.00  0.00    +0.000 A 
ENDROOT
BRANCH   1   9
ATOM      7  C   UNL     1       1.790   1.441  -1.164  0.00  0.00    +0.000 C 
ATOM      8  C   UNL     1       2.880   0.641  -0.495  0.00  0.00    +0.000 C 
ATOM      9  C   UNL     1       3.251   0.773   0.795  0.00  0.00    +0.000 C 
BRANCH   8  10
ATOM     10  C   UNL     1       3.482  -0.398  -1.405  0.00  0.00    +0.000 C 
ATOM     11  O   UNL     1       2.888  -0.740  -2.426  0.00  0.00    +0.000 OA
ATOM     12  N   UNL     1       4.716  -0.905  -1.078  0.00  0.00    +0.000 N 
ATOM     13  H   UNL     1       5.217  -0.614  -0.251  0.00  0.00    +0.000 HD
BRANCH  12  14
ATOM     14  C   UNL     1       5.337  -1.902  -1.933  0.00  0.00    +0.000 C 
BRANCH  14  15
ATOM     15  C   UNL     1       6.709  -2.398  -1.436  0.00  0.00    +0.000 C 
BRANCH  15  16
ATOM     16  N   UNL     1       6.721  -2.925  -0.055  0.00  0.00    +0.000 NA
ATOM     17  C   UNL     1       5.955  -4.172   0.085  0.00  0.00    +0.000 C 
ATOM     18  C   UNL     1       6.909  -5.279  -0.330  0.00  0.00    +0.000 C 
ATOM     19  O   UNL     1       8.229  -4.747  -0.170  0.00  0.00    +0.000 OA
ATOM     20  C   UNL     1       8.071  -3.400   0.277  0.00  0.00    +0.000 C 
ENDBRANCH  15  16
ENDBRANCH  14  15
ENDBRANCH  12  14
ENDBRANCH   8  10
ENDBRANCH   1   9
BRANCH   4  21
ATOM     21  C   UNL     1       0.782   4.318   4.669  0.00  0.00    +0.000 C 
BRANCH  21  22
ATOM     22  N   UNL     1       1.433   4.217   5.951  0.00  0.00    +0.000 N 
ATOM     23  C   UNL     1       0.962   4.900   7.045  0.00  0.00    +0.000 C 
ATOM     24  O   UNL     1      -0.054   5.586   6.995  0.00  0.00    +0.000 OA
ATOM     25  H   UNL     1       2.381   3.855   5.959  0.00  0.00    +0.000 HD
BRANCH  23  26
ATOM     26  C   UNL     1       1.705   4.720   8.300  0.00  0.00    +0.000 A 
ATOM     27  C   UNL     1       1.071   4.948   9.513  0.00  0.00    +0.000 A 
ATOM     28  S   UNL     1       2.056   4.641  10.871  0.00  0.00    +0.000 S 
ATOM     29  C   UNL     1       3.385   4.246   9.884  0.00  0.00    +0.000 A 
ATOM     30  N   UNL     1       4.583   3.904  10.430  0.00  0.00    +0.000 NA
ATOM     31  C   UNL     1       5.513   3.662   9.568  0.00  0.00    +0.000 A 
ATOM     32  N   UNL     1       5.349   3.724   8.207  0.00  0.00    +0.000 N 
ATOM     33  C   UNL     1       4.152   4.032   7.612  0.00  0.00    +0.000 A 
ATOM     34  O   UNL     1       4.029   4.033   6.391  0.00  0.00    +0.000 OA
ATOM     35  C   UNL     1       3.074   4.329   8.538  0.00  0.00    +0.000 A 
ATOM     36  H   UNL     1       6.116   3.515   7.584  0.00  0.00    +0.000 HD
ENDBRANCH  23  26
ENDBRANCH  21  22
ENDBRANCH   4  21
TORSDOF 8
