REMARK  Name = 
REMARK  9 active torsions:
REMARK  status: ('A' for Active; 'I' for Inactive)
REMARK    1  A    between atoms: C_1  and  N_2
REMARK    2  A    between atoms: N_2  and  C_3
REMARK    3  A    between atoms: C_3  and  C_4
REMARK    4  A    between atoms: C_7  and  C_8
REMARK    5  A    between atoms: C_8  and  C_9
REMARK    6  A    between atoms: C_9  and  O_10
REMARK    7  A    between atoms: C_9  and  C_11
REMARK    8  A    between atoms: C_11  and  C_12
REMARK    9  A    between atoms: C_20  and  C_22
REMARK                            x       y       z     vdW  Elec       q    Type
REMARK                         _______ _______ _______ _____ _____    ______ ____
ROOT
ATOM      1  C   UNL     1       2.303  -0.497   2.384  0.00  0.00    +0.000 A 
ATOM      2  C   UNL     1       2.114  -1.837   2.716  0.00  0.00    +0.000 A 
ATOM      3  C   UNL     1       1.268  -2.174   3.770  0.00  0.00    +0.000 A 
ATOM      4  C   UNL     1       0.618  -1.157   4.461  0.00  0.00    +0.000 A 
ATOM      5  N   UNL     1       0.763   0.149   4.134  0.00  0.00    +0.000 NA
ATOM      6  C   UNL     1       1.612   0.452   3.129  0.00  0.00    +0.000 A 
ENDROOT
BRANCH   1   7
ATOM      7  C   UNL     1       3.204  -0.081   1.259  0.00  0.00    +0.000 C 
BRANCH   7   9
ATOM      8  C   UNL     1       5.129  -0.107   2.906  0.00  0.00    +0.000 C 
ATOM      9  N   UNL     1       4.639   0.022   1.537  0.00  0.00    +0.000 N 
ATOM     10  C   UNL     1       5.620   0.031   0.527  0.00  0.00    +0.000 C 
ATOM     11  O   UNL     1       6.815  -0.060   0.800  0.00  0.00    +0.000 OA
BRANCH  10  12
ATOM     12  C   UNL     1       5.209   0.189  -0.875  0.00  0.00    +0.000 A 
ATOM     13  C   UNL     1       4.288   1.123  -1.323  0.00  0.00    +0.000 A 
ATOM     14  S   UNL     1       4.061   1.104  -3.014  0.00  0.00    +0.000 S 
ATOM     15  C   UNL     1       5.299  -0.045  -3.218  0.00  0.00    +0.000 A 
ATOM     16  N   UNL     1       5.697  -0.432  -4.457  0.00  0.00    +0.000 NA
ATOM     17  C   UNL     1       6.695  -1.252  -4.462  0.00  0.00    +0.000 A 
ATOM     18  N   UNL     1       7.299  -1.750  -3.336  0.00  0.00    +0.000 N 
ATOM     19  C   UNL     1       6.834  -1.502  -2.064  0.00  0.00    +0.000 A 
ATOM     20  O   UNL     1       7.239  -2.152  -1.104  0.00  0.00    +0.000 OA
ATOM     21  C   UNL     1       5.803  -0.481  -2.007  0.00  0.00    +0.000 A 
ATOM     22  H   UNL     1       8.031  -2.443  -3.409  0.00  0.00    +0.000 HD
ENDBRANCH  10  12
ENDBRANCH   7   9
ENDBRANCH   1   7
BRANCH   4  23
ATOM     23  C   UNL     1      -0.355  -1.457   5.577  0.00  0.00    +0.000 C 
BRANCH  23  24
ATOM     24  C   UNL     1      -1.822  -1.512   5.106  0.00  0.00    +0.000 C 
BRANCH  24  25
ATOM     25  O   UNL     1      -2.210  -0.261   4.518  0.00  0.00    +0.000 OA
ATOM     26  H   UNL     1      -1.466   0.058   3.971  0.00  0.00    +0.000 HD
ENDBRANCH  24  25
BRANCH  24  27
ATOM     27  C   UNL     1      -2.082  -2.670   4.134  0.00  0.00    +0.000 C 
BRANCH  27  28
ATOM     28  C   UNL     1      -3.540  -2.812   3.779  0.00  0.00    +0.000 A 
ATOM     29  C   UNL     1      -4.056  -2.129   2.678  0.00  0.00    +0.000 A 
ATOM     30  C   UNL     1      -5.401  -2.274   2.362  0.00  0.00    +0.000 A 
ATOM     31  C   UNL     1      -6.196  -3.088   3.159  0.00  0.00    +0.000 A 
ATOM     32  C   UNL     1      -5.610  -3.723   4.243  0.00  0.00    +0.000 A 
ATOM     33  N   UNL     1      -4.302  -3.613   4.565  0.00  0.00    +0.000 NA
ENDBRANCH  27  28
ENDBRANCH  24  27
ENDBRANCH  23  24
ENDBRANCH   4  23
TORSDOF 8
