REMARK  Name = 
REMARK  9 active torsions:
REMARK  status: ('A' for Active; 'I' for Inactive)
REMARK    1  A    between atoms: C_1  and  O_2
REMARK    2  A    between atoms: O_2  and  C_3
REMARK    3  A    between atoms: C_10  and  C_11
REMARK    4  A    between atoms: N_13  and  C_14
REMARK    5  A    between atoms: C_14  and  C_15
REMARK    6  A    between atoms: C_18  and  C_19
REMARK    7  A    between atoms: C_19  and  N_20
REMARK    8  A    between atoms: N_20  and  C_21
REMARK    9  A    between atoms: C_21  and  C_22
REMARK                            x       y       z     vdW  Elec       q    Type
REMARK                         _______ _______ _______ _____ _____    ______ ____
ROOT
ATOM      1  C   UNL     1       1.525   2.288  -2.303  0.00  0.00    +0.000 A 
ATOM      2  C   UNL     1       1.528   0.922  -2.615  0.00  0.00    +0.000 A 
ATOM      3  C   UNL     1       0.377   0.300  -3.120  0.00  0.00    +0.000 A 
ATOM      4  C   UNL     1      -0.800   1.030  -3.341  0.00  0.00    +0.000 A 
ATOM      5  C   UNL     1      -0.782   2.408  -3.083  0.00  0.00    +0.000 A 
ATOM      6  C   UNL     1       0.367   3.029  -2.574  0.00  0.00    +0.000 A 
ENDROOT
BRANCH   1   7
ATOM      7  C   UNL     1       2.749   2.951  -1.714  0.00  0.00    +0.000 C 
BRANCH   7  10
ATOM      8  C   UNL     1       4.794   4.109  -2.488  0.00  0.00    +0.000 C 
ATOM      9  O   UNL     1       5.198   4.267  -1.335  0.00  0.00    +0.000 OA
ATOM     10  N   UNL     1       3.607   3.478  -2.744  0.00  0.00    +0.000 N 
ATOM     11  H   UNL     1       3.278   3.396  -3.695  0.00  0.00    +0.000 HD
BRANCH   8  19
ATOM     12  C   UNL     1       4.293   3.931  -5.886  0.00  0.00    +0.000 A 
ATOM     13  N   UNL     1       4.338   4.007  -7.230  0.00  0.00    +0.000 NA
ATOM     14  C   UNL     1       5.389   4.613  -7.787  0.00  0.00    +0.000 A 
ATOM     15  N   UNL     1       6.422   5.165  -7.158  0.00  0.00    +0.000 NA
ATOM     16  C   UNL     1       6.331   5.078  -5.819  0.00  0.00    +0.000 A 
ATOM     17  S   UNL     1       7.560   5.735  -4.850  0.00  0.00    +0.000 S 
ATOM     18  C   UNL     1       6.766   5.252  -3.426  0.00  0.00    +0.000 A 
ATOM     19  C   UNL     1       5.565   4.589  -3.649  0.00  0.00    +0.000 A 
ATOM     20  C   UNL     1       5.307   4.488  -5.086  0.00  0.00    +0.000 A 
BRANCH  12  22
ATOM     21  C   UNL     1       2.580   2.365  -6.163  0.00  0.00    +0.000 C 
ATOM     22  O   UNL     1       3.194   3.329  -5.312  0.00  0.00    +0.000 OA
ENDBRANCH  12  22
ENDBRANCH   8  19
ENDBRANCH   7  10
ENDBRANCH   1   7
BRANCH   4  23
ATOM     23  C   UNL     1      -2.056   0.348  -3.853  0.00  0.00    +0.000 C 
BRANCH  23  24
ATOM     24  N   UNL     1      -2.489  -0.715  -2.946  0.00  0.00    +0.000 NA
ATOM     25  H   UNL     1      -2.658  -0.312  -2.024  0.00  0.00    +0.000 HD
BRANCH  24  26
ATOM     26  C   UNL     1      -3.714  -1.375  -3.402  0.00  0.00    +0.000 C 
BRANCH  26  27
ATOM     27  C   UNL     1      -4.135  -2.450  -2.422  0.00  0.00    +0.000 A 
ATOM     28  C   UNL     1      -3.273  -3.521  -2.122  0.00  0.00    +0.000 A 
ATOM     29  C   UNL     1      -3.628  -4.486  -1.174  0.00  0.00    +0.000 A 
ATOM     30  C   UNL     1      -4.856  -4.401  -0.523  0.00  0.00    +0.000 A 
ATOM     31  C   UNL     1      -5.724  -3.362  -0.839  0.00  0.00    +0.000 A 
ATOM     32  F   UNL     1      -6.910  -3.285  -0.220  0.00  0.00    +0.000 F 
ATOM     33  C   UNL     1      -5.380  -2.394  -1.780  0.00  0.00    +0.000 A 
ENDBRANCH  26  27
ENDBRANCH  24  26
ENDBRANCH  23  24
ENDBRANCH   4  23
TORSDOF 8
