REMARK  Name = 
REMARK  8 active torsions:
REMARK  status: ('A' for Active; 'I' for Inactive)
REMARK    1  A    between atoms: C_1  and  C_2
REMARK    2  A    between atoms: C_2  and  N_3
REMARK    3  A    between atoms: C_2  and  C_26
REMARK    4  A    between atoms: N_3  and  C_4
REMARK    5  A    between atoms: C_4  and  C_5
REMARK    6  A    between atoms: C_10  and  C_11
REMARK    7  A    between atoms: C_11  and  N_12
REMARK    8  A    between atoms: C_13  and  C_15
REMARK                            x       y       z     vdW  Elec       q    Type
REMARK                         _______ _______ _______ _____ _____    ______ ____
ROOT
ATOM      1  C   UNL     1      -1.018  -0.248  -1.459  0.00  0.00    +0.000 A 
ATOM      2  C   UNL     1      -1.725  -1.159  -0.666  0.00  0.00    +0.000 A 
ATOM      3  C   UNL     1      -3.113  -1.201  -0.736  0.00  0.00    +0.000 A 
ATOM      4  F   UNL     1      -3.782  -2.089   0.012  0.00  0.00    +0.000 F 
ATOM      5  C   UNL     1      -3.821  -0.362  -1.592  0.00  0.00    +0.000 A 
ATOM      6  C   UNL     1      -3.137   0.551  -2.401  0.00  0.00    +0.000 A 
ATOM      7  C   UNL     1      -1.738   0.618  -2.305  0.00  0.00    +0.000 A 
ENDROOT
BRANCH   1   8
ATOM      8  C   UNL     1       0.493  -0.221  -1.465  0.00  0.00    +0.000 C 
BRANCH   8   9
ATOM      9  N   UNL     1       0.996   1.073  -1.031  0.00  0.00    +0.000 NA
ATOM     10  H   UNL     1       0.662   1.262  -0.085  0.00  0.00    +0.000 HD
BRANCH   9  12
ATOM     11  C   UNL     1       3.125   0.865  -2.368  0.00  0.00    +0.000 C 
ATOM     12  C   UNL     1       2.468   1.171  -1.014  0.00  0.00    +0.000 C 
BRANCH  12  13
ATOM     13  C   UNL     1       2.873   2.567  -0.540  0.00  0.00    +0.000 A 
ATOM     14  C   UNL     1       2.466   3.698  -1.251  0.00  0.00    +0.000 A 
ATOM     15  C   UNL     1       2.801   4.958  -0.770  0.00  0.00    +0.000 A 
ATOM     16  C   UNL     1       3.524   5.061   0.411  0.00  0.00    +0.000 A 
ATOM     17  C   UNL     1       3.884   3.893   1.063  0.00  0.00    +0.000 A 
ATOM     18  N   UNL     1       3.580   2.653   0.616  0.00  0.00    +0.000 NA
ENDBRANCH  12  13
ENDBRANCH   9  12
ENDBRANCH   8   9
ENDBRANCH   1   8
BRANCH   6  19
ATOM     19  C   UNL     1      -3.882   1.428  -3.369  0.00  0.00    +0.000 C 
BRANCH  19  20
ATOM     20  N   UNL     1      -4.320   2.658  -2.764  0.00  0.00    +0.000 N 
ATOM     21  C   UNL     1      -3.609   3.822  -2.883  0.00  0.00    +0.000 C 
ATOM     22  O   UNL     1      -2.542   3.885  -3.492  0.00  0.00    +0.000 OA
ATOM     23  H   UNL     1      -5.057   2.594  -2.068  0.00  0.00    +0.000 HD
BRANCH  21  24
ATOM     24  C   UNL     1      -4.226   5.024  -2.311  0.00  0.00    +0.000 A 
ATOM     25  C   UNL     1      -3.912   6.273  -2.831  0.00  0.00    +0.000 A 
ATOM     26  S   UNL     1      -4.716   7.559  -2.053  0.00  0.00    +0.000 S 
ATOM     27  C   UNL     1      -5.489   6.495  -0.973  0.00  0.00    +0.000 A 
ATOM     28  N   UNL     1      -6.308   6.962   0.005  0.00  0.00    +0.000 NA
ATOM     29  C   UNL     1      -6.799   6.049   0.774  0.00  0.00    +0.000 A 
ATOM     30  N   UNL     1      -6.559   4.704   0.641  0.00  0.00    +0.000 N 
ATOM     31  C   UNL     1      -5.790   4.181  -0.374  0.00  0.00    +0.000 A 
ATOM     32  O   UNL     1      -5.695   2.970  -0.537  0.00  0.00    +0.000 OA
ATOM     33  C   UNL     1      -5.170   5.173  -1.229  0.00  0.00    +0.000 A 
ATOM     34  H   UNL     1      -6.999   4.037   1.255  0.00  0.00    +0.000 HD
ENDBRANCH  21  24
ENDBRANCH  19  20
ENDBRANCH   6  19
TORSDOF 7
