REMARK  Name = 
REMARK  5 active torsions:
REMARK  status: ('A' for Active; 'I' for Inactive)
REMARK    1  A    between atoms: N_1  and  C_2
REMARK    2  A    between atoms: C_2  and  C_3
REMARK    3  A    between atoms: C_6  and  O_7
REMARK    4  A    between atoms: O_7  and  C_8
REMARK    5  A    between atoms: C_8  and  C_9
REMARK                            x       y       z     vdW  Elec       q    Type
REMARK                         _______ _______ _______ _____ _____    ______ ____
ROOT
ATOM      1  C   UNL     1       2.931   1.337  -0.411  0.00  0.00    +0.000 A 
ATOM      2  C   UNL     1       2.182   2.473  -0.081  0.00  0.00    +0.000 A 
ATOM      3  C   UNL     1       2.585   3.747  -0.496  0.00  0.00    +0.000 A 
ATOM      4  C   UNL     1       3.754   3.906  -1.243  0.00  0.00    +0.000 A 
ATOM      5  C   UNL     1       4.499   2.777  -1.585  0.00  0.00    +0.000 A 
ATOM      6  C   UNL     1       4.098   1.503  -1.166  0.00  0.00    +0.000 A 
ENDROOT
BRANCH   1   7
ATOM      7  C   UNL     1       2.495  -0.029   0.057  0.00  0.00    +0.000 C 
BRANCH   7   8
ATOM      8  N   UNL     1       1.160  -0.367  -0.423  0.00  0.00    +0.000 NA
ATOM      9  H   UNL     1       0.934  -1.318  -0.140  0.00  0.00    +0.000 HD
ATOM     10  H   UNL     1       1.170  -0.365  -1.443  0.00  0.00    +0.000 HD
ENDBRANCH   7   8
ENDBRANCH   1   7
BRANCH   4  11
ATOM     11  O   UNL     1       4.230   5.100  -1.720  0.00  0.00    +0.000 OA
BRANCH  11  12
ATOM     12  C   UNL     1       3.893   6.245  -0.934  0.00  0.00    +0.000 C 
BRANCH  12  13
ATOM     13  C   UNL     1       4.490   7.502  -1.510  0.00  0.00    +0.000 A 
ATOM     14  C   UNL     1       4.853   8.564  -0.674  0.00  0.00    +0.000 A 
ATOM     15  C   UNL     1       5.316   9.756  -1.223  0.00  0.00    +0.000 A 
ATOM     16  C   UNL     1       5.391   9.856  -2.601  0.00  0.00    +0.000 A 
ATOM     17  N   UNL     1       5.041   8.861  -3.444  0.00  0.00    +0.000 NA
ATOM     18  C   UNL     1       4.595   7.712  -2.882  0.00  0.00    +0.000 A 
ENDBRANCH  12  13
ENDBRANCH  11  12
ENDBRANCH   4  11
TORSDOF 5
