REMARK  Name = 
REMARK  10 active torsions:
REMARK  status: ('A' for Active; 'I' for Inactive)
REMARK    1  A    between atoms: C_1  and  C_2
REMARK    2  A    between atoms: C_2  and  N_3
REMARK    3  A    between atoms: N_3  and  C_4
REMARK    4  A    between atoms: N_3  and  C_17
REMARK    5  A    between atoms: C_4  and  C_5
REMARK    6  A    between atoms: C_5  and  C_6
REMARK    7  A    between atoms: C_5  and  C_7
REMARK    8  A    between atoms: C_5  and  C_8
REMARK    9  A    between atoms: C_12  and  C_13
REMARK   10  A    between atoms: C_20  and  C_21
REMARK                            x       y       z     vdW  Elec       q    Type
REMARK                         _______ _______ _______ _____ _____    ______ ____
ROOT
ATOM      1  N   UNL     1       2.934   0.400   1.060  0.00  0.00    +0.000 N 
ENDROOT
BRANCH   1   2
ATOM      2  C   UNL     1       3.425   1.312   0.102  0.00  0.00    +0.000 A 
ATOM      3  C   UNL     1       3.457   0.996  -1.272  0.00  0.00    +0.000 A 
ATOM      4  C   UNL     1       3.960   1.880  -2.234  0.00  0.00    +0.000 A 
ATOM      5  C   UNL     1       4.461   3.124  -1.856  0.00  0.00    +0.000 A 
ATOM      6  C   UNL     1       4.440   3.455  -0.501  0.00  0.00    +0.000 A 
ATOM      7  F   UNL     1       4.905   4.639  -0.073  0.00  0.00    +0.000 F 
ATOM      8  C   UNL     1       3.934   2.567   0.459  0.00  0.00    +0.000 A 
BRANCH   5   9
ATOM      9  C   UNL     1       4.995   4.017  -2.916  0.00  0.00    +0.000 C 
ATOM     10  N   UNL     1       5.496   5.224  -2.535  0.00  0.00    +0.000 N 
ATOM     11  O   UNL     1       4.986   3.680  -4.097  0.00  0.00    +0.000 OA
ATOM     12  H   UNL     1       5.519   5.532  -1.570  0.00  0.00    +0.000 HD
ATOM     13  H   UNL     1       5.866   5.834  -3.244  0.00  0.00    +0.000 HD
ENDBRANCH   5   9
ENDBRANCH   1   2
BRANCH   1  15
ATOM     14  C   UNL     1       3.049  -2.061   1.798  0.00  0.00    +0.000 C 
ATOM     15  C   UNL     1       3.044  -1.025   0.686  0.00  0.00    +0.000 C 
ENDBRANCH   1  15
BRANCH   1  16
ATOM     16  C   UNL     1       2.036   0.918   2.136  0.00  0.00    +0.000 C 
BRANCH  16  17
ATOM     17  C   UNL     1       0.475   0.875   1.889  0.00  0.00    +0.000 C 
ATOM     18  C   UNL     1       0.125   1.384   0.475  0.00  0.00    +0.000 C 
ATOM     19  C   UNL     1       0.003  -0.585   2.053  0.00  0.00    +0.000 C 
BRANCH  17  20
ATOM     20  C   UNL     1      -0.375   1.725   2.891  0.00  0.00    +0.000 A 
ATOM     21  C   UNL     1       0.175   2.576   3.862  0.00  0.00    +0.000 A 
ATOM     22  C   UNL     1      -0.645   3.301   4.742  0.00  0.00    +0.000 A 
ATOM     23  C   UNL     1      -2.033   3.189   4.678  0.00  0.00    +0.000 A 
ATOM     24  C   UNL     1      -2.616   2.367   3.717  0.00  0.00    +0.000 A 
ATOM     25  C   UNL     1      -1.791   1.653   2.834  0.00  0.00    +0.000 A 
BRANCH  24  26
ATOM     26  C   UNL     1      -4.100   2.239   3.690  0.00  0.00    +0.000 C 
ATOM     27  N   UNL     1      -4.682   1.839   2.518  0.00  0.00    +0.000 N 
ATOM     28  O   UNL     1      -4.786   2.501   4.669  0.00  0.00    +0.000 OA
ATOM     29  H   UNL     1      -4.196   1.853   1.634  0.00  0.00    +0.000 HD
ATOM     30  H   UNL     1      -5.694   1.845   2.497  0.00  0.00    +0.000 HD
ENDBRANCH  24  26
ENDBRANCH  17  20
ENDBRANCH  16  17
ENDBRANCH   1  16
TORSDOF 7
