REMARK  Name = 
REMARK  7 active torsions:
REMARK  status: ('A' for Active; 'I' for Inactive)
REMARK    1  A    between atoms: C_2  and  C_3
REMARK    2  A    between atoms: C_6  and  N_7
REMARK    3  A    between atoms: N_7  and  C_8
REMARK    4  A    between atoms: C_8  and  C_9
REMARK    5  A    between atoms: C_9  and  C_11
REMARK    6  A    between atoms: C_15  and  O_16
REMARK    7  A    between atoms: O_16  and  C_17
REMARK                            x       y       z     vdW  Elec       q    Type
REMARK                         _______ _______ _______ _____ _____    ______ ____
ROOT
ATOM      1  C   UNL     1       5.976  -1.048   0.319  0.00  0.00    +0.000 C 
ATOM      2  F   UNL     1       6.712   0.082   0.576  0.00  0.00    +0.000 F 
ENDROOT
BRANCH   1   3
ATOM      3  C   UNL     1       6.812  -2.311   0.391  0.00  0.00    +0.000 A 
ATOM      4  C   UNL     1       8.182  -2.250   0.670  0.00  0.00    +0.000 A 
ATOM      5  C   UNL     1       8.913  -3.425   0.871  0.00  0.00    +0.000 A 
ATOM      6  C   UNL     1       8.293  -4.678   0.774  0.00  0.00    +0.000 A 
ATOM      7  C   UNL     1       6.943  -4.754   0.442  0.00  0.00    +0.000 A 
ATOM      8  C   UNL     1       6.211  -3.575   0.264  0.00  0.00    +0.000 A 
BRANCH   7   9
ATOM      9  O   UNL     1       6.204  -5.906   0.322  0.00  0.00    +0.000 OA
BRANCH   9  10
ATOM     10  C   UNL     1       6.859  -7.165   0.056  0.00  0.00    +0.000 C 
ATOM     11  C   UNL     1       7.476  -7.365  -1.349  0.00  0.00    +0.000 C 
ATOM     12  C   UNL     1       6.859  -8.772  -1.389  0.00  0.00    +0.000 C 
ATOM     13  C   UNL     1       5.891  -8.333  -0.282  0.00  0.00    +0.000 C 
ENDBRANCH   9  10
ENDBRANCH   7   9
ENDBRANCH   1   3
BRANCH   1  14
ATOM     14  C   UNL     1       5.278  -0.850  -1.045  0.00  0.00    +0.000 C 
BRANCH  14  15
ATOM     15  N   UNL     1       4.452   0.369  -1.038  0.00  0.00    +0.000 N 
ATOM     16  H   UNL     1       4.937   1.152  -0.599  0.00  0.00    +0.000 HD
BRANCH  15  20
ATOM     17  C   UNL     1       1.991   1.564  -4.261  0.00  0.00    +0.000 A 
ATOM     18  C   UNL     1       2.368   0.227  -4.140  0.00  0.00    +0.000 A 
ATOM     19  C   UNL     1       3.228  -0.176  -3.108  0.00  0.00    +0.000 A 
ATOM     20  C   UNL     1       3.735   0.740  -2.178  0.00  0.00    +0.000 A 
ATOM     21  C   UNL     1       3.351   2.083  -2.324  0.00  0.00    +0.000 A 
ATOM     22  C   UNL     1       2.498   2.498  -3.358  0.00  0.00    +0.000 A 
BRANCH  17  24
ATOM     23  N   UNL     1       0.317   2.294  -6.106  0.00  0.00    +0.000 NA
ATOM     24  C   UNL     1       1.064   1.970  -5.283  0.00  0.00    +0.000 C 
ENDBRANCH  17  24
ENDBRANCH  15  20
ENDBRANCH  14  15
ENDBRANCH   1  14
TORSDOF 7
