REMARK  Name = 
REMARK  9 active torsions:
REMARK  status: ('A' for Active; 'I' for Inactive)
REMARK    1  A    between atoms: C_1  and  O_2
REMARK    2  A    between atoms: O_2  and  C_3
REMARK    3  A    between atoms: C_6  and  C_7
REMARK    4  A    between atoms: C_7  and  C_8
REMARK    5  A    between atoms: C_7  and  C_9
REMARK    6  A    between atoms: C_7  and  C_10
REMARK    7  A    between atoms: C_10  and  N_11
REMARK    8  A    between atoms: C_15  and  C_16
REMARK    9  A    between atoms: C_22  and  C_23
REMARK                            x       y       z     vdW  Elec       q    Type
REMARK                         _______ _______ _______ _____ _____    ______ ____
ROOT
ATOM      1  C   UNL     1       5.353  -4.749  -1.121  0.00  0.00    +0.000 C 
ATOM      2  C   UNL     1       6.817  -4.377  -1.445  0.00  0.00    +0.000 C 
ATOM      3  C   UNL     1       5.348  -5.625   0.162  0.00  0.00    +0.000 C 
ENDROOT
BRANCH   1   7
ATOM      4  C   UNL     1       2.983  -1.175  -0.185  0.00  0.00    +0.000 A 
ATOM      5  C   UNL     1       2.670  -1.968  -1.292  0.00  0.00    +0.000 A 
ATOM      6  C   UNL     1       3.415  -3.108  -1.595  0.00  0.00    +0.000 A 
ATOM      7  C   UNL     1       4.532  -3.474  -0.840  0.00  0.00    +0.000 A 
ATOM      8  C   UNL     1       4.860  -2.640   0.249  0.00  0.00    +0.000 A 
ATOM      9  C   UNL     1       4.081  -1.522   0.637  0.00  0.00    +0.000 A 
BRANCH   9  10
ATOM     10  C   UNL     1       4.384  -0.834   1.925  0.00  0.00    +0.000 A 
ATOM     11  C   UNL     1       4.251   0.557   2.090  0.00  0.00    +0.000 A 
ATOM     12  C   UNL     1       4.397   1.161   3.343  0.00  0.00    +0.000 A 
ATOM     13  C   UNL     1       4.726   0.385   4.444  0.00  0.00    +0.000 A 
ATOM     14  F   UNL     1       4.840   0.958   5.649  0.00  0.00    +0.000 F 
ATOM     15  C   UNL     1       4.929  -0.979   4.314  0.00  0.00    +0.000 A 
ATOM     16  C   UNL     1       4.753  -1.583   3.065  0.00  0.00    +0.000 A 
ENDBRANCH   9  10
BRANCH   4  18
ATOM     17  C   UNL     1       1.221   0.355  -0.713  0.00  0.00    +0.000 C 
ATOM     18  O   UNL     1       2.233  -0.085   0.181  0.00  0.00    +0.000 OA
ENDBRANCH   4  18
ENDBRANCH   1   7
BRANCH   1  19
ATOM     19  C   UNL     1       4.788  -5.668  -2.257  0.00  0.00    +0.000 C 
BRANCH  19  20
ATOM     20  N   UNL     1       4.764  -5.024  -3.562  0.00  0.00    +0.000 N 
ATOM     21  C   UNL     1       4.204  -5.620  -4.667  0.00  0.00    +0.000 A 
ATOM     22  C   UNL     1       3.169  -6.561  -4.633  0.00  0.00    +0.000 A 
ATOM     23  N   UNL     1       2.582  -7.095  -5.736  0.00  0.00    +0.000 NA
ATOM     24  C   UNL     1       3.073  -6.620  -6.913  0.00  0.00    +0.000 A 
ATOM     25  C   UNL     1       4.091  -5.685  -6.969  0.00  0.00    +0.000 A 
ATOM     26  N   UNL     1       4.674  -5.176  -5.852  0.00  0.00    +0.000 NA
ATOM     27  H   UNL     1       5.573  -4.476  -3.843  0.00  0.00    +0.000 HD
BRANCH  24  28
ATOM     28  C   UNL     1       2.465  -7.138  -8.169  0.00  0.00    +0.000 C 
ATOM     29  N   UNL     1       1.461  -8.050  -8.006  0.00  0.00    +0.000 N 
ATOM     30  O   UNL     1       2.840  -6.774  -9.277  0.00  0.00    +0.000 OA
ATOM     31  H   UNL     1       1.185  -8.342  -7.075  0.00  0.00    +0.000 HD
ATOM     32  H   UNL     1       1.014  -8.451  -8.821  0.00  0.00    +0.000 HD
ENDBRANCH  24  28
ENDBRANCH  19  20
ENDBRANCH   1  19
TORSDOF 6
