REMARK  Name = 
REMARK  5 active torsions:
REMARK  status: ('A' for Active; 'I' for Inactive)
REMARK    1  A    between atoms: C_1  and  C_2
REMARK    2  A    between atoms: C_2  and  N_3
REMARK    3  A    between atoms: C_2  and  C_13
REMARK    4  A    between atoms: N_3  and  C_4
REMARK    5  A    between atoms: C_7  and  C_8
REMARK                            x       y       z     vdW  Elec       q    Type
REMARK                         _______ _______ _______ _____ _____    ______ ____
ROOT
ATOM      1  C   UNL     1       0.115  -0.294  -0.971  0.00  0.00    +0.000 A 
ATOM      2  C   UNL     1      -1.128  -0.918  -0.812  0.00  0.00    +0.000 A 
ATOM      3  C   UNL     1      -2.140  -0.760  -1.752  0.00  0.00    +0.000 A 
ATOM      4  C   UNL     1      -1.888   0.044  -2.850  0.00  0.00    +0.000 A 
ATOM      5  N   UNL     1      -0.692   0.664  -3.073  0.00  0.00    +0.000 NA
ATOM      6  C   UNL     1       0.274   0.464  -2.130  0.00  0.00    +0.000 A 
ENDROOT
BRANCH   4   7
ATOM      7  C   UNL     1      -2.985   0.274  -3.846  0.00  0.00    +0.000 C 
ATOM      8  N   UNL     1      -2.681   1.094  -4.893  0.00  0.00    +0.000 N 
ATOM      9  O   UNL     1      -4.100  -0.232  -3.731  0.00  0.00    +0.000 OA
ATOM     10  H   UNL     1      -1.753   1.502  -4.962  0.00  0.00    +0.000 HD
ATOM     11  H   UNL     1      -3.387   1.296  -5.586  0.00  0.00    +0.000 HD
ENDBRANCH   4   7
BRANCH   1  12
ATOM     12  N   UNL     1       1.045  -0.480   0.037  0.00  0.00    +0.000 N 
ATOM     13  H   UNL     1       0.670  -0.187   0.938  0.00  0.00    +0.000 HD
BRANCH  12  15
ATOM     14  C   UNL     1       2.876   1.065   0.569  0.00  0.00    +0.000 C 
ATOM     15  C   UNL     1       2.485  -0.273  -0.068  0.00  0.00    +0.000 C 
BRANCH  15  16
ATOM     16  C   UNL     1       3.222  -1.376   0.692  0.00  0.00    +0.000 A 
ATOM     17  C   UNL     1       4.486  -1.803   0.250  0.00  0.00    +0.000 A 
ATOM     18  C   UNL     1       5.257  -2.672   1.027  0.00  0.00    +0.000 A 
ATOM     19  C   UNL     1       4.776  -3.132   2.251  0.00  0.00    +0.000 A 
ATOM     20  C   UNL     1       3.507  -2.759   2.681  0.00  0.00    +0.000 A 
ATOM     21  C   UNL     1       2.734  -1.894   1.905  0.00  0.00    +0.000 A 
ENDBRANCH  15  16
ENDBRANCH  12  15
ENDBRANCH   1  12
TORSDOF 4
