REMARK  Name = 
REMARK  5 active torsions:
REMARK  status: ('A' for Active; 'I' for Inactive)
REMARK    1  A    between atoms: C_2  and  C_4
REMARK    2  A    between atoms: C_7  and  N_8
REMARK    3  A    between atoms: N_8  and  C_9
REMARK    4  A    between atoms: C_9  and  C_10
REMARK    5  A    between atoms: C_14  and  C_15
REMARK                            x       y       z     vdW  Elec       q    Type
REMARK                         _______ _______ _______ _____ _____    ______ ____
ROOT
ATOM      1  N   UNL     1       5.058  -6.082  -0.991  0.00  0.00    +0.000 N 
ATOM      2  H   UNL     1       5.913  -6.313  -1.491  0.00  0.00    +0.000 HD
ENDROOT
BRANCH   1   6
ATOM      3  C   UNL     1       2.528  -3.536  -3.223  0.00  0.00    +0.000 A 
ATOM      4  C   UNL     1       2.711  -3.296  -1.860  0.00  0.00    +0.000 A 
ATOM      5  C   UNL     1       3.553  -4.127  -1.106  0.00  0.00    +0.000 A 
ATOM      6  C   UNL     1       4.255  -5.185  -1.698  0.00  0.00    +0.000 A 
ATOM      7  C   UNL     1       4.041  -5.421  -3.064  0.00  0.00    +0.000 A 
ATOM      8  C   UNL     1       3.184  -4.613  -3.821  0.00  0.00    +0.000 A 
BRANCH   3  10
ATOM      9  N   UNL     1       1.434  -1.406  -3.674  0.00  0.00    +0.000 N 
ATOM     10  C   UNL     1       1.612  -2.709  -4.052  0.00  0.00    +0.000 C 
ATOM     11  O   UNL     1       1.066  -3.155  -5.050  0.00  0.00    +0.000 OA
ATOM     12  H   UNL     1       0.892  -0.830  -4.306  0.00  0.00    +0.000 HD
ATOM     13  H   UNL     1       2.056  -0.940  -3.031  0.00  0.00    +0.000 HD
ENDBRANCH   3  10
ENDBRANCH   1   6
BRANCH   1  14
ATOM     14  C   UNL     1       5.248  -5.945   0.444  0.00  0.00    +0.000 C 
BRANCH  14  15
ATOM     15  C   UNL     1       6.114  -7.063   0.985  0.00  0.00    +0.000 A 
ATOM     16  C   UNL     1       7.297  -6.776   1.679  0.00  0.00    +0.000 A 
ATOM     17  C   UNL     1       8.046  -7.802   2.253  0.00  0.00    +0.000 A 
ATOM     18  C   UNL     1       7.624  -9.126   2.141  0.00  0.00    +0.000 A 
ATOM     19  C   UNL     1       6.451  -9.446   1.443  0.00  0.00    +0.000 A 
ATOM     20  C   UNL     1       5.708  -8.403   0.865  0.00  0.00    +0.000 A 
BRANCH  19  21
ATOM     21  C   UNL     1       5.967 -10.880   1.320  0.00  0.00    +0.000 C 
ATOM     22  C   UNL     1       5.665 -11.511   2.687  0.00  0.00    +0.000 C 
ATOM     23  C   UNL     1       5.251 -12.967   2.521  0.00  0.00    +0.000 C 
ATOM     24  O   UNL     1       6.249 -13.701   1.812  0.00  0.00    +0.000 OA
ATOM     25  C   UNL     1       6.456 -13.197   0.493  0.00  0.00    +0.000 C 
ATOM     26  C   UNL     1       6.953 -11.759   0.537  0.00  0.00    +0.000 C 
ENDBRANCH  19  21
ENDBRANCH  14  15
ENDBRANCH   1  14
TORSDOF 5
