REMARK  Name = 
REMARK  7 active torsions:
REMARK  status: ('A' for Active; 'I' for Inactive)
REMARK    1  A    between atoms: C_1  and  O_2
REMARK    2  A    between atoms: O_2  and  C_3
REMARK    3  A    between atoms: C_5  and  C_6
REMARK    4  A    between atoms: C_6  and  N_7
REMARK    5  A    between atoms: C_12  and  C_13
REMARK    6  A    between atoms: C_13  and  O_15
REMARK    7  A    between atoms: C_21  and  O_22
REMARK                            x       y       z     vdW  Elec       q    Type
REMARK                         _______ _______ _______ _____ _____    ______ ____
ROOT
ATOM      1  N   UNL     1       1.048   4.708   0.096  0.00  0.00    +0.000 N 
ATOM      2  C   UNL     1       0.312   4.603   1.258  0.00  0.00    +0.000 A 
ATOM      3  C   UNL     1      -1.022   4.706   0.934  0.00  0.00    +0.000 A 
ATOM      4  C   UNL     1      -1.105   4.891  -0.467  0.00  0.00    +0.000 A 
ATOM      5  C   UNL     1      -2.163   5.100  -1.364  0.00  0.00    +0.000 A 
ATOM      6  C   UNL     1      -1.853   5.281  -2.711  0.00  0.00    +0.000 A 
ATOM      7  C   UNL     1      -0.512   5.263  -3.096  0.00  0.00    +0.000 A 
ATOM      8  N   UNL     1       0.550   5.052  -2.265  0.00  0.00    +0.000 NA
ATOM      9  C   UNL     1       0.196   4.882  -0.973  0.00  0.00    +0.000 A 
ENDROOT
BRANCH   6  10
ATOM     10  C   UNL     1      -2.918   5.580  -3.704  0.00  0.00    +0.000 C 
ATOM     11  O   UNL     1      -2.695   6.239  -4.707  0.00  0.00    +0.000 OA
BRANCH  10  12
ATOM     12  O   UNL     1      -4.131   5.072  -3.411  0.00  0.00    +0.000 OA
ATOM     13  H   UNL     1      -4.183   4.464  -2.651  0.00  0.00    +0.000 HD
ENDBRANCH  10  12
ENDBRANCH   6  10
BRANCH   1  14
ATOM     14  C   UNL     1       2.508   4.793   0.043  0.00  0.00    +0.000 C 
BRANCH  14  17
ATOM     15  C   UNL     1       3.545   1.320  -1.189  0.00  0.00    +0.000 A 
ATOM     16  C   UNL     1       2.967   2.594  -1.128  0.00  0.00    +0.000 A 
ATOM     17  C   UNL     1       3.180   3.441  -0.027  0.00  0.00    +0.000 A 
ATOM     18  C   UNL     1       4.056   3.020   0.984  0.00  0.00    +0.000 A 
ATOM     19  C   UNL     1       4.664   1.763   0.923  0.00  0.00    +0.000 A 
ATOM     20  C   UNL     1       4.392   0.914  -0.150  0.00  0.00    +0.000 A 
BRANCH  15  22
ATOM     21  C   UNL     1       2.451   0.826  -3.242  0.00  0.00    +0.000 C 
ATOM     22  O   UNL     1       3.332   0.420  -2.202  0.00  0.00    +0.000 OA
ENDBRANCH  15  22
BRANCH  20  23
ATOM     23  O   UNL     1       4.958  -0.333  -0.189  0.00  0.00    +0.000 OA
ATOM     24  H   UNL     1       5.484  -0.471   0.614  0.00  0.00    +0.000 HD
ENDBRANCH  20  23
ENDBRANCH  14  17
ENDBRANCH   1  14
TORSDOF 6
