REMARK  Name = 
REMARK  3 active torsions:
REMARK  status: ('A' for Active; 'I' for Inactive)
REMARK    1  A    between atoms: C_2  and  C_4
REMARK    2  A    between atoms: N_8  and  C_9
REMARK    3  A    between atoms: C_9  and  C_10
REMARK                            x       y       z     vdW  Elec       q    Type
REMARK                         _______ _______ _______ _____ _____    ______ ____
ROOT
ATOM      1  C   UNL     1       2.825   2.402  -3.561  0.00  0.00    +0.000 A 
ATOM      2  C   UNL     1       2.151   3.336  -2.778  0.00  0.00    +0.000 A 
ATOM      3  C   UNL     1       2.869   4.092  -1.848  0.00  0.00    +0.000 A 
ATOM      4  C   UNL     1       4.238   3.892  -1.708  0.00  0.00    +0.000 A 
ATOM      5  N   UNL     1       5.008   4.548  -0.741  0.00  0.00    +0.000 N 
ATOM      6  N   UNL     1       4.898   2.976  -2.448  0.00  0.00    +0.000 NA
ATOM      7  C   UNL     1       4.187   2.253  -3.350  0.00  0.00    +0.000 A 
ATOM      8  H   UNL     1       5.961   4.222  -0.897  0.00  0.00    +0.000 HD
ENDROOT
BRANCH   1  10
ATOM      9  N   UNL     1       0.985   2.024  -5.101  0.00  0.00    +0.000 N 
ATOM     10  C   UNL     1       2.154   1.555  -4.567  0.00  0.00    +0.000 C 
ATOM     11  O   UNL     1       2.635   0.493  -4.932  0.00  0.00    +0.000 OA
ATOM     12  H   UNL     1       0.587   1.482  -5.858  0.00  0.00    +0.000 HD
ATOM     13  H   UNL     1       0.694   2.987  -5.016  0.00  0.00    +0.000 HD
ENDBRANCH   1  10
BRANCH   5  14
ATOM     14  C   UNL     1       4.873   5.981  -0.419  0.00  0.00    +0.000 C 
ATOM     15  C   UNL     1       5.009   6.309   1.064  0.00  0.00    +0.000 C 
ATOM     16  C   UNL     1       3.706   6.541   0.375  0.00  0.00    +0.000 C 
BRANCH  14  17
ATOM     17  C   UNL     1       5.553   6.907  -1.427  0.00  0.00    +0.000 A 
ATOM     18  C   UNL     1       6.903   7.279  -1.294  0.00  0.00    +0.000 A 
ATOM     19  C   UNL     1       7.532   8.104  -2.233  0.00  0.00    +0.000 A 
ATOM     20  C   UNL     1       6.823   8.573  -3.340  0.00  0.00    +0.000 A 
ATOM     21 CL   UNL     1       7.664   9.569  -4.474  0.00  0.00    +0.000 Cl
ATOM     22  C   UNL     1       5.481   8.222  -3.496  0.00  0.00    +0.000 A 
ATOM     23 CL   UNL     1       4.530   8.764  -4.834  0.00  0.00    +0.000 Cl
ATOM     24  C   UNL     1       4.859   7.400  -2.547  0.00  0.00    +0.000 A 
ENDBRANCH  14  17
ENDBRANCH   5  14
TORSDOF 3
