REMARK  Name = 
REMARK  7 active torsions:
REMARK  status: ('A' for Active; 'I' for Inactive)
REMARK    1  A    between atoms: N_1  and  C_2
REMARK    2  A    between atoms: C_2  and  C_3
REMARK    3  A    between atoms: C_3  and  N_4
REMARK    4  A    between atoms: C_3  and  C_17
REMARK    5  A    between atoms: C_5  and  C_7
REMARK    6  A    between atoms: C_20  and  O_21
REMARK    7  A    between atoms: O_21  and  C_22
REMARK                            x       y       z     vdW  Elec       q    Type
REMARK                         _______ _______ _______ _____ _____    ______ ____
ROOT
ATOM      1  C   UNL     1       2.958   0.372  -1.242  0.00  0.00    +0.000 C 
ENDROOT
BRANCH   1   2
ATOM      2  C   UNL     1       4.484   0.401  -1.326  0.00  0.00    +0.000 A 
ATOM      3  C   UNL     1       5.144  -0.381  -2.284  0.00  0.00    +0.000 A 
ATOM      4  C   UNL     1       6.537  -0.364  -2.385  0.00  0.00    +0.000 A 
ATOM      5  C   UNL     1       7.294   0.468  -1.558  0.00  0.00    +0.000 A 
ATOM      6  C   UNL     1       6.653   1.230  -0.580  0.00  0.00    +0.000 A 
ATOM      7  C   UNL     1       5.258   1.203  -0.469  0.00  0.00    +0.000 A 
BRANCH   5   8
ATOM      8  O   UNL     1       8.670   0.528  -1.588  0.00  0.00    +0.000 OA
BRANCH   8   9
ATOM      9  C   UNL     1       9.308   0.493  -2.824  0.00  0.00    +0.000 A 
ATOM     10  C   UNL     1      10.627   0.061  -2.828  0.00  0.00    +0.000 A 
ATOM     11  C   UNL     1      11.299   0.001  -4.046  0.00  0.00    +0.000 A 
ATOM     12  C   UNL     1      10.636   0.379  -5.209  0.00  0.00    +0.000 A 
ATOM     13  C   UNL     1       9.329   0.822  -5.103  0.00  0.00    +0.000 A 
ATOM     14  N   UNL     1       8.656   0.903  -3.937  0.00  0.00    +0.000 NA
ENDBRANCH   8   9
ENDBRANCH   5   8
ENDBRANCH   1   2
BRANCH   1  15
ATOM     15  N   UNL     1       2.445   1.698  -1.564  0.00  0.00    +0.000 N 
ATOM     16  C   UNL     1       1.106   1.946  -1.753  0.00  0.00    +0.000 C 
ATOM     17  O   UNL     1       0.238   1.108  -1.537  0.00  0.00    +0.000 OA
ATOM     18  H   UNL     1       3.108   2.324  -2.012  0.00  0.00    +0.000 HD
BRANCH  16  19
ATOM     19  C   UNL     1       0.759   3.304  -2.179  0.00  0.00    +0.000 A 
ATOM     20  C   UNL     1      -0.456   3.859  -1.804  0.00  0.00    +0.000 A 
ATOM     21  S   UNL     1      -0.693   5.440  -2.400  0.00  0.00    +0.000 S 
ATOM     22  C   UNL     1       0.798   5.412  -3.223  0.00  0.00    +0.000 A 
ATOM     23  N   UNL     1       1.197   6.459  -3.993  0.00  0.00    +0.000 NA
ATOM     24  C   UNL     1       2.326   6.276  -4.595  0.00  0.00    +0.000 A 
ATOM     25  N   UNL     1       3.103   5.152  -4.481  0.00  0.00    +0.000 N 
ATOM     26  C   UNL     1       2.771   4.099  -3.665  0.00  0.00    +0.000 A 
ATOM     27  O   UNL     1       3.529   3.150  -3.495  0.00  0.00    +0.000 OA
ATOM     28  C   UNL     1       1.483   4.232  -3.007  0.00  0.00    +0.000 A 
ATOM     29  H   UNL     1       3.992   5.084  -4.950  0.00  0.00    +0.000 HD
ENDBRANCH  16  19
ENDBRANCH   1  15
BRANCH   1  30
ATOM     30  C   UNL     1       2.461  -0.133   0.147  0.00  0.00    +0.000 C 
BRANCH  30  31
ATOM     31  N   UNL     1       2.965  -1.458   0.536  0.00  0.00    +0.000 NA
ATOM     32  H   UNL     1       2.762  -1.606   1.523  0.00  0.00    +0.000 HD
ATOM     33  H   UNL     1       3.981  -1.474   0.445  0.00  0.00    +0.000 HD
ENDBRANCH  30  31
ENDBRANCH   1  30
TORSDOF 7
