REMARK  Name = 
REMARK  5 active torsions:
REMARK  status: ('A' for Active; 'I' for Inactive)
REMARK    1  A    between atoms: C_2  and  C_4
REMARK    2  A    between atoms: C_7  and  C_8
REMARK    3  A    between atoms: C_8  and  O_9
REMARK    4  A    between atoms: O_9  and  C_10
REMARK    5  A    between atoms: C_14  and  C_15
REMARK                            x       y       z     vdW  Elec       q    Type
REMARK                         _______ _______ _______ _____ _____    ______ ____
ROOT
ATOM      1  C   UNL     1       5.065  -4.659   1.780  0.00  0.00    +0.000 C 
ENDROOT
BRANCH   1   5
ATOM      2  C   UNL     1       3.117  -1.140   0.568  0.00  0.00    +0.000 A 
ATOM      3  N   UNL     1       4.315  -1.408  -0.007  0.00  0.00    +0.000 NA
ATOM      4  C   UNL     1       4.916  -2.541   0.411  0.00  0.00    +0.000 A 
ATOM      5  C   UNL     1       4.374  -3.406   1.343  0.00  0.00    +0.000 A 
ATOM      6  C   UNL     1       3.158  -3.014   1.868  0.00  0.00    +0.000 A 
ATOM      7  N   UNL     1       2.503  -1.899   1.496  0.00  0.00    +0.000 NA
BRANCH   2   9
ATOM      8  N   UNL     1       3.072   0.862  -0.842  0.00  0.00    +0.000 N 
ATOM      9  C   UNL     1       2.414   0.120   0.114  0.00  0.00    +0.000 C 
ATOM     10  O   UNL     1       1.325   0.491   0.542  0.00  0.00    +0.000 OA
ATOM     11  H   UNL     1       2.650   1.717  -1.172  0.00  0.00    +0.000 HD
ATOM     12  H   UNL     1       3.974   0.560  -1.190  0.00  0.00    +0.000 HD
ENDBRANCH   2   9
ENDBRANCH   1   5
BRANCH   1  13
ATOM     13  O   UNL     1       5.927  -4.338   2.868  0.00  0.00    +0.000 OA
BRANCH  13  14
ATOM     14  C   UNL     1       6.674  -5.357   3.394  0.00  0.00    +0.000 A 
ATOM     15  C   UNL     1       6.627  -6.697   3.009  0.00  0.00    +0.000 A 
ATOM     16  C   UNL     1       7.456  -7.636   3.630  0.00  0.00    +0.000 A 
ATOM     17  C   UNL     1       8.340  -7.242   4.634  0.00  0.00    +0.000 A 
ATOM     18  C   UNL     1       8.404  -5.900   5.032  0.00  0.00    +0.000 A 
ATOM     19  C   UNL     1       7.556  -4.969   4.408  0.00  0.00    +0.000 A 
BRANCH  18  20
ATOM     20  C   UNL     1       9.367  -5.443   6.098  0.00  0.00    +0.000 C 
ATOM     21  F   UNL     1      10.149  -6.444   6.591  0.00  0.00    +0.000 F 
ATOM     22  F   UNL     1      10.228  -4.489   5.645  0.00  0.00    +0.000 F 
ATOM     23  F   UNL     1       8.737  -4.898   7.175  0.00  0.00    +0.000 F 
ENDBRANCH  18  20
ENDBRANCH  13  14
ENDBRANCH   1  13
TORSDOF 5
