REMARK  Name = 
REMARK  7 active torsions:
REMARK  status: ('A' for Active; 'I' for Inactive)
REMARK    1  A    between atoms: C_2  and  C_20
REMARK    2  A    between atoms: N_3  and  C_4
REMARK    3  A    between atoms: C_4  and  C_5
REMARK    4  A    between atoms: C_9  and  C_10
REMARK    5  A    between atoms: C_10  and  N_11
REMARK    6  A    between atoms: N_11  and  C_12
REMARK    7  A    between atoms: C_12  and  C_13
REMARK                            x       y       z     vdW  Elec       q    Type
REMARK                         _______ _______ _______ _____ _____    ______ ____
ROOT
ATOM      1  C   UNL     1       2.343   1.445   1.886  0.00  0.00    +0.000 C 
ENDROOT
BRANCH   1   2
ATOM      2  C   UNL     1       3.252   2.243   2.782  0.00  0.00    +0.000 A 
ATOM      3  C   UNL     1       3.205   3.643   2.780  0.00  0.00    +0.000 A 
ATOM      4  C   UNL     1       3.960   4.376   3.698  0.00  0.00    +0.000 A 
ATOM      5  C   UNL     1       4.751   3.719   4.641  0.00  0.00    +0.000 A 
ATOM      6  C   UNL     1       4.803   2.319   4.670  0.00  0.00    +0.000 A 
ATOM      7  C   UNL     1       4.090   1.594   3.700  0.00  0.00    +0.000 A 
BRANCH   6   8
ATOM      8  C   UNL     1       5.531   1.589   5.779  0.00  0.00    +0.000 C 
BRANCH   8   9
ATOM      9  N   UNL     1       6.606   0.765   5.244  0.00  0.00    +0.000 NA
ATOM     10  H   UNL     1       7.275   1.373   4.772  0.00  0.00    +0.000 HD
BRANCH   9  11
ATOM     11  C   UNL     1       7.301   0.006   6.282  0.00  0.00    +0.000 C 
BRANCH  11  12
ATOM     12  C   UNL     1       8.418  -0.795   5.665  0.00  0.00    +0.000 A 
ATOM     13  C   UNL     1       8.177  -1.771   4.691  0.00  0.00    +0.000 A 
ATOM     14  C   UNL     1       9.248  -2.413   4.075  0.00  0.00    +0.000 A 
ATOM     15  C   UNL     1      10.530  -2.072   4.468  0.00  0.00    +0.000 A 
ATOM     16  N   UNL     1      10.805  -1.167   5.432  0.00  0.00    +0.000 NA
ATOM     17  C   UNL     1       9.745  -0.554   6.007  0.00  0.00    +0.000 A 
ENDBRANCH  11  12
ENDBRANCH   9  11
ENDBRANCH   8   9
ENDBRANCH   6   8
ENDBRANCH   1   2
BRANCH   1  20
ATOM     18  O   UNL     1       1.045   0.001  -0.056  0.00  0.00    +0.000 OA
ATOM     19  C   UNL     1       2.136   0.491  -0.335  0.00  0.00    +0.000 C 
ATOM     20  N   UNL     1       2.889   1.185   0.584  0.00  0.00    +0.000 N 
ATOM     21  H   UNL     1       3.662   1.763   0.270  0.00  0.00    +0.000 HD
BRANCH  19  22
ATOM     22  C   UNL     1       2.723   0.327  -1.665  0.00  0.00    +0.000 A 
ATOM     23  C   UNL     1       2.446  -0.802  -2.423  0.00  0.00    +0.000 A 
ATOM     24  S   UNL     1       3.213  -0.795  -3.948  0.00  0.00    +0.000 S 
ATOM     25  C   UNL     1       3.906   0.729  -3.656  0.00  0.00    +0.000 A 
ATOM     26  N   UNL     1       4.679   1.348  -4.589  0.00  0.00    +0.000 NA
ATOM     27  C   UNL     1       5.108   2.516  -4.241  0.00  0.00    +0.000 A 
ATOM     28  N   UNL     1       4.842   3.119  -3.042  0.00  0.00    +0.000 N 
ATOM     29  C   UNL     1       4.106   2.512  -2.044  0.00  0.00    +0.000 A 
ATOM     30  O   UNL     1       3.964   3.049  -0.952  0.00  0.00    +0.000 OA
ATOM     31  C   UNL     1       3.583   1.212  -2.403  0.00  0.00    +0.000 A 
ATOM     32  H   UNL     1       5.223   4.026  -2.815  0.00  0.00    +0.000 HD
ENDBRANCH  19  22
ENDBRANCH   1  20
TORSDOF 7
