REMARK  Name = 
REMARK  5 active torsions:
REMARK  status: ('A' for Active; 'I' for Inactive)
REMARK    1  A    between atoms: N_1  and  C_2
REMARK    2  A    between atoms: C_2  and  C_3
REMARK    3  A    between atoms: C_6  and  O_7
REMARK    4  A    between atoms: O_7  and  C_8
REMARK    5  A    between atoms: C_8  and  C_9
REMARK                            x       y       z     vdW  Elec       q    Type
REMARK                         _______ _______ _______ _____ _____    ______ ____
ROOT
ATOM      1  C   UNL     1       2.680  -1.266  -0.825  0.00  0.00    +0.000 A 
ATOM      2  C   UNL     1       3.524  -1.384  -1.938  0.00  0.00    +0.000 A 
ATOM      3  C   UNL     1       4.034  -2.626  -2.324  0.00  0.00    +0.000 A 
ATOM      4  C   UNL     1       3.713  -3.775  -1.600  0.00  0.00    +0.000 A 
ATOM      5  C   UNL     1       2.872  -3.667  -0.493  0.00  0.00    +0.000 A 
ATOM      6  C   UNL     1       2.365  -2.422  -0.099  0.00  0.00    +0.000 A 
ENDROOT
BRANCH   1   7
ATOM      7  C   UNL     1       2.140   0.082  -0.423  0.00  0.00    +0.000 C 
BRANCH   7   8
ATOM      8  N   UNL     1       1.339   0.678  -1.488  0.00  0.00    +0.000 NA
ATOM      9  H   UNL     1       0.959   1.565  -1.165  0.00  0.00    +0.000 HD
ATOM     10  H   UNL     1       0.543   0.071  -1.676  0.00  0.00    +0.000 HD
ENDBRANCH   7   8
ENDBRANCH   1   7
BRANCH   4  11
ATOM     11  O   UNL     1       4.127  -5.047  -1.910  0.00  0.00    +0.000 OA
BRANCH  11  12
ATOM     12  C   UNL     1       5.360  -5.123  -2.631  0.00  0.00    +0.000 C 
BRANCH  12  13
ATOM     13  C   UNL     1       5.729  -6.589  -2.930  0.00  0.00    +0.000 C 
ATOM     14  C   UNL     1       5.833  -7.468  -1.677  0.00  0.00    +0.000 C 
ATOM     15  C   UNL     1       7.053  -7.102  -0.836  0.00  0.00    +0.000 C 
ATOM     16  C   UNL     1       8.328  -7.043  -1.680  0.00  0.00    +0.000 C 
ATOM     17  N   UNL     1       8.178  -6.201  -2.869  0.00  0.00    +0.000 NA
ATOM     18  C   UNL     1       7.057  -6.644  -3.701  0.00  0.00    +0.000 C 
ATOM     19  H   UNL     1       9.040  -6.233  -3.414  0.00  0.00    +0.000 HD
ENDBRANCH  12  13
ENDBRANCH  11  12
ENDBRANCH   4  11
TORSDOF 5
