REMARK  Name = 
REMARK  8 active torsions:
REMARK  status: ('A' for Active; 'I' for Inactive)
REMARK    1  A    between atoms: C_1  and  C_2
REMARK    2  A    between atoms: C_2  and  C_3
REMARK    3  A    between atoms: C_2  and  C_4
REMARK    4  A    between atoms: C_2  and  C_15
REMARK    5  A    between atoms: C_4  and  O_5
REMARK    6  A    between atoms: O_5  and  C_6
REMARK    7  A    between atoms: C_9  and  C_10
REMARK    8  A    between atoms: C_20  and  C_21
REMARK                            x       y       z     vdW  Elec       q    Type
REMARK                         _______ _______ _______ _____ _____    ______ ____
ROOT
ATOM      1  C   UNL     1       1.080  -0.110   0.067  0.00  0.00    +0.000 C 
ATOM      2  C   UNL     1       2.622  -0.001   0.017  0.00  0.00    +0.000 C 
ATOM      3  C   UNL     1       3.115   1.263   0.763  0.00  0.00    +0.000 C 
ENDROOT
BRANCH   2   4
ATOM      4  C   UNL     1       3.108  -0.018  -1.462  0.00  0.00    +0.000 A 
ATOM      5  C   UNL     1       3.860  -1.131  -1.918  0.00  0.00    +0.000 A 
ATOM      6  C   UNL     1       4.214  -1.320  -3.258  0.00  0.00    +0.000 A 
ATOM      7  C   UNL     1       3.831  -0.397  -4.209  0.00  0.00    +0.000 A 
ATOM      8  C   UNL     1       3.154   0.746  -3.802  0.00  0.00    +0.000 A 
ATOM      9  C   UNL     1       2.828   0.976  -2.442  0.00  0.00    +0.000 A 
BRANCH   9  10
ATOM     10  C   UNL     1       2.228   2.327  -2.181  0.00  0.00    +0.000 C 
ATOM     11  N   UNL     1       2.812   3.378  -2.843  0.00  0.00    +0.000 N 
ATOM     12  O   UNL     1       1.284   2.543  -1.439  0.00  0.00    +0.000 OA
ATOM     13  H   UNL     1       3.651   3.292  -3.400  0.00  0.00    +0.000 HD
ATOM     14  H   UNL     1       2.464   4.305  -2.635  0.00  0.00    +0.000 HD
ENDBRANCH   9  10
ENDBRANCH   2   4
BRANCH   2  15
ATOM     15  C   UNL     1       3.160  -1.184   0.916  0.00  0.00    +0.000 C 
BRANCH  15  16
ATOM     16  O   UNL     1       2.735  -2.489   0.477  0.00  0.00    +0.000 OA
BRANCH  16  17
ATOM     17  C   UNL     1       3.301  -3.482   1.252  0.00  0.00    +0.000 A 
ATOM     18  C   UNL     1       3.521  -4.736   0.688  0.00  0.00    +0.000 A 
ATOM     19  N   UNL     1       4.075  -5.769   1.381  0.00  0.00    +0.000 NA
ATOM     20  C   UNL     1       4.379  -5.487   2.679  0.00  0.00    +0.000 A 
ATOM     21  C   UNL     1       4.144  -4.241   3.243  0.00  0.00    +0.000 A 
ATOM     22  N   UNL     1       3.604  -3.213   2.542  0.00  0.00    +0.000 NA
BRANCH  20  23
ATOM     23  C   UNL     1       4.989  -6.554   3.519  0.00  0.00    +0.000 C 
ATOM     24  N   UNL     1       5.209  -7.756   2.902  0.00  0.00    +0.000 N 
ATOM     25  O   UNL     1       5.285  -6.373   4.694  0.00  0.00    +0.000 OA
ATOM     26  H   UNL     1       4.945  -7.887   1.933  0.00  0.00    +0.000 HD
ATOM     27  H   UNL     1       5.608  -8.516   3.431  0.00  0.00    +0.000 HD
ENDBRANCH  20  23
ENDBRANCH  16  17
ENDBRANCH  15  16
ENDBRANCH   2  15
TORSDOF 6
