REMARK  Name = 
REMARK  10 active torsions:
REMARK  status: ('A' for Active; 'I' for Inactive)
REMARK    1  A    between atoms: C_1  and  C_2
REMARK    2  A    between atoms: C_2  and  C_3
REMARK    3  A    between atoms: C_5  and  O_6
REMARK    4  A    between atoms: O_6  and  C_7
REMARK    5  A    between atoms: C_12  and  C_13
REMARK    6  A    between atoms: C_13  and  C_14
REMARK    7  A    between atoms: C_13  and  C_15
REMARK    8  A    between atoms: C_13  and  C_16
REMARK    9  A    between atoms: C_16  and  N_17
REMARK   10  A    between atoms: C_21  and  C_22
REMARK                            x       y       z     vdW  Elec       q    Type
REMARK                         _______ _______ _______ _____ _____    ______ ____
ROOT
ATOM      1  C   UNL     1      -3.795   0.746   1.004  0.00  0.00    +0.000 A 
ATOM      2  C   UNL     1      -3.550   0.723   2.368  0.00  0.00    +0.000 A 
ATOM      3  C   UNL     1      -4.608   0.538   3.238  0.00  0.00    +0.000 A 
ATOM      4  F   UNL     1      -4.389   0.546   4.555  0.00  0.00    +0.000 F 
ATOM      5  C   UNL     1      -5.905   0.349   2.762  0.00  0.00    +0.000 A 
ATOM      6  C   UNL     1      -6.175   0.342   1.384  0.00  0.00    +0.000 A 
ATOM      7  C   UNL     1      -5.089   0.554   0.515  0.00  0.00    +0.000 A 
ENDROOT
BRANCH   6   8
ATOM      8  C   UNL     1      -7.614   0.116   0.882  0.00  0.00    +0.000 C 
ATOM      9  C   UNL     1      -8.140  -1.242   1.405  0.00  0.00    +0.000 C 
ATOM     10  C   UNL     1      -8.514   1.243   1.451  0.00  0.00    +0.000 C 
BRANCH   8  11
ATOM     11  C   UNL     1      -7.776   0.147  -0.670  0.00  0.00    +0.000 C 
BRANCH  11  12
ATOM     12  N   UNL     1      -7.003  -0.909  -1.345  0.00  0.00    +0.000 N 
ATOM     13  C   UNL     1      -7.108  -0.889  -2.740  0.00  0.00    +0.000 A 
ATOM     14  C   UNL     1      -6.379  -1.813  -3.484  0.00  0.00    +0.000 A 
ATOM     15  C   UNL     1      -6.489  -1.810  -4.876  0.00  0.00    +0.000 A 
ATOM     16  C   UNL     1      -7.322  -0.878  -5.486  0.00  0.00    +0.000 A 
ATOM     17  C   UNL     1      -7.996   0.018  -4.676  0.00  0.00    +0.000 A 
ATOM     18  N   UNL     1      -7.897   0.031  -3.330  0.00  0.00    +0.000 NA
ATOM     19  H   UNL     1      -7.212  -1.842  -1.008  0.00  0.00    +0.000 HD
BRANCH  16  20
ATOM     20  C   UNL     1      -7.498  -0.834  -6.898  0.00  0.00    +0.000 C 
ATOM     21  N   UNL     1      -7.655  -0.794  -8.049  0.00  0.00    +0.000 NA
ENDBRANCH  16  20
ENDBRANCH  11  12
ENDBRANCH   8  11
ENDBRANCH   6   8
BRANCH   1  22
ATOM     22  O   UNL     1      -2.820   0.957   0.060  0.00  0.00    +0.000 OA
BRANCH  22  27
ATOM     23  C   UNL     1       0.323   4.066   0.830  0.00  0.00    +0.000 C 
ATOM     24  C   UNL     1      -0.937   3.804   0.007  0.00  0.00    +0.000 C 
ATOM     25  C   UNL     1      -1.297   4.990  -0.881  0.00  0.00    +0.000 C 
ATOM     26  C   UNL     1      -2.126   3.280   0.847  0.00  0.00    +0.000 C 
ATOM     27  C   UNL     1      -1.738   1.835   0.439  0.00  0.00    +0.000 C 
ATOM     28  C   UNL     1      -0.943   2.441  -0.737  0.00  0.00    +0.000 C 
ENDBRANCH  22  27
ENDBRANCH   1  22
TORSDOF 6
