REMARK  Name = 
REMARK  6 active torsions:
REMARK  status: ('A' for Active; 'I' for Inactive)
REMARK    1  A    between atoms: C_1  and  C_2
REMARK    2  A    between atoms: C_2  and  C_3
REMARK    3  A    between atoms: C_2  and  C_4
REMARK    4  A    between atoms: C_2  and  C_5
REMARK    5  A    between atoms: C_8  and  C_9
REMARK    6  A    between atoms: C_9  and  N_10
REMARK                            x       y       z     vdW  Elec       q    Type
REMARK                         _______ _______ _______ _____ _____    ______ ____
ROOT
ATOM      1  C   UNL     1       2.953   0.488   1.246  0.00  0.00    +0.000 A 
ATOM      2  C   UNL     1       2.988   1.885   1.397  0.00  0.00    +0.000 A 
ATOM      3  C   UNL     1       3.279   2.486   2.628  0.00  0.00    +0.000 A 
ATOM      4  C   UNL     1       3.534   1.709   3.760  0.00  0.00    +0.000 A 
ATOM      5  C   UNL     1       3.504   0.318   3.628  0.00  0.00    +0.000 A 
ATOM      6  C   UNL     1       3.215  -0.280   2.393  0.00  0.00    +0.000 A 
ENDROOT
BRANCH   1   8
ATOM      7  C   UNL     1       2.937   0.717  -1.312  0.00  0.00    +0.000 C 
ATOM      8  C   UNL     1       2.565  -0.164  -0.095  0.00  0.00    +0.000 C 
ATOM      9  C   UNL     1       1.039  -0.384  -0.104  0.00  0.00    +0.000 C 
ATOM     10  C   UNL     1       3.254  -1.529  -0.324  0.00  0.00    +0.000 C 
ENDBRANCH   1   8
BRANCH   4  11
ATOM     11  C   UNL     1       3.803   2.358   5.093  0.00  0.00    +0.000 C 
BRANCH  11  12
ATOM     12  N   UNL     1       2.579   2.571   5.858  0.00  0.00    +0.000 N 
ATOM     13  C   UNL     1       2.029   1.637   6.707  0.00  0.00    +0.000 A 
ATOM     14  C   UNL     1       0.958   2.216   7.350  0.00  0.00    +0.000 A 
ATOM     15  C   UNL     1       0.856   3.546   6.882  0.00  0.00    +0.000 A 
ATOM     16  N   UNL     1      -0.032   4.502   7.250  0.00  0.00    +0.000 NA
ATOM     17  C   UNL     1       0.123   5.686   6.628  0.00  0.00    +0.000 A 
ATOM     18  C   UNL     1       1.084   5.975   5.672  0.00  0.00    +0.000 A 
ATOM     19  C   UNL     1       1.994   4.988   5.299  0.00  0.00    +0.000 A 
ATOM     20  C   UNL     1       1.864   3.752   5.940  0.00  0.00    +0.000 A 
ENDBRANCH  11  12
ENDBRANCH   4  11
TORSDOF 3
