REMARK  Name = 
REMARK  5 active torsions:
REMARK  status: ('A' for Active; 'I' for Inactive)
REMARK    1  A    between atoms: C_1  and  C_2
REMARK    2  A    between atoms: C_2  and  O_3
REMARK    3  A    between atoms: C_2  and  C_13
REMARK    4  A    between atoms: O_3  and  C_4
REMARK    5  A    between atoms: C_7  and  C_8
REMARK                            x       y       z     vdW  Elec       q    Type
REMARK                         _______ _______ _______ _____ _____    ______ ____
ROOT
ATOM      1  C   UNL     1       2.878  -0.621   2.320  0.00  0.00    +0.000 A 
ATOM      2  C   UNL     1       2.205   0.441   2.917  0.00  0.00    +0.000 A 
ATOM      3  C   UNL     1       2.276   0.618   4.298  0.00  0.00    +0.000 A 
ATOM      4  C   UNL     1       3.039  -0.268   5.044  0.00  0.00    +0.000 A 
ATOM      5  N   UNL     1       3.730  -1.309   4.502  0.00  0.00    +0.000 NA
ATOM      6  C   UNL     1       3.619  -1.457   3.156  0.00  0.00    +0.000 A 
ENDROOT
BRANCH   4   7
ATOM      7  C   UNL     1       3.108  -0.089   6.529  0.00  0.00    +0.000 C 
ATOM      8  N   UNL     1       3.895  -0.985   7.198  0.00  0.00    +0.000 N 
ATOM      9  O   UNL     1       2.497   0.794   7.116  0.00  0.00    +0.000 OA
ATOM     10  H   UNL     1       4.374  -1.716   6.688  0.00  0.00    +0.000 HD
ATOM     11  H   UNL     1       3.963  -0.926   8.204  0.00  0.00    +0.000 HD
ENDBRANCH   4   7
BRANCH   1  12
ATOM     12  O   UNL     1       2.832  -0.954   0.999  0.00  0.00    +0.000 OA
BRANCH  12  14
ATOM     13  C   UNL     1       1.006   0.182  -0.197  0.00  0.00    +0.000 C 
ATOM     14  C   UNL     1       2.517   0.069   0.040  0.00  0.00    +0.000 C 
BRANCH  14  15
ATOM     15  C   UNL     1       3.203  -0.323  -1.263  0.00  0.00    +0.000 A 
ATOM     16  C   UNL     1       4.140   0.535  -1.859  0.00  0.00    +0.000 A 
ATOM     17  C   UNL     1       4.760   0.185  -3.062  0.00  0.00    +0.000 A 
ATOM     18  C   UNL     1       4.447  -1.024  -3.679  0.00  0.00    +0.000 A 
ATOM     19 CL   UNL     1       5.217  -1.458  -5.155  0.00  0.00    +0.000 Cl
ATOM     20  C   UNL     1       3.516  -1.886  -3.106  0.00  0.00    +0.000 A 
ATOM     21  C   UNL     1       2.900  -1.539  -1.902  0.00  0.00    +0.000 A 
ENDBRANCH  14  15
ENDBRANCH  12  14
ENDBRANCH   1  12
TORSDOF 4
