REMARK  Name = 
REMARK  4 active torsions:
REMARK  status: ('A' for Active; 'I' for Inactive)
REMARK    1  A    between atoms: C_2  and  C_5
REMARK    2  A    between atoms: C_7  and  C_8
REMARK    3  A    between atoms: N_13  and  C_14
REMARK    4  A    between atoms: C_14  and  C_15
REMARK                            x       y       z     vdW  Elec       q    Type
REMARK                         _______ _______ _______ _____ _____    ______ ____
ROOT
ATOM      1  C   UNL     1       4.178   1.549  -4.490  0.00  0.00    +0.000 A 
ATOM      2  C   UNL     1       5.220   2.449  -4.251  0.00  0.00    +0.000 A 
ATOM      3  C   UNL     1       5.589   3.332  -5.253  0.00  0.00    +0.000 A 
ATOM      4  N   UNL     1       5.009   3.381  -6.471  0.00  0.00    +0.000 NA
ATOM      5  C   UNL     1       3.990   2.539  -6.706  0.00  0.00    +0.000 A 
ATOM      6  N   UNL     1       3.406   2.452  -7.960  0.00  0.00    +0.000 N 
ATOM      7  C   UNL     1       3.546   1.640  -5.738  0.00  0.00    +0.000 A 
ATOM      8  H   UNL     1       2.400   2.551  -7.949  0.00  0.00    +0.000 HD
ENDROOT
BRANCH   1  11
ATOM      9  C   UNL     1       2.153  -1.013  -2.549  0.00  0.00    +0.000 A 
ATOM     10  C   UNL     1       2.473   0.043  -3.408  0.00  0.00    +0.000 A 
ATOM     11  C   UNL     1       3.798   0.496  -3.522  0.00  0.00    +0.000 A 
ATOM     12  C   UNL     1       4.756  -0.143  -2.725  0.00  0.00    +0.000 A 
ATOM     13  C   UNL     1       4.367  -1.171  -1.883  0.00  0.00    +0.000 A 
ATOM     14  N   UNL     1       3.100  -1.618  -1.779  0.00  0.00    +0.000 NA
BRANCH   9  16
ATOM     15  F   UNL     1      -0.121  -0.881  -3.353  0.00  0.00    +0.000 F 
ATOM     16  C   UNL     1       0.720  -1.529  -2.490  0.00  0.00    +0.000 C 
ATOM     17  F   UNL     1       0.152  -1.387  -1.259  0.00  0.00    +0.000 F 
ATOM     18  F   UNL     1       0.610  -2.851  -2.809  0.00  0.00    +0.000 F 
ENDBRANCH   9  16
ENDBRANCH   1  11
BRANCH   6  19
ATOM     19  C   UNL     1       4.070   3.047  -9.098  0.00  0.00    +0.000 C 
BRANCH  19  20
ATOM     20  C   UNL     1       4.051   2.006 -10.192  0.00  0.00    +0.000 A 
ATOM     21  C   UNL     1       3.037   1.972 -11.152  0.00  0.00    +0.000 A 
ATOM     22  C   UNL     1       3.038   0.937 -12.075  0.00  0.00    +0.000 A 
ATOM     23  N   UNL     1       3.959  -0.051 -12.104  0.00  0.00    +0.000 NA
ATOM     24  C   UNL     1       4.920  -0.008 -11.157  0.00  0.00    +0.000 A 
ATOM     25  C   UNL     1       5.006   0.982 -10.194  0.00  0.00    +0.000 A 
ENDBRANCH  19  20
ENDBRANCH   6  19
TORSDOF 4
