REMARK  Name = 
REMARK  4 active torsions:
REMARK  status: ('A' for Active; 'I' for Inactive)
REMARK    1  A    between atoms: C_2  and  C_4
REMARK    2  A    between atoms: C_7  and  N_8
REMARK    3  A    between atoms: N_8  and  C_9
REMARK    4  A    between atoms: C_9  and  C_10
REMARK                            x       y       z     vdW  Elec       q    Type
REMARK                         _______ _______ _______ _____ _____    ______ ____
ROOT
ATOM      1  N   UNL     1       4.968   4.359  -2.113  0.00  0.00    +0.000 N 
ATOM      2  H   UNL     1       4.202   3.835  -1.701  0.00  0.00    +0.000 HD
ENDROOT
BRANCH   1   6
ATOM      3  C   UNL     1       8.683   3.237  -0.427  0.00  0.00    +0.000 A 
ATOM      4  C   UNL     1       7.555   2.419  -0.268  0.00  0.00    +0.000 A 
ATOM      5  C   UNL     1       6.337   2.792  -0.848  0.00  0.00    +0.000 A 
ATOM      6  C   UNL     1       6.218   3.994  -1.562  0.00  0.00    +0.000 A 
ATOM      7  C   UNL     1       7.370   4.772  -1.751  0.00  0.00    +0.000 A 
ATOM      8  C   UNL     1       8.586   4.418  -1.169  0.00  0.00    +0.000 A 
BRANCH   3  10
ATOM      9  N   UNL     1      10.254   1.578   0.435  0.00  0.00    +0.000 N 
ATOM     10  C   UNL     1       9.990   2.899   0.200  0.00  0.00    +0.000 C 
ATOM     11  O   UNL     1      10.817   3.762   0.470  0.00  0.00    +0.000 OA
ATOM     12  H   UNL     1      11.188   1.363   0.750  0.00  0.00    +0.000 HD
ATOM     13  H   UNL     1       9.725   0.836  -0.003  0.00  0.00    +0.000 HD
ENDBRANCH   3  10
ENDBRANCH   1   6
BRANCH   1  14
ATOM     14  C   UNL     1       4.673   5.792  -2.385  0.00  0.00    +0.000 C 
ATOM     15  C   UNL     1       4.758   6.728  -1.188  0.00  0.00    +0.000 C 
ATOM     16  C   UNL     1       3.427   6.448  -1.792  0.00  0.00    +0.000 C 
BRANCH  14  17
ATOM     17  C   UNL     1       4.908   6.226  -3.833  0.00  0.00    +0.000 A 
ATOM     18  C   UNL     1       4.388   5.456  -4.897  0.00  0.00    +0.000 A 
ATOM     19  C   UNL     1       4.444   5.891  -6.225  0.00  0.00    +0.000 A 
ATOM     20  C   UNL     1       5.031   7.115  -6.522  0.00  0.00    +0.000 A 
ATOM     21  C   UNL     1       5.588   7.866  -5.497  0.00  0.00    +0.000 A 
ATOM     22  F   UNL     1       6.151   9.048  -5.778  0.00  0.00    +0.000 F 
ATOM     23  C   UNL     1       5.546   7.429  -4.175  0.00  0.00    +0.000 A 
ENDBRANCH  14  17
ENDBRANCH   1  14
TORSDOF 4
