REMARK  Name = 
REMARK  6 active torsions:
REMARK  status: ('A' for Active; 'I' for Inactive)
REMARK    1  A    between atoms: C_2  and  C_25
REMARK    2  A    between atoms: N_3  and  C_4
REMARK    3  A    between atoms: C_4  and  C_5
REMARK    4  A    between atoms: C_8  and  C_9
REMARK    5  A    between atoms: C_9  and  N_10
REMARK    6  A    between atoms: C_11  and  C_13
REMARK                            x       y       z     vdW  Elec       q    Type
REMARK                         _______ _______ _______ _____ _____    ______ ____
ROOT
ATOM      1  C   UNL     1       3.175   3.375   1.494  0.00  0.00    +0.000 A 
ATOM      2  C   UNL     1       2.825   4.712   1.296  0.00  0.00    +0.000 A 
ATOM      3  C   UNL     1       3.660   5.727   1.761  0.00  0.00    +0.000 A 
ATOM      4  C   UNL     1       4.836   5.383   2.420  0.00  0.00    +0.000 A 
ATOM      5  N   UNL     1       5.216   4.090   2.595  0.00  0.00    +0.000 NA
ATOM      6  C   UNL     1       4.384   3.125   2.132  0.00  0.00    +0.000 A 
ENDROOT
BRANCH   1   7
ATOM      7  C   UNL     1       2.259   2.265   1.070  0.00  0.00    +0.000 C 
BRANCH   7  10
ATOM      8  O   UNL     1       0.803   0.293  -0.165  0.00  0.00    +0.000 OA
ATOM      9  C   UNL     1       1.661   0.858  -0.841  0.00  0.00    +0.000 C 
ATOM     10  N   UNL     1       2.446   1.860  -0.301  0.00  0.00    +0.000 N 
ATOM     11  H   UNL     1       3.063   2.379  -0.912  0.00  0.00    +0.000 HD
BRANCH   9  12
ATOM     12  C   UNL     1       1.905   0.521  -2.238  0.00  0.00    +0.000 A 
ATOM     13  C   UNL     1       1.190  -0.383  -3.006  0.00  0.00    +0.000 A 
ATOM     14  C   UNL     1       1.715  -0.522  -4.322  0.00  0.00    +0.000 A 
ATOM     15  C   UNL     1       2.814   0.281  -4.523  0.00  0.00    +0.000 A 
ATOM     16  S   UNL     1       3.188   1.214  -3.140  0.00  0.00    +0.000 S 
ENDBRANCH   9  12
ENDBRANCH   7  10
ENDBRANCH   1   7
BRANCH   4  17
ATOM     17  C   UNL     1       5.741   6.460   2.969  0.00  0.00    +0.000 C 
BRANCH  17  18
ATOM     18  N   UNL     1       6.742   6.883   2.017  0.00  0.00    +0.000 N 
ATOM     19  C   UNL     1       6.593   7.987   1.222  0.00  0.00    +0.000 C 
ATOM     20  O   UNL     1       5.582   8.684   1.253  0.00  0.00    +0.000 OA
ATOM     21  H   UNL     1       7.455   6.194   1.795  0.00  0.00    +0.000 HD
BRANCH  19  22
ATOM     22  C   UNL     1       7.745   8.342   0.382  0.00  0.00    +0.000 A 
ATOM     23  C   UNL     1       7.926   9.659  -0.021  0.00  0.00    +0.000 A 
ATOM     24  S   UNL     1       9.329   9.898  -0.962  0.00  0.00    +0.000 S 
ATOM     25  C   UNL     1       9.721   8.244  -0.897  0.00  0.00    +0.000 A 
ATOM     26  N   UNL     1      10.818   7.757  -1.538  0.00  0.00    +0.000 NA
ATOM     27  C   UNL     1      10.978   6.481  -1.428  0.00  0.00    +0.000 A 
ATOM     28  N   UNL     1      10.146   5.648  -0.725  0.00  0.00    +0.000 N 
ATOM     29  C   UNL     1       9.060   6.100  -0.022  0.00  0.00    +0.000 A 
ATOM     30  O   UNL     1       8.393   5.341   0.675  0.00  0.00    +0.000 OA
ATOM     31  C   UNL     1       8.811   7.525  -0.142  0.00  0.00    +0.000 A 
ATOM     32  H   UNL     1      10.341   4.660  -0.654  0.00  0.00    +0.000 HD
ENDBRANCH  19  22
ENDBRANCH  17  18
ENDBRANCH   4  17
TORSDOF 6
