REMARK  Name = 
REMARK  7 active torsions:
REMARK  status: ('A' for Active; 'I' for Inactive)
REMARK    1  A    between atoms: C_2  and  C_20
REMARK    2  A    between atoms: N_3  and  C_4
REMARK    3  A    between atoms: C_4  and  C_5
REMARK    4  A    between atoms: C_8  and  C_9
REMARK    5  A    between atoms: C_9  and  C_10
REMARK    6  A    between atoms: C_10  and  O_11
REMARK    7  A    between atoms: C_10  and  C_12
REMARK                            x       y       z     vdW  Elec       q    Type
REMARK                         _______ _______ _______ _____ _____    ______ ____
ROOT
ATOM      1  C   UNL     1       2.300  10.345   2.346  0.00  0.00    +0.000 C 
ENDROOT
BRANCH   1   2
ATOM      2  C   UNL     1       2.730   9.218   3.245  0.00  0.00    +0.000 A 
ATOM      3  C   UNL     1       4.019   8.694   3.124  0.00  0.00    +0.000 A 
ATOM      4  C   UNL     1       4.445   7.661   3.955  0.00  0.00    +0.000 A 
ATOM      5  C   UNL     1       3.608   7.141   4.949  0.00  0.00    +0.000 A 
ATOM      6  C   UNL     1       2.302   7.641   5.044  0.00  0.00    +0.000 A 
ATOM      7  C   UNL     1       1.863   8.660   4.192  0.00  0.00    +0.000 A 
BRANCH   5   8
ATOM      8  C   UNL     1       4.079   6.036   5.876  0.00  0.00    +0.000 C 
BRANCH   8   9
ATOM      9  C   UNL     1       5.263   6.390   6.811  0.00  0.00    +0.000 C 
BRANCH   9  10
ATOM     10  C   UNL     1       6.583   6.696   6.122  0.00  0.00    +0.000 A 
ATOM     11  C   UNL     1       7.248   7.920   6.299  0.00  0.00    +0.000 A 
ATOM     12  C   UNL     1       8.449   8.186   5.638  0.00  0.00    +0.000 A 
ATOM     13  C   UNL     1       9.009   7.232   4.794  0.00  0.00    +0.000 A 
ATOM     14  C   UNL     1       8.365   6.012   4.603  0.00  0.00    +0.000 A 
ATOM     15  C   UNL     1       7.166   5.742   5.268  0.00  0.00    +0.000 A 
ENDBRANCH   9  10
BRANCH   9  16
ATOM     16  O   UNL     1       4.866   7.439   7.701  0.00  0.00    +0.000 OA
ATOM     17  H   UNL     1       4.606   8.190   7.138  0.00  0.00    +0.000 HD
ENDBRANCH   9  16
ENDBRANCH   8   9
ENDBRANCH   5   8
ENDBRANCH   1   2
BRANCH   1  20
ATOM     18  O   UNL     1       3.790  10.045  -0.022  0.00  0.00    +0.000 OA
ATOM     19  C   UNL     1       2.608   9.714  -0.015  0.00  0.00    +0.000 C 
ATOM     20  N   UNL     1       1.802   9.862   1.086  0.00  0.00    +0.000 N 
ATOM     21  H   UNL     1       0.900   9.400   1.106  0.00  0.00    +0.000 HD
BRANCH  19  22
ATOM     22  C   UNL     1       1.962   9.185  -1.220  0.00  0.00    +0.000 A 
ATOM     23  C   UNL     1       2.470   9.498  -2.472  0.00  0.00    +0.000 A 
ATOM     24  S   UNL     1       1.607   8.783  -3.757  0.00  0.00    +0.000 S 
ATOM     25  C   UNL     1       0.546   8.001  -2.681  0.00  0.00    +0.000 A 
ATOM     26  N   UNL     1      -0.429   7.174  -3.138  0.00  0.00    +0.000 NA
ATOM     27  C   UNL     1      -1.134   6.616  -2.206  0.00  0.00    +0.000 A 
ATOM     28  N   UNL     1      -0.963   6.832  -0.864  0.00  0.00    +0.000 N 
ATOM     29  C   UNL     1      -0.050   7.726  -0.365  0.00  0.00    +0.000 A 
ATOM     30  O   UNL     1      -0.024   8.010   0.830  0.00  0.00    +0.000 OA
ATOM     31  C   UNL     1       0.816   8.322  -1.363  0.00  0.00    +0.000 A 
ATOM     32  H   UNL     1      -1.571   6.393  -0.190  0.00  0.00    +0.000 HD
ENDBRANCH  19  22
ENDBRANCH   1  20
TORSDOF 7
