REMARK  Name = 
REMARK  10 active torsions:
REMARK  status: ('A' for Active; 'I' for Inactive)
REMARK    1  A    between atoms: N_1  and  C_2
REMARK    2  A    between atoms: C_2  and  C_3
REMARK    3  A    between atoms: C_3  and  N_4
REMARK    4  A    between atoms: C_3  and  C_20
REMARK    5  A    between atoms: N_4  and  C_5
REMARK    6  A    between atoms: C_5  and  C_6
REMARK    7  A    between atoms: C_9  and  C_10
REMARK    8  A    between atoms: C_10  and  O_11
REMARK    9  A    between atoms: O_11  and  C_12
REMARK   10  A    between atoms: C_12  and  C_13
REMARK                            x       y       z     vdW  Elec       q    Type
REMARK                         _______ _______ _______ _____ _____    ______ ____
ROOT
ATOM      1  N   UNL     1       2.496  -0.438  -2.433  0.00  0.00    +0.000 NA
ATOM      2  H   UNL     1       2.830  -1.058  -3.178  0.00  0.00    +0.000 HD
ENDROOT
BRANCH   1   3
ATOM      3  C   UNL     1       2.958  -0.972  -1.138  0.00  0.00    +0.000 C 
BRANCH   3   4
ATOM      4  C   UNL     1       4.476  -1.092  -1.196  0.00  0.00    +0.000 A 
ATOM      5  C   UNL     1       5.327  -0.237  -1.883  0.00  0.00    +0.000 A 
ATOM      6  S   UNL     1       6.978  -0.638  -1.712  0.00  0.00    +0.000 S 
ATOM      7  C   UNL     1       6.613  -1.941  -0.679  0.00  0.00    +0.000 A 
ATOM      8  N   UNL     1       7.595  -2.707  -0.133  0.00  0.00    +0.000 NA
ATOM      9  C   UNL     1       7.165  -3.639   0.652  0.00  0.00    +0.000 A 
ATOM     10  N   UNL     1       5.843  -3.881   0.934  0.00  0.00    +0.000 N 
ATOM     11  C   UNL     1       4.814  -3.143   0.397  0.00  0.00    +0.000 A 
ATOM     12  O   UNL     1       3.640  -3.381   0.665  0.00  0.00    +0.000 OA
ATOM     13  C   UNL     1       5.253  -2.078  -0.485  0.00  0.00    +0.000 A 
ATOM     14  H   UNL     1       5.575  -4.626   1.559  0.00  0.00    +0.000 HD
ENDBRANCH   3   4
BRANCH   3  15
ATOM     15  C   UNL     1       2.517  -0.110   0.091  0.00  0.00    +0.000 C 
BRANCH  15  16
ATOM     16  N   UNL     1       2.959   1.291   0.048  0.00  0.00    +0.000 NA
ATOM     17  H   UNL     1       2.559   1.811   0.824  0.00  0.00    +0.000 HD
ATOM     18  H   UNL     1       2.631   1.710  -0.823  0.00  0.00    +0.000 HD
ENDBRANCH  15  16
ENDBRANCH   3  15
ENDBRANCH   1   3
BRANCH   1  19
ATOM     19  C   UNL     1       1.035  -0.417  -2.547  0.00  0.00    +0.000 C 
BRANCH  19  20
ATOM     20  C   UNL     1       0.604   0.044  -3.924  0.00  0.00    +0.000 A 
ATOM     21  C   UNL     1      -0.155   1.203  -4.069  0.00  0.00    +0.000 A 
ATOM     22  C   UNL     1      -0.537   1.603  -5.347  0.00  0.00    +0.000 A 
ATOM     23  C   UNL     1      -0.154   0.840  -6.449  0.00  0.00    +0.000 A 
ATOM     24  C   UNL     1       0.608  -0.300  -6.207  0.00  0.00    +0.000 A 
ATOM     25  N   UNL     1       0.992  -0.716  -4.980  0.00  0.00    +0.000 NA
BRANCH  23  26
ATOM     26  C   UNL     1      -0.553   1.202  -7.847  0.00  0.00    +0.000 C 
BRANCH  26  27
ATOM     27  O   UNL     1      -1.301   0.109  -8.356  0.00  0.00    +0.000 OA
BRANCH  27  28
ATOM     28  C   UNL     1      -1.730   0.309  -9.698  0.00  0.00    +0.000 C 
BRANCH  28  29
ATOM     29  C   UNL     1      -2.474  -0.914 -10.085  0.00  0.00    +0.000 A 
ATOM     30  C   UNL     1      -2.786  -2.088  -9.427  0.00  0.00    +0.000 A 
ATOM     31  C   UNL     1      -3.519  -2.879 -10.340  0.00  0.00    +0.000 A 
ATOM     32  C   UNL     1      -3.613  -2.142 -11.497  0.00  0.00    +0.000 A 
ATOM     33  O   UNL     1      -2.981  -0.945 -11.354  0.00  0.00    +0.000 OA
ENDBRANCH  28  29
ENDBRANCH  27  28
ENDBRANCH  26  27
ENDBRANCH  23  26
ENDBRANCH  19  20
ENDBRANCH   1  19
TORSDOF 10
