REMARK  Name = 
REMARK  8 active torsions:
REMARK  status: ('A' for Active; 'I' for Inactive)
REMARK    1  A    between atoms: C_1  and  O_2
REMARK    2  A    between atoms: O_2  and  C_3
REMARK    3  A    between atoms: C_10  and  C_11
REMARK    4  A    between atoms: N_13  and  C_14
REMARK    5  A    between atoms: C_14  and  C_15
REMARK    6  A    between atoms: C_18  and  N_19
REMARK    7  A    between atoms: N_19  and  C_20
REMARK    8  A    between atoms: C_20  and  C_21
REMARK                            x       y       z     vdW  Elec       q    Type
REMARK                         _______ _______ _______ _____ _____    ______ ____
ROOT
ATOM      1  C   UNL     1       3.023  -0.214   3.346  0.00  0.00    +0.000 C 
ENDROOT
BRANCH   1   2
ATOM      2  C   UNL     1       1.914   0.808   3.318  0.00  0.00    +0.000 A 
ATOM      3  C   UNL     1       0.574   0.410   3.394  0.00  0.00    +0.000 A 
ATOM      4  C   UNL     1      -0.456   1.360   3.416  0.00  0.00    +0.000 A 
ATOM      5  C   UNL     1      -0.188   2.730   3.334  0.00  0.00    +0.000 A 
ATOM      6  C   UNL     1       1.157   3.118   3.230  0.00  0.00    +0.000 A 
ATOM      7  C   UNL     1       2.194   2.174   3.207  0.00  0.00    +0.000 A 
BRANCH   5   8
ATOM      8  N   UNL     1      -1.172   3.724   3.450  0.00  0.00    +0.000 N 
ATOM      9  H   UNL     1      -1.022   4.470   2.773  0.00  0.00    +0.000 HD
BRANCH   8  10
ATOM     10  C   UNL     1      -2.574   3.347   3.694  0.00  0.00    +0.000 C 
BRANCH  10  11
ATOM     11  C   UNL     1      -3.503   4.573   3.801  0.00  0.00    +0.000 C 
ATOM     12  C   UNL     1      -3.106   5.468   4.979  0.00  0.00    +0.000 C 
ATOM     13  C   UNL     1      -4.063   6.643   5.133  0.00  0.00    +0.000 C 
ATOM     14  O   UNL     1      -5.410   6.194   5.266  0.00  0.00    +0.000 OA
ATOM     15  C   UNL     1      -5.849   5.472   4.117  0.00  0.00    +0.000 C 
ATOM     16  C   UNL     1      -5.003   4.212   3.930  0.00  0.00    +0.000 C 
ENDBRANCH  10  11
ENDBRANCH   8  10
ENDBRANCH   5   8
ENDBRANCH   1   2
BRANCH   1  19
ATOM     17  C   UNL     1       4.331  -1.593   1.778  0.00  0.00    +0.000 C 
ATOM     18  O   UNL     1       4.984  -2.101   2.698  0.00  0.00    +0.000 OA
ATOM     19  N   UNL     1       3.360  -0.668   2.023  0.00  0.00    +0.000 N 
ATOM     20  H   UNL     1       2.920  -0.188   1.249  0.00  0.00    +0.000 HD
BRANCH  17  28
ATOM     21  C   UNL     1       2.869  -0.640  -1.167  0.00  0.00    +0.000 A 
ATOM     22  N   UNL     1       2.475  -0.437  -2.437  0.00  0.00    +0.000 NA
ATOM     23  C   UNL     1       3.107  -1.102  -3.401  0.00  0.00    +0.000 A 
ATOM     24  N   UNL     1       4.096  -1.979  -3.250  0.00  0.00    +0.000 NA
ATOM     25  C   UNL     1       4.457  -2.155  -1.970  0.00  0.00    +0.000 A 
ATOM     26  S   UNL     1       5.714  -3.231  -1.584  0.00  0.00    +0.000 S 
ATOM     27  C   UNL     1       5.560  -2.898   0.077  0.00  0.00    +0.000 A 
ATOM     28  C   UNL     1       4.572  -1.965   0.373  0.00  0.00    +0.000 A 
ATOM     29  C   UNL     1       3.910  -1.528  -0.852  0.00  0.00    +0.000 A 
BRANCH  21  31
ATOM     30  C   UNL     1       0.944   0.506  -0.565  0.00  0.00    +0.000 C 
ATOM     31  O   UNL     1       2.267   0.126  -0.194  0.00  0.00    +0.000 OA
ENDBRANCH  21  31
ENDBRANCH  17  28
ENDBRANCH   1  19
TORSDOF 7
