REMARK  Name = 
REMARK  7 active torsions:
REMARK  status: ('A' for Active; 'I' for Inactive)
REMARK    1  A    between atoms: C_1  and  S_2
REMARK    2  A    between atoms: S_2  and  C_5
REMARK    3  A    between atoms: N_9  and  C_10
REMARK    4  A    between atoms: C_10  and  C_11
REMARK    5  A    between atoms: C_11  and  C_14
REMARK    6  A    between atoms: C_18  and  O_19
REMARK    7  A    between atoms: O_19  and  C_20
REMARK                            x       y       z     vdW  Elec       q    Type
REMARK                         _______ _______ _______ _____ _____    ______ ____
ROOT
ATOM      1  C   UNL     1       4.786   4.532  -6.696  0.00  0.00    +0.000 C 
ATOM      2  F   UNL     1       6.101   4.189  -6.840  0.00  0.00    +0.000 F 
ATOM      3  F   UNL     1       4.113   3.770  -7.609  0.00  0.00    +0.000 F 
ENDROOT
BRANCH   1   4
ATOM      4  C   UNL     1       4.558   6.018  -6.909  0.00  0.00    +0.000 A 
ATOM      5  C   UNL     1       5.529   6.957  -6.534  0.00  0.00    +0.000 A 
ATOM      6  C   UNL     1       5.302   8.322  -6.726  0.00  0.00    +0.000 A 
ATOM      7  C   UNL     1       4.099   8.772  -7.284  0.00  0.00    +0.000 A 
ATOM      8  C   UNL     1       3.118   7.850  -7.640  0.00  0.00    +0.000 A 
ATOM      9  C   UNL     1       3.354   6.484  -7.460  0.00  0.00    +0.000 A 
BRANCH   8  10
ATOM     10  O   UNL     1       1.907   8.151  -8.211  0.00  0.00    +0.000 OA
BRANCH  10  11
ATOM     11  C   UNL     1       1.354   9.479  -8.079  0.00  0.00    +0.000 C 
ATOM     12  C   UNL     1       0.809   9.909  -6.698  0.00  0.00    +0.000 C 
ATOM     13  N   UNL     1      -0.387  10.479  -7.359  0.00  0.00    +0.000 NA
ATOM     14  C   UNL     1      -0.124   9.610  -8.526  0.00  0.00    +0.000 C 
ATOM     15  H   UNL     1      -0.307  11.474  -7.570  0.00  0.00    +0.000 HD
ENDBRANCH  10  11
ENDBRANCH   8  10
ENDBRANCH   1   4
BRANCH   1  16
ATOM     16  C   UNL     1       4.323   4.128  -5.275  0.00  0.00    +0.000 C 
BRANCH  16  21
ATOM     17  C   UNL     1       3.367   0.886  -1.430  0.00  0.00    +0.000 A 
ATOM     18  C   UNL     1       3.208   2.260  -1.524  0.00  0.00    +0.000 A 
ATOM     19  C   UNL     1       3.569   2.890  -2.714  0.00  0.00    +0.000 A 
ATOM     20  C   UNL     1       4.084   2.145  -3.773  0.00  0.00    +0.000 A 
ATOM     21  N   UNL     1       4.456   2.704  -4.966  0.00  0.00    +0.000 N 
ATOM     22  N   UNL     1       4.248   0.810  -3.670  0.00  0.00    +0.000 NA
ATOM     23  C   UNL     1       3.903   0.205  -2.503  0.00  0.00    +0.000 A 
ATOM     24  H   UNL     1       4.819   2.061  -5.659  0.00  0.00    +0.000 HD
BRANCH  17  26
ATOM     25  C   UNL     1       1.232  -0.372  -0.186  0.00  0.00    +0.000 C 
ATOM     26  S   UNL     1       2.943   0.035   0.052  0.00  0.00    +0.000 S 
ATOM     27  O   UNL     1       3.028   0.992   1.138  0.00  0.00    +0.000 OA
ATOM     28  O   UNL     1       3.702  -1.198   0.083  0.00  0.00    +0.000 OA
ENDBRANCH  17  26
ENDBRANCH  16  21
ENDBRANCH   1  16
TORSDOF 6
