REMARK  Name = 
REMARK  11 active torsions:
REMARK  status: ('A' for Active; 'I' for Inactive)
REMARK    1  A    between atoms: C_1  and  C_2
REMARK    2  A    between atoms: N_4  and  C_5
REMARK    3  A    between atoms: C_7  and  C_8
REMARK    4  A    between atoms: C_13  and  C_14
REMARK    5  A    between atoms: C_14  and  C_15
REMARK    6  A    between atoms: C_14  and  C_16
REMARK    7  A    between atoms: C_14  and  C_17
REMARK    8  A    between atoms: C_17  and  N_18
REMARK    9  A    between atoms: N_18  and  C_19
REMARK   10  A    between atoms: C_22  and  C_23
REMARK   11  A    between atoms: C_30  and  C_31
REMARK                            x       y       z     vdW  Elec       q    Type
REMARK                         _______ _______ _______ _____ _____    ______ ____
ROOT
ATOM      1  C   UNL     1       1.970   1.393  -3.274  0.00  0.00    +0.000 A 
ATOM      2  C   UNL     1       2.392   2.652  -3.711  0.00  0.00    +0.000 A 
ATOM      3  C   UNL     1       1.627   3.423  -4.594  0.00  0.00    +0.000 A 
ATOM      4  C   UNL     1       0.404   2.919  -5.059  0.00  0.00    +0.000 A 
ATOM      5  C   UNL     1      -0.045   1.639  -4.703  0.00  0.00    +0.000 A 
ATOM      6  C   UNL     1       0.732   0.937  -3.755  0.00  0.00    +0.000 A 
ENDROOT
BRANCH   1  10
ATOM      7  C   UNL     1       1.930  -2.353  -3.085  0.00  0.00    +0.000 C 
ATOM      8  C   UNL     1       2.672  -1.787  -1.877  0.00  0.00    +0.000 C 
ATOM      9  C   UNL     1       2.226  -0.361  -1.491  0.00  0.00    +0.000 C 
ATOM     10  N   UNL     1       2.759   0.645  -2.421  0.00  0.00    +0.000 N 
ATOM     11  C   UNL     1       4.212   0.532  -2.656  0.00  0.00    +0.000 C 
ATOM     12  C   UNL     1       4.590  -0.920  -3.026  0.00  0.00    +0.000 C 
ATOM     13  C   UNL     1       6.105  -1.079  -3.094  0.00  0.00    +0.000 C 
ATOM     14  O   UNL     1       4.099  -1.866  -2.058  0.00  0.00    +0.000 OA
ENDBRANCH   1  10
BRANCH   3  15
ATOM     15  C   UNL     1       2.126   4.754  -5.093  0.00  0.00    +0.000 C 
ATOM     16  F   UNL     1       3.356   5.094  -4.619  0.00  0.00    +0.000 F 
ATOM     17  F   UNL     1       2.236   4.778  -6.452  0.00  0.00    +0.000 F 
ATOM     18  F   UNL     1       1.298   5.784  -4.769  0.00  0.00    +0.000 F 
ENDBRANCH   3  15
BRANCH   5  19
ATOM     19  C   UNL     1      -1.307   1.009  -5.360  0.00  0.00    +0.000 C 
ATOM     20  C   UNL     1      -2.546   1.416  -4.542  0.00  0.00    +0.000 C 
ATOM     21  C   UNL     1      -1.459   1.514  -6.817  0.00  0.00    +0.000 C 
BRANCH  19  22
ATOM     22  C   UNL     1      -1.201  -0.552  -5.386  0.00  0.00    +0.000 C 
BRANCH  22  23
ATOM     23  N   UNL     1      -2.334  -1.238  -6.030  0.00  0.00    +0.000 N 
ATOM     24  H   UNL     1      -2.554  -0.867  -6.951  0.00  0.00    +0.000 HD
BRANCH  23  25
ATOM     25  C   UNL     1      -2.249  -2.643  -6.078  0.00  0.00    +0.000 A 
ATOM     26  C   UNL     1      -2.899  -3.333  -7.108  0.00  0.00    +0.000 A 
ATOM     27  C   UNL     1      -2.841  -4.727  -7.166  0.00  0.00    +0.000 A 
ATOM     28  C   UNL     1      -2.162  -5.400  -6.161  0.00  0.00    +0.000 A 
ATOM     29  N   UNL     1      -1.567  -4.783  -5.107  0.00  0.00    +0.000 NA
ATOM     30  C   UNL     1      -1.650  -3.433  -5.093  0.00  0.00    +0.000 A 
BRANCH  28  31
ATOM     31  C   UNL     1      -2.044  -6.890  -6.200  0.00  0.00    +0.000 C 
ATOM     32  N   UNL     1      -1.349  -7.449  -5.161  0.00  0.00    +0.000 N 
ATOM     33  O   UNL     1      -2.520  -7.570  -7.102  0.00  0.00    +0.000 OA
ATOM     34  H   UNL     1      -0.949  -6.847  -4.451  0.00  0.00    +0.000 HD
ATOM     35  H   UNL     1      -1.203  -8.447  -5.136  0.00  0.00    +0.000 HD
ENDBRANCH  28  31
ENDBRANCH  23  25
ENDBRANCH  22  23
ENDBRANCH  19  22
ENDBRANCH   5  19
TORSDOF 7
