REMARK  Name = 
REMARK  5 active torsions:
REMARK  status: ('A' for Active; 'I' for Inactive)
REMARK    1  A    between atoms: C_2  and  C_4
REMARK    2  A    between atoms: C_7  and  N_8
REMARK    3  A    between atoms: N_8  and  C_9
REMARK    4  A    between atoms: C_9  and  C_10
REMARK    5  A    between atoms: C_14  and  C_15
REMARK                            x       y       z     vdW  Elec       q    Type
REMARK                         _______ _______ _______ _____ _____    ______ ____
ROOT
ATOM      1  C   UNL     1       4.729   5.891  -1.114  0.00  0.00    +0.000 C 
ENDROOT
BRANCH   1   2
ATOM      2  C   UNL     1       5.482   7.105  -1.587  0.00  0.00    +0.000 A 
ATOM      3  C   UNL     1       4.866   8.359  -1.552  0.00  0.00    +0.000 A 
ATOM      4  C   UNL     1       5.537   9.482  -2.012  0.00  0.00    +0.000 A 
ATOM      5  C   UNL     1       6.840   9.367  -2.495  0.00  0.00    +0.000 A 
ATOM      6  C   UNL     1       7.509   8.136  -2.502  0.00  0.00    +0.000 A 
ATOM      7  C   UNL     1       6.790   7.000  -2.086  0.00  0.00    +0.000 A 
BRANCH   6   8
ATOM      8  C   UNL     1       8.975   7.986  -2.909  0.00  0.00    +0.000 C 
ATOM      9  C   UNL     1       9.816   7.371  -1.770  0.00  0.00    +0.000 C 
ATOM     10  C   UNL     1      10.143   8.384  -0.673  0.00  0.00    +0.000 C 
ATOM     11  N   UNL     1      10.814   9.575  -1.195  0.00  0.00    +0.000 NA
ATOM     12  C   UNL     1      10.056  10.221  -2.261  0.00  0.00    +0.000 C 
ATOM     13  C   UNL     1       9.682   9.265  -3.399  0.00  0.00    +0.000 C 
ATOM     14  H   UNL     1      11.737   9.313  -1.550  0.00  0.00    +0.000 HD
ENDBRANCH   6   8
ENDBRANCH   1   2
BRANCH   1  15
ATOM     15  N   UNL     1       4.370   6.016   0.293  0.00  0.00    +0.000 N 
ATOM     16  H   UNL     1       5.138   6.331   0.883  0.00  0.00    +0.000 HD
BRANCH  15  20
ATOM     17  C   UNL     1       2.067   3.007   2.146  0.00  0.00    +0.000 A 
ATOM     18  C   UNL     1       2.458   2.854   0.816  0.00  0.00    +0.000 A 
ATOM     19  C   UNL     1       3.218   3.844   0.197  0.00  0.00    +0.000 A 
ATOM     20  C   UNL     1       3.635   4.990   0.890  0.00  0.00    +0.000 A 
ATOM     21  C   UNL     1       3.204   5.143   2.216  0.00  0.00    +0.000 A 
ATOM     22  C   UNL     1       2.421   4.165   2.841  0.00  0.00    +0.000 A 
BRANCH  17  24
ATOM     23  N   UNL     1       1.401   0.683   2.389  0.00  0.00    +0.000 N 
ATOM     24  C   UNL     1       1.251   1.970   2.824  0.00  0.00    +0.000 C 
ATOM     25  O   UNL     1       0.507   2.233   3.760  0.00  0.00    +0.000 OA
ATOM     26  H   UNL     1       0.923  -0.027   2.926  0.00  0.00    +0.000 HD
ATOM     27  H   UNL     1       2.186   0.392   1.822  0.00  0.00    +0.000 HD
ENDBRANCH  17  24
ENDBRANCH  15  20
ENDBRANCH   1  15
TORSDOF 5
