REMARK  Name = 
REMARK  5 active torsions:
REMARK  status: ('A' for Active; 'I' for Inactive)
REMARK    1  A    between atoms: N_1  and  C_2
REMARK    2  A    between atoms: C_2  and  C_3
REMARK    3  A    between atoms: C_3  and  C_4
REMARK    4  A    between atoms: N_7  and  C_8
REMARK    5  A    between atoms: C_8  and  C_9
REMARK                            x       y       z     vdW  Elec       q    Type
REMARK                         _______ _______ _______ _____ _____    ______ ____
ROOT
ATOM      1  C   UNL     1       4.767   1.204  -4.796  0.00  0.00    +0.000 C 
ENDROOT
BRANCH   1   2
ATOM      2  C   UNL     1       5.306  -0.014  -5.491  0.00  0.00    +0.000 A 
ATOM      3  C   UNL     1       6.638  -0.304  -5.733  0.00  0.00    +0.000 A 
ATOM      4  N   UNL     1       6.716  -1.550  -6.293  0.00  0.00    +0.000 N 
ATOM      5  C   UNL     1       5.461  -2.096  -6.418  0.00  0.00    +0.000 A 
ATOM      6  C   UNL     1       5.068  -3.367  -6.866  0.00  0.00    +0.000 A 
ATOM      7  C   UNL     1       3.700  -3.657  -6.896  0.00  0.00    +0.000 A 
ATOM      8  C   UNL     1       2.761  -2.697  -6.536  0.00  0.00    +0.000 A 
ATOM      9  C   UNL     1       3.174  -1.437  -6.094  0.00  0.00    +0.000 A 
ATOM     10  F   UNL     1       2.242  -0.532  -5.763  0.00  0.00    +0.000 F 
ATOM     11  C   UNL     1       4.546  -1.129  -5.997  0.00  0.00    +0.000 A 
ATOM     12  H   UNL     1       7.574  -2.018  -6.548  0.00  0.00    +0.000 HD
ENDBRANCH   1   2
BRANCH   1  16
ATOM     13  C   UNL     1       4.443   1.387  -0.498  0.00  0.00    +0.000 C 
ATOM     14  C   UNL     1       4.925   2.626  -1.267  0.00  0.00    +0.000 C 
ATOM     15  C   UNL     1       4.685   2.511  -2.778  0.00  0.00    +0.000 C 
ATOM     16  N   UNL     1       5.219   1.274  -3.381  0.00  0.00    +0.000 NA
ATOM     17  C   UNL     1       4.822   0.070  -2.632  0.00  0.00    +0.000 C 
ATOM     18  C   UNL     1       5.129   0.175  -1.136  0.00  0.00    +0.000 C 
BRANCH  13  19
ATOM     19  C   UNL     1       2.898   1.300  -0.485  0.00  0.00    +0.000 C 
BRANCH  19  20
ATOM     20  C   UNL     1       2.352   0.080   0.261  0.00  0.00    +0.000 C 
BRANCH  20  21
ATOM     21  N   UNL     1       0.892   0.083   0.219  0.00  0.00    +0.000 NA
ATOM     22  H   UNL     1       0.541  -0.759   0.672  0.00  0.00    +0.000 HD
ATOM     23  H   UNL     1       0.581   0.030  -0.752  0.00  0.00    +0.000 HD
ENDBRANCH  20  21
ENDBRANCH  19  20
ENDBRANCH  13  19
ENDBRANCH   1  16
TORSDOF 5
