REMARK  Name = 
REMARK  5 active torsions:
REMARK  status: ('A' for Active; 'I' for Inactive)
REMARK    1  A    between atoms: C_2  and  C_3
REMARK    2  A    between atoms: C_6  and  N_7
REMARK    3  A    between atoms: N_7  and  C_8
REMARK    4  A    between atoms: C_8  and  C_9
REMARK    5  A    between atoms: C_13  and  C_14
REMARK                            x       y       z     vdW  Elec       q    Type
REMARK                         _______ _______ _______ _____ _____    ______ ____
ROOT
ATOM      1  C   UNL     1       9.643   0.223  -0.549  0.00  0.00    +0.000 A 
ATOM      2  C   UNL     1       9.672   1.242  -1.515  0.00  0.00    +0.000 A 
ATOM      3  C   UNL     1      10.463   2.374  -1.345  0.00  0.00    +0.000 A 
ATOM      4  C   UNL     1      11.268   2.496  -0.212  0.00  0.00    +0.000 A 
ATOM      5  C   UNL     1      11.329   1.480   0.754  0.00  0.00    +0.000 A 
ATOM      6  C   UNL     1      10.511   0.347   0.552  0.00  0.00    +0.000 A 
ENDROOT
BRANCH   5   7
ATOM      7  C   UNL     1      12.176   1.603   1.963  0.00  0.00    +0.000 A 
ATOM      8  C   UNL     1      12.366   2.841   2.604  0.00  0.00    +0.000 A 
ATOM      9  C   UNL     1      13.156   2.942   3.751  0.00  0.00    +0.000 A 
ATOM     10  F   UNL     1      13.318   4.135   4.332  0.00  0.00    +0.000 F 
ATOM     11  C   UNL     1      13.768   1.828   4.303  0.00  0.00    +0.000 A 
ATOM     12  C   UNL     1      13.587   0.603   3.683  0.00  0.00    +0.000 A 
ATOM     13  F   UNL     1      14.164  -0.489   4.199  0.00  0.00    +0.000 F 
ATOM     14  C   UNL     1      12.812   0.484   2.529  0.00  0.00    +0.000 A 
ENDBRANCH   5   7
BRANCH   1  15
ATOM     15  C   UNL     1       8.567  -0.855  -0.581  0.00  0.00    +0.000 C 
ATOM     16  C   UNL     1       8.359  -1.639  -1.870  0.00  0.00    +0.000 C 
ATOM     17  C   UNL     1       8.951  -2.314  -0.678  0.00  0.00    +0.000 C 
BRANCH  15  18
ATOM     18  N   UNL     1       7.322  -0.368   0.026  0.00  0.00    +0.000 N 
ATOM     19  H   UNL     1       7.046   0.575  -0.245  0.00  0.00    +0.000 HD
BRANCH  18  23
ATOM     20  C   UNL     1       5.809  -0.791   3.799  0.00  0.00    +0.000 A 
ATOM     21  C   UNL     1       5.579   0.331   3.025  0.00  0.00    +0.000 A 
ATOM     22  N   UNL     1       6.140   0.499   1.804  0.00  0.00    +0.000 NA
ATOM     23  C   UNL     1       6.947  -0.494   1.359  0.00  0.00    +0.000 A 
ATOM     24  C   UNL     1       7.215  -1.591   2.174  0.00  0.00    +0.000 A 
ATOM     25  N   UNL     1       6.657  -1.771   3.404  0.00  0.00    +0.000 NA
BRANCH  20  27
ATOM     26  N   UNL     1       4.477  -1.104   6.001  0.00  0.00    +0.000 NA
ATOM     27  C   UNL     1       5.098  -0.985   5.022  0.00  0.00    +0.000 C 
ENDBRANCH  20  27
ENDBRANCH  18  23
ENDBRANCH  15  18
ENDBRANCH   1  15
TORSDOF 5
