REMARK  Name = 
REMARK  9 active torsions:
REMARK  status: ('A' for Active; 'I' for Inactive)
REMARK    1  A    between atoms: C_2  and  C_22
REMARK    2  A    between atoms: N_3  and  C_4
REMARK    3  A    between atoms: C_4  and  C_5
REMARK    4  A    between atoms: C_8  and  C_9
REMARK    5  A    between atoms: C_9  and  C_10
REMARK    6  A    between atoms: C_9  and  C_12
REMARK    7  A    between atoms: C_10  and  O_11
REMARK    8  A    between atoms: C_12  and  C_13
REMARK    9  A    between atoms: C_13  and  C_14
REMARK                            x       y       z     vdW  Elec       q    Type
REMARK                         _______ _______ _______ _____ _____    ______ ____
ROOT
ATOM      1  C   UNL     1       3.348  -0.613   3.506  0.00  0.00    +0.000 A 
ATOM      2  C   UNL     1       3.943   0.502   4.082  0.00  0.00    +0.000 A 
ATOM      3  C   UNL     1       4.837   0.324   5.129  0.00  0.00    +0.000 A 
ATOM      4  C   UNL     1       5.105  -0.960   5.613  0.00  0.00    +0.000 A 
ATOM      5  C   UNL     1       4.447  -2.016   4.986  0.00  0.00    +0.000 A 
ATOM      6  N   UNL     1       3.585  -1.873   3.952  0.00  0.00    +0.000 NA
ENDROOT
BRANCH   1   7
ATOM      7  C   UNL     1       2.389  -0.436   2.355  0.00  0.00    +0.000 C 
BRANCH   7  10
ATOM      8  O   UNL     1       1.197   2.032   3.038  0.00  0.00    +0.000 OA
ATOM      9  C   UNL     1       0.515   1.011   3.064  0.00  0.00    +0.000 C 
ATOM     10  N   UNL     1       1.032  -0.226   2.797  0.00  0.00    +0.000 N 
ATOM     11  H   UNL     1       0.437  -1.046   2.809  0.00  0.00    +0.000 HD
BRANCH   9  12
ATOM     12  C   UNL     1      -0.908   1.046   3.413  0.00  0.00    +0.000 A 
ATOM     13  C   UNL     1      -1.415   2.080   4.185  0.00  0.00    +0.000 A 
ATOM     14  S   UNL     1      -3.095   1.964   4.460  0.00  0.00    +0.000 S 
ATOM     15  C   UNL     1      -3.208   0.549   3.521  0.00  0.00    +0.000 A 
ATOM     16  N   UNL     1      -4.405  -0.060   3.306  0.00  0.00    +0.000 NA
ATOM     17  C   UNL     1      -4.350  -1.094   2.538  0.00  0.00    +0.000 A 
ATOM     18  N   UNL     1      -3.202  -1.587   1.975  0.00  0.00    +0.000 N 
ATOM     19  C   UNL     1      -1.963  -1.049   2.217  0.00  0.00    +0.000 A 
ATOM     20  O   UNL     1      -0.947  -1.590   1.790  0.00  0.00    +0.000 OA
ATOM     21  C   UNL     1      -1.976   0.150   3.034  0.00  0.00    +0.000 A 
ATOM     22  H   UNL     1      -3.220  -2.422   1.409  0.00  0.00    +0.000 HD
ENDBRANCH   9  12
ENDBRANCH   7  10
ENDBRANCH   1   7
BRANCH   4  23
ATOM     23  C   UNL     1       6.098  -1.225   6.732  0.00  0.00    +0.000 C 
BRANCH  23  24
ATOM     24  C   UNL     1       7.492  -1.515   6.135  0.00  0.00    +0.000 C 
BRANCH  24  25
ATOM     25  O   UNL     1       8.047  -0.376   5.484  0.00  0.00    +0.000 OA
ATOM     26  H   UNL     1       7.496  -0.194   4.702  0.00  0.00    +0.000 HD
ENDBRANCH  24  25
ENDBRANCH  23  24
BRANCH  23  27
ATOM     27  C   UNL     1       6.193  -0.105   7.794  0.00  0.00    +0.000 C 
BRANCH  27  28
ATOM     28  C   UNL     1       4.868   0.159   8.519  0.00  0.00    +0.000 C 
BRANCH  28  29
ATOM     29  C   UNL     1       5.004   1.271   9.530  0.00  0.00    +0.000 A 
ATOM     30  C   UNL     1       4.778   2.604   9.159  0.00  0.00    +0.000 A 
ATOM     31  C   UNL     1       4.899   3.630  10.097  0.00  0.00    +0.000 A 
ATOM     32  C   UNL     1       5.253   3.334  11.412  0.00  0.00    +0.000 A 
ATOM     33  C   UNL     1       5.497   2.014  11.787  0.00  0.00    +0.000 A 
ATOM     34  C   UNL     1       5.378   0.987  10.850  0.00  0.00    +0.000 A 
ENDBRANCH  28  29
ENDBRANCH  27  28
ENDBRANCH  23  27
ENDBRANCH   4  23
TORSDOF 9
