REMARK  Name = 
REMARK  9 active torsions:
REMARK  status: ('A' for Active; 'I' for Inactive)
REMARK    1  A    between atoms: C_1  and  O_2
REMARK    2  A    between atoms: O_2  and  C_3
REMARK    3  A    between atoms: C_10  and  C_11
REMARK    4  A    between atoms: N_13  and  C_14
REMARK    5  A    between atoms: C_14  and  C_15
REMARK    6  A    between atoms: C_18  and  O_19
REMARK    7  A    between atoms: O_19  and  C_20
REMARK    8  A    between atoms: C_20  and  C_21
REMARK    9  A    between atoms: C_21  and  N_22
REMARK                            x       y       z     vdW  Elec       q    Type
REMARK                         _______ _______ _______ _____ _____    ______ ____
ROOT
ATOM      1  C   UNL     1       4.730  -0.082   2.280  0.00  0.00    +0.000 C 
ATOM      2  O   UNL     1       4.972  -0.474   3.420  0.00  0.00    +0.000 OA
ATOM      3  N   UNL     1       3.741   0.831   2.046  0.00  0.00    +0.000 N 
ATOM      4  H   UNL     1       3.593   1.197   1.113  0.00  0.00    +0.000 HD
ENDROOT
BRANCH   1  12
ATOM      5  C   UNL     1       4.480   0.406  -1.124  0.00  0.00    +0.000 A 
ATOM      6  N   UNL     1       4.619   0.420  -2.466  0.00  0.00    +0.000 NA
ATOM      7  C   UNL     1       5.605  -0.301  -3.006  0.00  0.00    +0.000 A 
ATOM      8  N   UNL     1       6.489  -1.055  -2.361  0.00  0.00    +0.000 NA
ATOM      9  C   UNL     1       6.321  -1.038  -1.027  0.00  0.00    +0.000 A 
ATOM     10  S   UNL     1       7.360  -1.952  -0.045  0.00  0.00    +0.000 S 
ATOM     11  C   UNL     1       6.557  -1.442   1.362  0.00  0.00    +0.000 A 
ATOM     12  C   UNL     1       5.498  -0.573   1.124  0.00  0.00    +0.000 A 
ATOM     13  C   UNL     1       5.355  -0.336  -0.311  0.00  0.00    +0.000 A 
BRANCH   5  15
ATOM     14  C   UNL     1       2.390   1.397  -1.454  0.00  0.00    +0.000 C 
ATOM     15  O   UNL     1       3.488   1.186  -0.568  0.00  0.00    +0.000 OA
ENDBRANCH   5  15
ENDBRANCH   1  12
BRANCH   3  16
ATOM     16  C   UNL     1       2.941   1.373   3.117  0.00  0.00    +0.000 C 
BRANCH  16  17
ATOM     17  C   UNL     1       1.878   2.292   2.577  0.00  0.00    +0.000 A 
ATOM     18  C   UNL     1       0.630   1.789   2.185  0.00  0.00    +0.000 A 
ATOM     19  C   UNL     1      -0.337   2.631   1.625  0.00  0.00    +0.000 A 
ATOM     20  C   UNL     1      -0.069   3.989   1.459  0.00  0.00    +0.000 A 
ATOM     21  C   UNL     1       1.179   4.493   1.830  0.00  0.00    +0.000 A 
ATOM     22  C   UNL     1       2.146   3.654   2.387  0.00  0.00    +0.000 A 
BRANCH  20  23
ATOM     23  O   UNL     1      -0.929   4.907   0.923  0.00  0.00    +0.000 OA
BRANCH  23  24
ATOM     24  C   UNL     1      -2.326   4.590   1.008  0.00  0.00    +0.000 C 
BRANCH  24  25
ATOM     25  C   UNL     1      -3.109   5.915   0.984  0.00  0.00    +0.000 C 
BRANCH  25  26
ATOM     26  N   UNL     1      -4.577   5.775   1.067  0.00  0.00    +0.000 NA
ATOM     27  C   UNL     1      -5.225   7.100   1.001  0.00  0.00    +0.000 C 
ATOM     28  C   UNL     1      -5.206   7.614   2.431  0.00  0.00    +0.000 C 
ATOM     29  C   UNL     1      -5.442   6.364   3.253  0.00  0.00    +0.000 C 
ATOM     30  C   UNL     1      -5.043   5.206   2.344  0.00  0.00    +0.000 C 
ENDBRANCH  25  26
ENDBRANCH  24  25
ENDBRANCH  23  24
ENDBRANCH  20  23
ENDBRANCH  16  17
ENDBRANCH   3  16
TORSDOF 8
