REMARK  Name = 
REMARK  5 active torsions:
REMARK  status: ('A' for Active; 'I' for Inactive)
REMARK    1  A    between atoms: C_1  and  C_2
REMARK    2  A    between atoms: C_2  and  C_3
REMARK    3  A    between atoms: C_2  and  C_14
REMARK    4  A    between atoms: C_3  and  N_4
REMARK    5  A    between atoms: C_8  and  C_9
REMARK                            x       y       z     vdW  Elec       q    Type
REMARK                         _______ _______ _______ _____ _____    ______ ____
ROOT
ATOM      1  N   UNL     1       2.665  -2.101   1.377  0.00  0.00    +0.000 N 
ATOM      2  C   UNL     1       3.104  -3.434   1.490  0.00  0.00    +0.000 A 
ATOM      3  C   UNL     1       2.872  -4.106   2.686  0.00  0.00    +0.000 A 
ATOM      4  C   UNL     1       3.284  -5.434   2.823  0.00  0.00    +0.000 A 
ATOM      5  C   UNL     1       3.927  -6.071   1.762  0.00  0.00    +0.000 A 
ATOM      6  C   UNL     1       4.143  -5.320   0.620  0.00  0.00    +0.000 A 
ATOM      7  N   UNL     1       3.752  -4.028   0.468  0.00  0.00    +0.000 NA
ATOM      8  H   UNL     1       1.671  -2.075   1.595  0.00  0.00    +0.000 HD
ENDROOT
BRANCH   5   9
ATOM      9  C   UNL     1       4.333  -7.489   1.903  0.00  0.00    +0.000 C 
ATOM     10  N   UNL     1       4.927  -8.124   0.847  0.00  0.00    +0.000 N 
ATOM     11  O   UNL     1       4.133  -8.104   2.945  0.00  0.00    +0.000 OA
ATOM     12  H   UNL     1       5.117  -7.725  -0.059  0.00  0.00    +0.000 HD
ATOM     13  H   UNL     1       5.164  -9.098   0.984  0.00  0.00    +0.000 HD
ENDBRANCH   5   9
BRANCH   1  14
ATOM     14  C   UNL     1       2.941  -1.501   0.067  0.00  0.00    +0.000 C 
BRANCH  14  16
ATOM     15  C   UNL     1       3.189   0.868   0.980  0.00  0.00    +0.000 C 
ATOM     16  C   UNL     1       2.458  -0.036  -0.022  0.00  0.00    +0.000 C 
BRANCH  16  17
ATOM     17  C   UNL     1       0.940   0.098   0.025  0.00  0.00    +0.000 A 
ATOM     18  C   UNL     1       0.243   0.361   1.214  0.00  0.00    +0.000 A 
ATOM     19  C   UNL     1      -1.143   0.535   1.211  0.00  0.00    +0.000 A 
ATOM     20  C   UNL     1      -1.858   0.438   0.019  0.00  0.00    +0.000 A 
ATOM     21  C   UNL     1      -1.183   0.151  -1.164  0.00  0.00    +0.000 A 
ATOM     22 CL   UNL     1      -2.063   0.026  -2.638  0.00  0.00    +0.000 Cl
ATOM     23  C   UNL     1       0.202  -0.024  -1.166  0.00  0.00    +0.000 A 
ENDBRANCH  16  17
ENDBRANCH  14  16
ENDBRANCH   1  14
TORSDOF 4
