REMARK  Name = 
REMARK  6 active torsions:
REMARK  status: ('A' for Active; 'I' for Inactive)
REMARK    1  A    between atoms: C_2  and  C_4
REMARK    2  A    between atoms: N_8  and  C_9
REMARK    3  A    between atoms: C_9  and  C_10
REMARK    4  A    between atoms: C_10  and  C_11
REMARK    5  A    between atoms: C_15  and  C_16
REMARK    6  A    between atoms: C_16  and  C_17
REMARK                            x       y       z     vdW  Elec       q    Type
REMARK                         _______ _______ _______ _____ _____    ______ ____
ROOT
ATOM      1  C   UNL     1       2.822   1.353   0.659  0.00  0.00    +0.000 A 
ATOM      2  C   UNL     1       2.268   1.890   1.817  0.00  0.00    +0.000 A 
ATOM      3  C   UNL     1       3.085   2.605   2.691  0.00  0.00    +0.000 A 
ATOM      4  C   UNL     1       4.443   2.749   2.414  0.00  0.00    +0.000 A 
ATOM      5  N   UNL     1       5.295   3.510   3.201  0.00  0.00    +0.000 N 
ATOM      6  N   UNL     1       4.997   2.203   1.313  0.00  0.00    +0.000 NA
ATOM      7  C   UNL     1       4.183   1.515   0.466  0.00  0.00    +0.000 A 
ATOM      8  H   UNL     1       6.244   3.316   2.884  0.00  0.00    +0.000 HD
ENDROOT
BRANCH   1  10
ATOM      9  N   UNL     1       0.685   0.958  -0.423  0.00  0.00    +0.000 N 
ATOM     10  C   UNL     1       2.016   0.636  -0.348  0.00  0.00    +0.000 C 
ATOM     11  O   UNL     1       2.517  -0.186  -1.101  0.00  0.00    +0.000 OA
ATOM     12  H   UNL     1       0.171   0.545  -1.189  0.00  0.00    +0.000 HD
ATOM     13  H   UNL     1       0.303   1.795  -0.001  0.00  0.00    +0.000 HD
ENDBRANCH   1  10
BRANCH   5  14
ATOM     14  C   UNL     1       5.083   3.515   4.641  0.00  0.00    +0.000 C 
BRANCH  14  15
ATOM     15  C   UNL     1       6.137   4.366   5.354  0.00  0.00    +0.000 C 
BRANCH  15  16
ATOM     16  C   UNL     1       5.836   4.458   6.833  0.00  0.00    +0.000 A 
ATOM     17  C   UNL     1       6.310   3.474   7.709  0.00  0.00    +0.000 A 
ATOM     18  C   UNL     1       6.008   3.539   9.068  0.00  0.00    +0.000 A 
ATOM     19  C   UNL     1       5.242   4.593   9.570  0.00  0.00    +0.000 A 
ATOM     20  C   UNL     1       4.771   5.599   8.717  0.00  0.00    +0.000 A 
ATOM     21  C   UNL     1       5.053   5.506   7.344  0.00  0.00    +0.000 A 
BRANCH  20  22
ATOM     22  C   UNL     1       4.032   6.796   9.269  0.00  0.00    +0.000 C 
BRANCH  22  23
ATOM     23  C   UNL     1       2.524   6.604   9.241  0.00  0.00    +0.000 C 
ATOM     24  C   UNL     1       1.745   7.814   9.780  0.00  0.00    +0.000 C 
ATOM     25  O   UNL     1       1.080   7.008  10.776  0.00  0.00    +0.000 OA
ATOM     26  C   UNL     1       1.865   5.851  10.406  0.00  0.00    +0.000 C 
ENDBRANCH  22  23
ENDBRANCH  20  22
ENDBRANCH  15  16
ENDBRANCH  14  15
ENDBRANCH   5  14
TORSDOF 6
