REMARK  Name = 
REMARK  4 active torsions:
REMARK  status: ('A' for Active; 'I' for Inactive)
REMARK    1  A    between atoms: C_2  and  C_4
REMARK    2  A    between atoms: C_7  and  N_8
REMARK    3  A    between atoms: N_8  and  C_9
REMARK    4  A    between atoms: C_9  and  C_10
REMARK                            x       y       z     vdW  Elec       q    Type
REMARK                         _______ _______ _______ _____ _____    ______ ____
ROOT
ATOM      1  C   UNL     1       3.113   0.213   1.259  0.00  0.00    +0.000 A 
ATOM      2  C   UNL     1       2.557   0.575   2.489  0.00  0.00    +0.000 A 
ATOM      3  C   UNL     1       3.382   0.753   3.606  0.00  0.00    +0.000 A 
ATOM      4  C   UNL     1       4.767   0.568   3.518  0.00  0.00    +0.000 A 
ATOM      5  C   UNL     1       5.317   0.269   2.267  0.00  0.00    +0.000 A 
ATOM      6  C   UNL     1       4.499   0.071   1.149  0.00  0.00    +0.000 A 
ENDROOT
BRANCH   1   8
ATOM      7  N   UNL     1       1.031   0.478   0.015  0.00  0.00    +0.000 N 
ATOM      8  C   UNL     1       2.271  -0.094   0.074  0.00  0.00    +0.000 C 
ATOM      9  O   UNL     1       2.670  -0.816  -0.830  0.00  0.00    +0.000 OA
ATOM     10  H   UNL     1       0.505   0.318  -0.834  0.00  0.00    +0.000 HD
ATOM     11  H   UNL     1       0.757   1.253   0.601  0.00  0.00    +0.000 HD
ENDBRANCH   1   8
BRANCH   4  12
ATOM     12  N   UNL     1       5.626   0.619   4.614  0.00  0.00    +0.000 N 
ATOM     13  H   UNL     1       6.322   1.357   4.540  0.00  0.00    +0.000 HD
BRANCH  12  14
ATOM     14  C   UNL     1       5.098   0.434   5.955  0.00  0.00    +0.000 C 
BRANCH  14  15
ATOM     15  C   UNL     1       6.183  -0.085   6.870  0.00  0.00    +0.000 A 
ATOM     16  C   UNL     1       6.484   0.573   8.072  0.00  0.00    +0.000 A 
ATOM     17  C   UNL     1       7.424   0.036   8.953  0.00  0.00    +0.000 A 
ATOM     18  C   UNL     1       8.063  -1.158   8.635  0.00  0.00    +0.000 A 
ATOM     19  F   UNL     1       8.949  -1.680   9.494  0.00  0.00    +0.000 F 
ATOM     20  C   UNL     1       7.790  -1.821   7.447  0.00  0.00    +0.000 A 
ATOM     21  C   UNL     1       6.851  -1.286   6.565  0.00  0.00    +0.000 A 
ENDBRANCH  14  15
ENDBRANCH  12  14
ENDBRANCH   4  12
TORSDOF 4
