REMARK  Name = 
REMARK  10 active torsions:
REMARK  status: ('A' for Active; 'I' for Inactive)
REMARK    1  A    between atoms: C_1  and  C_2
REMARK    2  A    between atoms: C_2  and  C_3
REMARK    3  A    between atoms: C_2  and  C_4
REMARK    4  A    between atoms: C_2  and  C_5
REMARK    5  A    between atoms: C_9  and  C_10
REMARK    6  A    between atoms: C_10  and  O_12
REMARK    7  A    between atoms: N_16  and  C_17
REMARK    8  A    between atoms: C_17  and  C_18
REMARK    9  A    between atoms: C_21  and  C_22
REMARK   10  A    between atoms: C_22  and  N_23
REMARK                            x       y       z     vdW  Elec       q    Type
REMARK                         _______ _______ _______ _____ _____    ______ ____
ROOT
ATOM      1  C   UNL     1       2.963   1.262   0.641  0.00  0.00    +0.000 A 
ATOM      2  N   UNL     1       2.514   2.463   0.292  0.00  0.00    +0.000 NA
ATOM      3  C   UNL     1       3.074   3.361   1.147  0.00  0.00    +0.000 A 
ATOM      4  C   UNL     1       2.936   4.751   1.222  0.00  0.00    +0.000 A 
ATOM      5  C   UNL     1       3.656   5.400   2.230  0.00  0.00    +0.000 A 
ATOM      6  C   UNL     1       4.440   4.641   3.101  0.00  0.00    +0.000 A 
ATOM      7  N   UNL     1       4.603   3.290   3.054  0.00  0.00    +0.000 NA
ATOM      8  C   UNL     1       3.889   2.721   2.061  0.00  0.00    +0.000 A 
ATOM      9  N   UNL     1       3.823   1.381   1.731  0.00  0.00    +0.000 N 
ENDROOT
BRANCH   1  11
ATOM     10  C   UNL     1       1.587   0.404  -1.268  0.00  0.00    +0.000 C 
ATOM     11  C   UNL     1       2.554  -0.001  -0.121  0.00  0.00    +0.000 C 
ATOM     12  C   UNL     1       1.789  -1.000   0.759  0.00  0.00    +0.000 C 
ATOM     13  C   UNL     1       3.758  -0.681  -0.784  0.00  0.00    +0.000 C 
ENDBRANCH   1  11
BRANCH   5  14
ATOM     14  C   UNL     1       3.581   6.856   2.457  0.00  0.00    +0.000 C 
ATOM     15  O   UNL     1       3.753   7.355   3.554  0.00  0.00    +0.000 OA
BRANCH  14  16
ATOM     16  O   UNL     1       3.343   7.586   1.347  0.00  0.00    +0.000 OA
ATOM     17  H   UNL     1       3.373   7.109   0.497  0.00  0.00    +0.000 HD
ENDBRANCH  14  16
ENDBRANCH   5  14
BRANCH   9  18
ATOM     18  C   UNL     1       4.524   0.361   2.502  0.00  0.00    +0.000 C 
BRANCH  18  19
ATOM     19  C   UNL     1       5.850  -0.057   1.907  0.00  0.00    +0.000 A 
ATOM     20  C   UNL     1       6.731   0.861   1.321  0.00  0.00    +0.000 A 
ATOM     21  C   UNL     1       7.903   0.430   0.696  0.00  0.00    +0.000 A 
ATOM     22  C   UNL     1       8.238  -0.928   0.666  0.00  0.00    +0.000 A 
ATOM     23  C   UNL     1       7.405  -1.837   1.330  0.00  0.00    +0.000 A 
ATOM     24  C   UNL     1       6.231  -1.407   1.955  0.00  0.00    +0.000 A 
BRANCH  22  25
ATOM     25  C   UNL     1       9.435  -1.407  -0.112  0.00  0.00    +0.000 C 
BRANCH  25  26
ATOM     26  N   UNL     1      10.398  -2.104   0.729  0.00  0.00    +0.000 NA
ATOM     27  H   UNL     1      10.755  -1.450   1.425  0.00  0.00    +0.000 HD
ATOM     28  H   UNL     1      11.196  -2.380   0.160  0.00  0.00    +0.000 HD
ENDBRANCH  25  26
ENDBRANCH  22  25
ENDBRANCH  18  19
ENDBRANCH   9  18
TORSDOF 7
