REMARK  Name = 
REMARK  4 active torsions:
REMARK  status: ('A' for Active; 'I' for Inactive)
REMARK    1  A    between atoms: C_2  and  C_4
REMARK    2  A    between atoms: N_8  and  C_9
REMARK    3  A    between atoms: C_9  and  C_10
REMARK    4  A    between atoms: C_14  and  N_15
REMARK                            x       y       z     vdW  Elec       q    Type
REMARK                         _______ _______ _______ _____ _____    ______ ____
ROOT
ATOM      1  C   UNL     1       4.997   4.141   4.395  0.00  0.00    +0.000 C 
ATOM      2  C   UNL     1       4.874   3.329   5.677  0.00  0.00    +0.000 C 
ATOM      3  C   UNL     1       3.703   4.109   5.182  0.00  0.00    +0.000 C 
ENDROOT
BRANCH   1   8
ATOM      4  C   UNL     1       3.516   3.677  -0.583  0.00  0.00    +0.000 A 
ATOM      5  C   UNL     1       2.728   3.955   0.533  0.00  0.00    +0.000 A 
ATOM      6  C   UNL     1       3.297   3.889   1.807  0.00  0.00    +0.000 A 
ATOM      7  C   UNL     1       4.635   3.541   1.944  0.00  0.00    +0.000 A 
ATOM      8  N   UNL     1       5.243   3.329   3.187  0.00  0.00    +0.000 N 
ATOM      9  N   UNL     1       5.408   3.279   0.872  0.00  0.00    +0.000 NA
ATOM     10  C   UNL     1       4.839   3.345  -0.364  0.00  0.00    +0.000 A 
ATOM     11  H   UNL     1       6.225   3.156   2.973  0.00  0.00    +0.000 HD
BRANCH   4  13
ATOM     12  N   UNL     1       1.868   4.433  -2.199  0.00  0.00    +0.000 N 
ATOM     13  C   UNL     1       2.969   3.659  -1.956  0.00  0.00    +0.000 C 
ATOM     14  O   UNL     1       3.487   2.993  -2.841  0.00  0.00    +0.000 OA
ATOM     15  H   UNL     1       1.538   4.466  -3.156  0.00  0.00    +0.000 HD
ATOM     16  H   UNL     1       1.564   5.167  -1.575  0.00  0.00    +0.000 HD
ENDBRANCH   4  13
ENDBRANCH   1   8
BRANCH   1  17
ATOM     17  C   UNL     1       5.818   5.428   4.405  0.00  0.00    +0.000 A 
ATOM     18  C   UNL     1       7.099   5.483   4.978  0.00  0.00    +0.000 A 
ATOM     19  C   UNL     1       7.917   6.600   4.817  0.00  0.00    +0.000 A 
ATOM     20  C   UNL     1       7.480   7.686   4.059  0.00  0.00    +0.000 A 
ATOM     21  C   UNL     1       6.199   7.677   3.494  0.00  0.00    +0.000 A 
ATOM     22  C   UNL     1       5.368   6.566   3.708  0.00  0.00    +0.000 A 
BRANCH  21  23
ATOM     23  N   UNL     1       5.772   8.743   2.650  0.00  0.00    +0.000 N 
ATOM     24  C   UNL     1       6.527   9.803   2.193  0.00  0.00    +0.000 A 
ATOM     25  C   UNL     1       5.712  10.522   1.352  0.00  0.00    +0.000 A 
ATOM     26  N   UNL     1       4.467   9.967   1.291  0.00  0.00    +0.000 NA
ATOM     27  C   UNL     1       4.529   8.912   2.074  0.00  0.00    +0.000 A 
ENDBRANCH  21  23
ENDBRANCH   1  17
TORSDOF 4
