REMARK  Name = 
REMARK  7 active torsions:
REMARK  status: ('A' for Active; 'I' for Inactive)
REMARK    1  A    between atoms: C_2  and  C_20
REMARK    2  A    between atoms: N_3  and  C_4
REMARK    3  A    between atoms: C_4  and  C_5
REMARK    4  A    between atoms: C_8  and  C_9
REMARK    5  A    between atoms: C_9  and  O_10
REMARK    6  A    between atoms: C_9  and  C_11
REMARK    7  A    between atoms: C_11  and  C_12
REMARK                            x       y       z     vdW  Elec       q    Type
REMARK                         _______ _______ _______ _____ _____    ______ ____
ROOT
ATOM      1  C   UNL     1       2.215  -0.097   2.348  0.00  0.00    +0.000 C 
ENDROOT
BRANCH   1   2
ATOM      2  C   UNL     1       3.181  -0.074   3.501  0.00  0.00    +0.000 A 
ATOM      3  C   UNL     1       3.602   1.145   4.020  0.00  0.00    +0.000 A 
ATOM      4  C   UNL     1       4.506   1.151   5.076  0.00  0.00    +0.000 A 
ATOM      5  C   UNL     1       4.958  -0.059   5.609  0.00  0.00    +0.000 A 
ATOM      6  C   UNL     1       4.461  -1.227   5.034  0.00  0.00    +0.000 A 
ATOM      7  N   UNL     1       3.580  -1.264   4.011  0.00  0.00    +0.000 NA
BRANCH   5   8
ATOM      8  C   UNL     1       5.986  -0.159   6.707  0.00  0.00    +0.000 C 
BRANCH   8   9
ATOM      9  O   UNL     1       7.263  -0.208   6.072  0.00  0.00    +0.000 OA
ATOM     10  H   UNL     1       7.477   0.691   5.772  0.00  0.00    +0.000 HD
ENDBRANCH   8   9
BRANCH   8  11
ATOM     11  C   UNL     1       5.930   0.973   7.752  0.00  0.00    +0.000 C 
BRANCH  11  12
ATOM     12  C   UNL     1       6.944   0.910   8.876  0.00  0.00    +0.000 A 
ATOM     13  C   UNL     1       7.382   2.114   9.451  0.00  0.00    +0.000 A 
ATOM     14  C   UNL     1       8.280   2.112  10.518  0.00  0.00    +0.000 A 
ATOM     15  C   UNL     1       8.742   0.905  11.035  0.00  0.00    +0.000 A 
ATOM     16  C   UNL     1       8.314  -0.297  10.479  0.00  0.00    +0.000 A 
ATOM     17  C   UNL     1       7.419  -0.296   9.407  0.00  0.00    +0.000 A 
ENDBRANCH  11  12
ENDBRANCH   8  11
ENDBRANCH   5   8
ENDBRANCH   1   2
BRANCH   1  20
ATOM     18  O   UNL     1       0.689   2.221   2.802  0.00  0.00    +0.000 OA
ATOM     19  C   UNL     1       0.169   1.120   2.962  0.00  0.00    +0.000 C 
ATOM     20  N   UNL     1       0.855  -0.052   2.811  0.00  0.00    +0.000 N 
ATOM     21  H   UNL     1       0.397  -0.948   2.928  0.00  0.00    +0.000 HD
BRANCH  19  22
ATOM     22  C   UNL     1      -1.229   0.978   3.345  0.00  0.00    +0.000 A 
ATOM     23  C   UNL     1      -1.881   1.957   4.083  0.00  0.00    +0.000 A 
ATOM     24  S   UNL     1      -3.524   1.592   4.375  0.00  0.00    +0.000 S 
ATOM     25  C   UNL     1      -3.416   0.136   3.502  0.00  0.00    +0.000 A 
ATOM     26  N   UNL     1      -4.498  -0.673   3.334  0.00  0.00    +0.000 NA
ATOM     27  C   UNL     1      -4.274  -1.722   2.615  0.00  0.00    +0.000 A 
ATOM     28  N   UNL     1      -3.066  -2.045   2.053  0.00  0.00    +0.000 N 
ATOM     29  C   UNL     1      -1.935  -1.300   2.249  0.00  0.00    +0.000 A 
ATOM     30  O   UNL     1      -0.846  -1.698   1.835  0.00  0.00    +0.000 OA
ATOM     31  C   UNL     1      -2.143  -0.087   3.015  0.00  0.00    +0.000 A 
ATOM     32  H   UNL     1      -2.940  -2.901   1.532  0.00  0.00    +0.000 HD
ENDBRANCH  19  22
ENDBRANCH   1  20
TORSDOF 7
