REMARK  Name = 
REMARK  10 active torsions:
REMARK  status: ('A' for Active; 'I' for Inactive)
REMARK    1  A    between atoms: N_1  and  C_2
REMARK    2  A    between atoms: C_2  and  C_3
REMARK    3  A    between atoms: C_3  and  C_4
REMARK    4  A    between atoms: C_4  and  N_5
REMARK    5  A    between atoms: C_4  and  C_27
REMARK    6  A    between atoms: N_5  and  C_6
REMARK    7  A    between atoms: C_6  and  C_7
REMARK    8  A    between atoms: C_10  and  C_11
REMARK    9  A    between atoms: C_11  and  N_12
REMARK   10  A    between atoms: C_13  and  C_15
REMARK                            x       y       z     vdW  Elec       q    Type
REMARK                         _______ _______ _______ _____ _____    ______ ____
ROOT
ATOM      1  C   UNL     1       5.282   2.309   1.679  0.00  0.00    +0.000 A 
ATOM      2  N   UNL     1       4.880   3.511   1.215  0.00  0.00    +0.000 NA
ATOM      3  C   UNL     1       5.101   4.569   2.024  0.00  0.00    +0.000 A 
ATOM      4  C   UNL     1       5.714   4.489   3.258  0.00  0.00    +0.000 A 
ATOM      5  C   UNL     1       6.124   3.223   3.614  0.00  0.00    +0.000 A 
ATOM      6  N   UNL     1       5.922   2.127   2.855  0.00  0.00    +0.000 NA
ENDROOT
BRANCH   1   7
ATOM      7  C   UNL     1       4.783   1.069   0.945  0.00  0.00    +0.000 C 
BRANCH   7   8
ATOM      8  N   UNL     1       5.492   0.716  -0.301  0.00  0.00    +0.000 NA
ATOM      9  H   UNL     1       5.468   1.520  -0.927  0.00  0.00    +0.000 HD
BRANCH   8  10
ATOM     10  C   UNL     1       4.872  -0.450  -0.984  0.00  0.00    +0.000 C 
BRANCH  10  11
ATOM     11  C   UNL     1       4.857  -1.709  -0.099  0.00  0.00    +0.000 A 
ATOM     12  C   UNL     1       6.004  -2.491   0.035  0.00  0.00    +0.000 A 
ATOM     13  C   UNL     1       5.974  -3.589   0.893  0.00  0.00    +0.000 A 
ATOM     14  C   UNL     1       4.814  -3.871   1.604  0.00  0.00    +0.000 A 
ATOM     15  C   UNL     1       3.723  -3.041   1.429  0.00  0.00    +0.000 A 
ATOM     16  N   UNL     1       3.720  -1.975   0.603  0.00  0.00    +0.000 NA
ENDBRANCH  10  11
BRANCH  10  17
ATOM     17  C   UNL     1       3.449  -0.212  -1.558  0.00  0.00    +0.000 C 
BRANCH  17  18
ATOM     18  C   UNL     1       3.295   0.920  -2.568  0.00  0.00    +0.000 C 
BRANCH  18  19
ATOM     19  N   UNL     1       4.059   0.689  -3.788  0.00  0.00    +0.000 NA
ATOM     20  H   UNL     1       3.818   1.409  -4.470  0.00  0.00    +0.000 HD
ATOM     21  H   UNL     1       3.772  -0.195  -4.209  0.00  0.00    +0.000 HD
ENDBRANCH  18  19
ENDBRANCH  17  18
ENDBRANCH  10  17
ENDBRANCH   8  10
ENDBRANCH   7   8
ENDBRANCH   1   7
BRANCH   4  22
ATOM     22  C   UNL     1       5.851   5.672   4.158  0.00  0.00    +0.000 C 
BRANCH  22  23
ATOM     23  N   UNL     1       4.673   5.864   4.970  0.00  0.00    +0.000 N 
ATOM     24  C   UNL     1       4.607   6.868   5.906  0.00  0.00    +0.000 C 
ATOM     25  O   UNL     1       5.529   7.663   6.054  0.00  0.00    +0.000 OA
ATOM     26  H   UNL     1       3.820   5.384   4.695  0.00  0.00    +0.000 HD
BRANCH  24  27
ATOM     27  C   UNL     1       3.424   6.891   6.779  0.00  0.00    +0.000 A 
ATOM     28  C   UNL     1       3.327   7.824   7.804  0.00  0.00    +0.000 A 
ATOM     29  S   UNL     1       2.049   7.506   8.892  0.00  0.00    +0.000 S 
ATOM     30  C   UNL     1       1.558   6.146   7.997  0.00  0.00    +0.000 A 
ATOM     31  N   UNL     1       0.575   5.317   8.440  0.00  0.00    +0.000 NA
ATOM     32  C   UNL     1       0.295   4.343   7.638  0.00  0.00    +0.000 A 
ATOM     33  N   UNL     1       0.872   4.152   6.408  0.00  0.00    +0.000 N 
ATOM     34  C   UNL     1       1.829   4.995   5.901  0.00  0.00    +0.000 A 
ATOM     35  O   UNL     1       2.240   4.890   4.746  0.00  0.00    +0.000 OA
ATOM     36  C   UNL     1       2.278   6.019   6.823  0.00  0.00    +0.000 A 
ATOM     37  H   UNL     1       0.548   3.422   5.792  0.00  0.00    +0.000 HD
ENDBRANCH  24  27
ENDBRANCH  22  23
ENDBRANCH   4  22
TORSDOF 10
