REMARK  Name = 
REMARK  8 active torsions:
REMARK  status: ('A' for Active; 'I' for Inactive)
REMARK    1  A    between atoms: C_1  and  C_2
REMARK    2  A    between atoms: C_2  and  N_3
REMARK    3  A    between atoms: C_2  and  C_16
REMARK    4  A    between atoms: C_4  and  C_6
REMARK    5  A    between atoms: C_19  and  C_20
REMARK    6  A    between atoms: C_20  and  O_21
REMARK    7  A    between atoms: O_21  and  C_22
REMARK    8  A    between atoms: C_22  and  C_23
REMARK                            x       y       z     vdW  Elec       q    Type
REMARK                         _______ _______ _______ _____ _____    ______ ____
ROOT
ATOM      1  C   UNL     1       3.661  -0.937  -0.387  0.00  0.00    +0.000 C 
ATOM      2  C   UNL     1       2.428  -0.062  -0.147  0.00  0.00    +0.000 C 
ENDROOT
BRANCH   2   3
ATOM      3  C   UNL     1       2.848   1.248   0.501  0.00  0.00    +0.000 A 
ATOM      4  C   UNL     1       2.629   2.467  -0.149  0.00  0.00    +0.000 A 
ATOM      5  C   UNL     1       2.931   3.677   0.486  0.00  0.00    +0.000 A 
ATOM      6  C   UNL     1       3.463   3.694   1.783  0.00  0.00    +0.000 A 
ATOM      7  C   UNL     1       3.722   2.474   2.416  0.00  0.00    +0.000 A 
ATOM      8  C   UNL     1       3.424   1.268   1.784  0.00  0.00    +0.000 A 
BRANCH   6   9
ATOM      9  C   UNL     1       3.753   4.997   2.484  0.00  0.00    +0.000 C 
BRANCH   9  10
ATOM     10  O   UNL     1       2.543   5.740   2.618  0.00  0.00    +0.000 OA
BRANCH  10  11
ATOM     11  C   UNL     1       2.759   6.983   3.284  0.00  0.00    +0.000 C 
BRANCH  11  12
ATOM     12  C   UNL     1       1.463   7.742   3.426  0.00  0.00    +0.000 A 
ATOM     13  C   UNL     1       1.278   8.613   4.506  0.00  0.00    +0.000 A 
ATOM     14  C   UNL     1       0.096   9.332   4.592  0.00  0.00    +0.000 A 
ATOM     15  N   UNL     1      -0.901   9.252   3.687  0.00  0.00    +0.000 NA
ATOM     16  C   UNL     1      -0.704   8.413   2.647  0.00  0.00    +0.000 A 
ATOM     17  C   UNL     1       0.444   7.655   2.472  0.00  0.00    +0.000 A 
ENDBRANCH  11  12
ENDBRANCH  10  11
ENDBRANCH   9  10
ENDBRANCH   6   9
ENDBRANCH   2   3
BRANCH   2  18
ATOM     18  N   UNL     1       1.439  -0.722   0.689  0.00  0.00    +0.000 N 
ATOM     19  C   UNL     1       0.838  -1.903   0.337  0.00  0.00    +0.000 C 
ATOM     20  O   UNL     1       1.109  -2.503  -0.701  0.00  0.00    +0.000 OA
ATOM     21  H   UNL     1       0.934  -0.114   1.335  0.00  0.00    +0.000 HD
BRANCH  19  22
ATOM     22  C   UNL     1      -0.108  -2.465   1.302  0.00  0.00    +0.000 A 
ATOM     23  C   UNL     1      -0.276  -3.840   1.390  0.00  0.00    +0.000 A 
ATOM     24  S   UNL     1      -1.430  -4.309   2.556  0.00  0.00    +0.000 S 
ATOM     25  C   UNL     1      -1.767  -2.689   2.952  0.00  0.00    +0.000 A 
ATOM     26  N   UNL     1      -2.722  -2.371   3.867  0.00  0.00    +0.000 NA
ATOM     27  C   UNL     1      -2.896  -1.102   4.036  0.00  0.00    +0.000 A 
ATOM     28  N   UNL     1      -2.189  -0.122   3.390  0.00  0.00    +0.000 N 
ATOM     29  C   UNL     1      -1.178  -0.396   2.499  0.00  0.00    +0.000 A 
ATOM     30  O   UNL     1      -0.505   0.498   2.000  0.00  0.00    +0.000 OA
ATOM     31  C   UNL     1      -0.980  -1.806   2.237  0.00  0.00    +0.000 A 
ATOM     32  H   UNL     1      -2.351   0.855   3.585  0.00  0.00    +0.000 HD
ENDBRANCH  19  22
ENDBRANCH   2  18
TORSDOF 7
