REMARK  Name = 
REMARK  7 active torsions:
REMARK  status: ('A' for Active; 'I' for Inactive)
REMARK    1  A    between atoms: C_1  and  C_2
REMARK    2  A    between atoms: C_2  and  C_3
REMARK    3  A    between atoms: C_2  and  C_15
REMARK    4  A    between atoms: C_3  and  N_4
REMARK    5  A    between atoms: N_4  and  C_5
REMARK    6  A    between atoms: C_8  and  C_9
REMARK    7  A    between atoms: C_19  and  C_20
REMARK                            x       y       z     vdW  Elec       q    Type
REMARK                         _______ _______ _______ _____ _____    ______ ____
ROOT
ATOM      1  N   UNL     1       2.769   0.015  -2.504  0.00  0.00    +0.000 N 
ATOM      2  H   UNL     1       1.764  -0.119  -2.599  0.00  0.00    +0.000 HD
ENDROOT
BRANCH   1   3
ATOM      3  C   UNL     1       3.339   0.473  -3.702  0.00  0.00    +0.000 A 
ATOM      4  C   UNL     1       2.707   0.217  -4.928  0.00  0.00    +0.000 A 
ATOM      5  C   UNL     1       3.287   0.626  -6.138  0.00  0.00    +0.000 A 
ATOM      6  C   UNL     1       4.529   1.273  -6.144  0.00  0.00    +0.000 A 
ATOM      7  C   UNL     1       5.176   1.480  -4.931  0.00  0.00    +0.000 A 
ATOM      8  F   UNL     1       6.376   2.077  -4.865  0.00  0.00    +0.000 F 
ATOM      9  C   UNL     1       4.602   1.072  -3.734  0.00  0.00    +0.000 A 
BRANCH   6  10
ATOM     10  C   UNL     1       5.124   1.705  -7.432  0.00  0.00    +0.000 C 
ATOM     11  N   UNL     1       6.335   2.340  -7.398  0.00  0.00    +0.000 N 
ATOM     12  O   UNL     1       4.553   1.508  -8.496  0.00  0.00    +0.000 OA
ATOM     13  H   UNL     1       6.850   2.508  -6.534  0.00  0.00    +0.000 HD
ATOM     14  H   UNL     1       6.754   2.626  -8.272  0.00  0.00    +0.000 HD
ENDBRANCH   6  10
ENDBRANCH   1   3
BRANCH   1  15
ATOM     15  C   UNL     1       3.100   0.780  -1.299  0.00  0.00    +0.000 C 
BRANCH  15  17
ATOM     16  C   UNL     1       2.847  -1.143   0.388  0.00  0.00    +0.000 C 
ATOM     17  C   UNL     1       2.374   0.173  -0.142  0.00  0.00    +0.000 C 
BRANCH  17  18
ATOM     18  C   UNL     1       0.983   0.588   0.060  0.00  0.00    +0.000 A 
ATOM     19  C   UNL     1       0.648   1.922   0.304  0.00  0.00    +0.000 A 
ATOM     20  C   UNL     1      -0.690   2.309   0.353  0.00  0.00    +0.000 A 
ATOM     21  C   UNL     1      -1.699   1.370   0.135  0.00  0.00    +0.000 A 
ATOM     22  C   UNL     1      -1.376   0.029  -0.107  0.00  0.00    +0.000 A 
ATOM     23  C   UNL     1      -0.030  -0.356  -0.107  0.00  0.00    +0.000 A 
BRANCH  22  24
ATOM     24  C   UNL     1      -2.422  -1.007  -0.425  0.00  0.00    +0.000 C 
ATOM     25  F   UNL     1      -3.683  -0.503  -0.493  0.00  0.00    +0.000 F 
ATOM     26  F   UNL     1      -2.194  -1.604  -1.630  0.00  0.00    +0.000 F 
ATOM     27  F   UNL     1      -2.460  -2.012   0.489  0.00  0.00    +0.000 F 
ENDBRANCH  22  24
ENDBRANCH  17  18
ENDBRANCH  15  17
ENDBRANCH   1  15
TORSDOF 6
