REMARK  Name = 
REMARK  6 active torsions:
REMARK  status: ('A' for Active; 'I' for Inactive)
REMARK    1  A    between atoms: C_2  and  C_21
REMARK    2  A    between atoms: N_3  and  C_4
REMARK    3  A    between atoms: C_4  and  C_5
REMARK    4  A    between atoms: C_8  and  C_9
REMARK    5  A    between atoms: C_9  and  N_10
REMARK    6  A    between atoms: C_11  and  C_13
REMARK                            x       y       z     vdW  Elec       q    Type
REMARK                         _______ _______ _______ _____ _____    ______ ____
ROOT
ATOM      1  C   UNL     1       3.076  -0.059   3.716  0.00  0.00    +0.000 A 
ATOM      2  C   UNL     1       3.502   1.175   4.228  0.00  0.00    +0.000 A 
ATOM      3  C   UNL     1       4.357   1.232   5.335  0.00  0.00    +0.000 A 
ATOM      4  C   UNL     1       4.822   0.057   5.940  0.00  0.00    +0.000 A 
ATOM      5  C   UNL     1       4.408  -1.176   5.418  0.00  0.00    +0.000 A 
ATOM      6  C   UNL     1       3.553  -1.233   4.311  0.00  0.00    +0.000 A 
ENDROOT
BRANCH   1   7
ATOM      7  C   UNL     1       2.134  -0.118   2.541  0.00  0.00    +0.000 C 
BRANCH   7  10
ATOM      8  O   UNL     1       0.934  -0.438   0.068  0.00  0.00    +0.000 OA
ATOM      9  C   UNL     1       2.148  -0.257   0.101  0.00  0.00    +0.000 C 
ATOM     10  N   UNL     1       2.839  -0.163   1.284  0.00  0.00    +0.000 N 
ATOM     11  H   UNL     1       3.789   0.194   1.278  0.00  0.00    +0.000 HD
BRANCH   9  12
ATOM     12  C   UNL     1       2.938  -0.166  -1.133  0.00  0.00    +0.000 A 
ATOM     13  C   UNL     1       2.464  -0.746  -2.303  0.00  0.00    +0.000 A 
ATOM     14  S   UNL     1       3.510  -0.550  -3.636  0.00  0.00    +0.000 S 
ATOM     15  C   UNL     1       4.607   0.362  -2.709  0.00  0.00    +0.000 A 
ATOM     16  N   UNL     1       5.733   0.880  -3.269  0.00  0.00    +0.000 NA
ATOM     17  C   UNL     1       6.456   1.581  -2.461  0.00  0.00    +0.000 A 
ATOM     18  N   UNL     1       6.161   1.803  -1.141  0.00  0.00    +0.000 N 
ATOM     19  C   UNL     1       5.057   1.266  -0.524  0.00  0.00    +0.000 A 
ATOM     20  O   UNL     1       4.852   1.435   0.674  0.00  0.00    +0.000 OA
ATOM     21  C   UNL     1       4.197   0.489  -1.394  0.00  0.00    +0.000 A 
ATOM     22  H   UNL     1       6.775   2.352  -0.557  0.00  0.00    +0.000 HD
ENDBRANCH   9  12
ENDBRANCH   7  10
ENDBRANCH   1   7
BRANCH   4  23
ATOM     23  C   UNL     1       5.761   0.111   7.116  0.00  0.00    +0.000 C 
BRANCH  23  24
ATOM     24  N   UNL     1       5.078   0.059   8.384  0.00  0.00    +0.000 N 
ATOM     25  C   UNL     1       5.783   0.137   9.565  0.00  0.00    +0.000 C 
ATOM     26  O   UNL     1       7.012   0.172   9.606  0.00  0.00    +0.000 OA
ATOM     27  H   UNL     1       4.065   0.110   8.441  0.00  0.00    +0.000 HD
BRANCH  25  28
ATOM     28  C   UNL     1       4.927   0.122  10.845  0.00  0.00    +0.000 C 
ATOM     29  C   UNL     1       4.660  -1.321  11.282  0.00  0.00    +0.000 C 
ATOM     30  C   UNL     1       3.805  -1.359  12.545  0.00  0.00    +0.000 C 
ATOM     31  C   UNL     1       2.539  -0.528  12.365  0.00  0.00    +0.000 C 
ATOM     32  C   UNL     1       2.858   0.877  11.855  0.00  0.00    +0.000 C 
ATOM     33  N   UNL     1       3.645   0.839  10.617  0.00  0.00    +0.000 NA
ATOM     34  H   UNL     1       3.865   1.798  10.346  0.00  0.00    +0.000 HD
ENDBRANCH  25  28
ENDBRANCH  23  24
ENDBRANCH   4  23
TORSDOF 6
