REMARK  Name = 
REMARK  9 active torsions:
REMARK  status: ('A' for Active; 'I' for Inactive)
REMARK    1  A    between atoms: C_1  and  N_2
REMARK    2  A    between atoms: N_5  and  C_6
REMARK    3  A    between atoms: C_10  and  C_11
REMARK    4  A    between atoms: C_11  and  C_12
REMARK    5  A    between atoms: C_11  and  C_13
REMARK    6  A    between atoms: C_11  and  C_14
REMARK    7  A    between atoms: C_14  and  N_15
REMARK    8  A    between atoms: N_15  and  C_16
REMARK    9  A    between atoms: C_19  and  C_20
REMARK                            x       y       z     vdW  Elec       q    Type
REMARK                         _______ _______ _______ _____ _____    ______ ____
ROOT
ATOM      1  C   UNL     1      -6.387   1.777   0.511  0.00  0.00    +0.000 C 
ATOM      2  C   UNL     1      -7.692   0.972   0.295  0.00  0.00    +0.000 C 
ATOM      3  C   UNL     1      -6.664   2.876   1.562  0.00  0.00    +0.000 C 
ENDROOT
BRANCH   1   8
ATOM      4  C   UNL     1      -3.012  -0.144   0.844  0.00  0.00    +0.000 A 
ATOM      5  C   UNL     1      -3.206  -0.775   2.068  0.00  0.00    +0.000 A 
ATOM      6  C   UNL     1      -4.414  -0.653   2.761  0.00  0.00    +0.000 A 
ATOM      7  C   UNL     1      -5.444   0.147   2.258  0.00  0.00    +0.000 A 
ATOM      8  C   UNL     1      -5.300   0.824   1.041  0.00  0.00    +0.000 A 
ATOM      9  C   UNL     1      -4.098   0.602   0.343  0.00  0.00    +0.000 A 
BRANCH   4  14
ATOM     10  C   UNL     1       0.845  -0.882  -3.100  0.00  0.00    +0.000 C 
ATOM     11  N   UNL     1       0.348  -0.478  -1.787  0.00  0.00    +0.000 NA
ATOM     12  C   UNL     1      -0.707   0.553  -1.930  0.00  0.00    +0.000 C 
ATOM     13  C   UNL     1      -1.300   0.959  -0.565  0.00  0.00    +0.000 C 
ATOM     14  N   UNL     1      -1.850  -0.238   0.103  0.00  0.00    +0.000 N 
ATOM     15  C   UNL     1      -0.827  -1.264   0.323  0.00  0.00    +0.000 C 
ATOM     16  C   UNL     1      -0.199  -1.641  -1.047  0.00  0.00    +0.000 C 
ENDBRANCH   4  14
ENDBRANCH   1   8
BRANCH   1  17
ATOM     17  C   UNL     1      -6.068   2.461  -0.866  0.00  0.00    +0.000 C 
BRANCH  17  18
ATOM     18  N   UNL     1      -4.930   3.390  -0.839  0.00  0.00    +0.000 N 
ATOM     19  H   UNL     1      -4.281   3.279  -0.060  0.00  0.00    +0.000 HD
BRANCH  18  20
ATOM     20  C   UNL     1      -4.174   3.534  -2.001  0.00  0.00    +0.000 A 
ATOM     21  N   UNL     1      -2.850   3.726  -1.807  0.00  0.00    +0.000 NA
ATOM     22  C   UNL     1      -2.044   3.821  -2.901  0.00  0.00    +0.000 A 
ATOM     23  C   UNL     1      -2.504   3.761  -4.207  0.00  0.00    +0.000 A 
ATOM     24  C   UNL     1      -3.869   3.586  -4.406  0.00  0.00    +0.000 A 
ATOM     25  C   UNL     1      -4.703   3.486  -3.296  0.00  0.00    +0.000 A 
ATOM     26  F   UNL     1      -6.016   3.302  -3.507  0.00  0.00    +0.000 F 
BRANCH  23  27
ATOM     27  C   UNL     1      -1.534   3.855  -5.315  0.00  0.00    +0.000 C 
ATOM     28  N   UNL     1      -1.997   4.328  -6.511  0.00  0.00    +0.000 N 
ATOM     29  O   UNL     1      -0.361   3.546  -5.161  0.00  0.00    +0.000 OA
ATOM     30  H   UNL     1      -2.883   4.804  -6.607  0.00  0.00    +0.000 HD
ATOM     31  H   UNL     1      -1.304   4.489  -7.233  0.00  0.00    +0.000 HD
ENDBRANCH  23  27
ENDBRANCH  18  20
ENDBRANCH  17  18
ENDBRANCH   1  17
TORSDOF 6
