REMARK  Name = 
REMARK  3 active torsions:
REMARK  status: ('A' for Active; 'I' for Inactive)
REMARK    1  A    between atoms: C_2  and  C_4
REMARK    2  A    between atoms: N_8  and  C_9
REMARK    3  A    between atoms: C_9  and  C_10
REMARK                            x       y       z     vdW  Elec       q    Type
REMARK                         _______ _______ _______ _____ _____    ______ ____
ROOT
ATOM      1  C   UNL     1       3.098  -1.318  -0.014  0.00  0.00    +0.000 A 
ATOM      2  C   UNL     1       3.572  -1.412   1.290  0.00  0.00    +0.000 A 
ATOM      3  C   UNL     1       4.310  -2.537   1.659  0.00  0.00    +0.000 A 
ATOM      4  C   UNL     1       4.537  -3.556   0.734  0.00  0.00    +0.000 A 
ATOM      5  N   UNL     1       5.164  -4.707   1.191  0.00  0.00    +0.000 N 
ATOM      6  N   UNL     1       4.074  -3.475  -0.527  0.00  0.00    +0.000 NA
ATOM      7  C   UNL     1       3.368  -2.367  -0.877  0.00  0.00    +0.000 A 
ATOM      8  H   UNL     1       6.065  -4.534   1.617  0.00  0.00    +0.000 HD
ENDROOT
BRANCH   1  10
ATOM      9  N   UNL     1       2.479   1.026   0.128  0.00  0.00    +0.000 N 
ATOM     10  C   UNL     1       2.297  -0.174  -0.499  0.00  0.00    +0.000 C 
ATOM     11  O   UNL     1       1.529  -0.287  -1.444  0.00  0.00    +0.000 OA
ATOM     12  H   UNL     1       2.000   1.823  -0.276  0.00  0.00    +0.000 HD
ATOM     13  H   UNL     1       3.261   1.212   0.736  0.00  0.00    +0.000 HD
ENDBRANCH   1  10
BRANCH   5  14
ATOM     14  C   UNL     1       5.102  -5.910   0.379  0.00  0.00    +0.000 C 
BRANCH  14  15
ATOM     15  C   UNL     1       4.721  -7.054   1.292  0.00  0.00    +0.000 A 
ATOM     16  C   UNL     1       3.549  -6.969   2.057  0.00  0.00    +0.000 A 
ATOM     17  C   UNL     1       3.210  -8.024   2.886  0.00  0.00    +0.000 A 
ATOM     18  N   UNL     1       3.943  -9.150   2.997  0.00  0.00    +0.000 NA
ATOM     19  C   UNL     1       5.062  -9.221   2.243  0.00  0.00    +0.000 A 
ATOM     20  C   UNL     1       5.489  -8.215   1.386  0.00  0.00    +0.000 A 
ENDBRANCH  14  15
ENDBRANCH   5  14
TORSDOF 3
