REMARK  Name = 
REMARK  8 active torsions:
REMARK  status: ('A' for Active; 'I' for Inactive)
REMARK    1  A    between atoms: N_1  and  C_2
REMARK    2  A    between atoms: C_2  and  C_3
REMARK    3  A    between atoms: C_3  and  C_4
REMARK    4  A    between atoms: C_4  and  O_5
REMARK    5  A    between atoms: O_5  and  C_6
REMARK    6  A    between atoms: N_12  and  C_13
REMARK    7  A    between atoms: C_13  and  C_14
REMARK    8  A    between atoms: C_17  and  O_18
REMARK                            x       y       z     vdW  Elec       q    Type
REMARK                         _______ _______ _______ _____ _____    ______ ____
ROOT
ATOM      1  C   UNL     1       6.490   2.554   1.567  0.00  0.00    +0.000 A 
ATOM      2  C   UNL     1       7.436   2.362   0.565  0.00  0.00    +0.000 A 
ATOM      3  N   UNL     1       8.775   2.495   0.699  0.00  0.00    +0.000 NA
ATOM      4  C   UNL     1       9.188   2.847   1.941  0.00  0.00    +0.000 A 
ATOM      5  C   UNL     1      10.506   3.068   2.393  0.00  0.00    +0.000 A 
ATOM      6  C   UNL     1      10.435   3.372   3.733  0.00  0.00    +0.000 A 
ATOM      7  N   UNL     1       9.109   3.347   4.108  0.00  0.00    +0.000 N 
ATOM      8  C   UNL     1       8.320   3.054   3.014  0.00  0.00    +0.000 A 
ATOM      9  C   UNL     1       6.935   2.933   2.835  0.00  0.00    +0.000 A 
ENDROOT
BRANCH   1  10
ATOM     10  O   UNL     1       5.135   2.440   1.419  0.00  0.00    +0.000 OA
BRANCH  10  11
ATOM     11  C   UNL     1       4.698   1.499   0.434  0.00  0.00    +0.000 C 
BRANCH  11  12
ATOM     12  C   UNL     1       3.172   1.469   0.436  0.00  0.00    +0.000 C 
BRANCH  12  13
ATOM     13  C   UNL     1       2.641   0.449  -0.568  0.00  0.00    +0.000 C 
BRANCH  13  14
ATOM     14  N   UNL     1       1.183   0.447  -0.575  0.00  0.00    +0.000 NA
ATOM     15  H   UNL     1       0.846  -0.203  -1.285  0.00  0.00    +0.000 HD
ATOM     16  H   UNL     1       0.836   1.367  -0.844  0.00  0.00    +0.000 HD
ENDBRANCH  13  14
ENDBRANCH  12  13
ENDBRANCH  11  12
ENDBRANCH  10  11
ENDBRANCH   1  10
BRANCH   7  17
ATOM     17  C   UNL     1       8.654   3.498   5.488  0.00  0.00    +0.000 C 
BRANCH  17  18
ATOM     18  C   UNL     1       8.439   4.946   5.846  0.00  0.00    +0.000 A 
ATOM     19  C   UNL     1       7.161   5.519   5.756  0.00  0.00    +0.000 A 
ATOM     20  C   UNL     1       6.972   6.879   6.010  0.00  0.00    +0.000 A 
ATOM     21  C   UNL     1       8.063   7.668   6.359  0.00  0.00    +0.000 A 
ATOM     22  C   UNL     1       9.329   7.114   6.492  0.00  0.00    +0.000 A 
ATOM     23  C   UNL     1       9.518   5.755   6.237  0.00  0.00    +0.000 A 
BRANCH  21  24
ATOM     24  O   UNL     1       7.929   9.008   6.569  0.00  0.00    +0.000 OA
ATOM     25  H   UNL     1       7.041   9.276   6.280  0.00  0.00    +0.000 HD
ENDBRANCH  21  24
ENDBRANCH  17  18
ENDBRANCH   7  17
TORSDOF 8
