REMARK  Name = 
REMARK  5 active torsions:
REMARK  status: ('A' for Active; 'I' for Inactive)
REMARK    1  A    between atoms: C_2  and  C_4
REMARK    2  A    between atoms: N_8  and  C_9
REMARK    3  A    between atoms: C_9  and  C_10
REMARK    4  A    between atoms: C_14  and  C_15
REMARK    5  A    between atoms: C_19  and  C_20
REMARK                            x       y       z     vdW  Elec       q    Type
REMARK                         _______ _______ _______ _____ _____    ______ ____
ROOT
ATOM      1  C   UNL     1       4.863   5.958  -0.504  0.00  0.00    +0.000 C 
ATOM      2  C   UNL     1       4.960   6.223   0.998  0.00  0.00    +0.000 C 
ATOM      3  C   UNL     1       3.672   6.466   0.290  0.00  0.00    +0.000 C 
ENDROOT
BRANCH   1   8
ATOM      4  C   UNL     1       2.841   2.153  -3.463  0.00  0.00    +0.000 A 
ATOM      5  C   UNL     1       2.346   3.421  -3.172  0.00  0.00    +0.000 A 
ATOM      6  C   UNL     1       3.054   4.244  -2.293  0.00  0.00    +0.000 A 
ATOM      7  C   UNL     1       4.249   3.799  -1.743  0.00  0.00    +0.000 A 
ATOM      8  N   UNL     1       5.026   4.554  -0.874  0.00  0.00    +0.000 N 
ATOM      9  N   UNL     1       4.728   2.562  -2.007  0.00  0.00    +0.000 NA
ATOM     10  C   UNL     1       4.012   1.760  -2.839  0.00  0.00    +0.000 A 
ATOM     11  H   UNL     1       5.886   4.060  -0.664  0.00  0.00    +0.000 HD
BRANCH   4  13
ATOM     12  N   UNL     1       1.411   1.770  -5.383  0.00  0.00    +0.000 N 
ATOM     13  C   UNL     1       2.160   1.218  -4.381  0.00  0.00    +0.000 C 
ATOM     14  O   UNL     1       2.289   0.006  -4.275  0.00  0.00    +0.000 OA
ATOM     15  H   UNL     1       1.031   1.128  -6.068  0.00  0.00    +0.000 HD
ATOM     16  H   UNL     1       1.498   2.739  -5.653  0.00  0.00    +0.000 HD
ENDBRANCH   4  13
ENDBRANCH   1   8
BRANCH   1  17
ATOM     17  C   UNL     1       5.502   6.966  -1.457  0.00  0.00    +0.000 A 
ATOM     18  C   UNL     1       4.793   7.483  -2.554  0.00  0.00    +0.000 A 
ATOM     19  C   UNL     1       5.328   8.484  -3.362  0.00  0.00    +0.000 A 
ATOM     20  C   UNL     1       6.590   9.002  -3.084  0.00  0.00    +0.000 A 
ATOM     21  C   UNL     1       7.347   8.527  -2.003  0.00  0.00    +0.000 A 
ATOM     22  C   UNL     1       6.791   7.488  -1.227  0.00  0.00    +0.000 A 
BRANCH  21  23
ATOM     23  C   UNL     1       8.650   9.129  -1.647  0.00  0.00    +0.000 A 
ATOM     24  C   UNL     1       8.889  10.500  -1.774  0.00  0.00    +0.000 A 
ATOM     25  N   UNL     1      10.040  11.129  -1.431  0.00  0.00    +0.000 NA
ATOM     26  C   UNL     1      11.020  10.362  -0.910  0.00  0.00    +0.000 A 
ATOM     27  C   UNL     1      10.908   8.995  -0.724  0.00  0.00    +0.000 A 
ATOM     28  C   UNL     1       9.708   8.380  -1.112  0.00  0.00    +0.000 A 
BRANCH  27  29
ATOM     29  C   UNL     1      12.025   8.210  -0.113  0.00  0.00    +0.000 C 
ATOM     30  F   UNL     1      13.114   8.963   0.205  0.00  0.00    +0.000 F 
ATOM     31  F   UNL     1      11.651   7.593   1.042  0.00  0.00    +0.000 F 
ATOM     32  F   UNL     1      12.480   7.223  -0.932  0.00  0.00    +0.000 F 
ENDBRANCH  27  29
ENDBRANCH  21  23
ENDBRANCH   1  17
TORSDOF 5
