REMARK  Name = 
REMARK  4 active torsions:
REMARK  status: ('A' for Active; 'I' for Inactive)
REMARK    1  A    between atoms: C_2  and  C_4
REMARK    2  A    between atoms: N_8  and  C_9
REMARK    3  A    between atoms: C_9  and  C_10
REMARK    4  A    between atoms: C_14  and  O_15
REMARK                            x       y       z     vdW  Elec       q    Type
REMARK                         _______ _______ _______ _____ _____    ______ ____
ROOT
ATOM      1  C   UNL     1       3.532   3.218  -1.204  0.00  0.00    +0.000 A 
ATOM      2  C   UNL     1       2.763   3.716  -0.159  0.00  0.00    +0.000 A 
ATOM      3  C   UNL     1       3.369   3.981   1.072  0.00  0.00    +0.000 A 
ATOM      4  C   UNL     1       4.727   3.736   1.239  0.00  0.00    +0.000 A 
ATOM      5  N   UNL     1       5.382   3.867   2.466  0.00  0.00    +0.000 N 
ATOM      6  N   UNL     1       5.485   3.251   0.231  0.00  0.00    +0.000 NA
ATOM      7  C   UNL     1       4.881   3.002  -0.960  0.00  0.00    +0.000 A 
ATOM      8  H   UNL     1       6.367   3.702   2.268  0.00  0.00    +0.000 HD
ENDROOT
BRANCH   1  10
ATOM      9  N   UNL     1       1.819   3.501  -2.905  0.00  0.00    +0.000 N 
ATOM     10  C   UNL     1       2.974   2.873  -2.528  0.00  0.00    +0.000 C 
ATOM     11  O   UNL     1       3.534   2.080  -3.273  0.00  0.00    +0.000 OA
ATOM     12  H   UNL     1       1.493   3.319  -3.845  0.00  0.00    +0.000 HD
ATOM     13  H   UNL     1       1.463   4.323  -2.437  0.00  0.00    +0.000 HD
ENDBRANCH   1  10
BRANCH   5  14
ATOM     14  C   UNL     1       5.095   4.919   3.457  0.00  0.00    +0.000 C 
ATOM     15  C   UNL     1       5.062   4.430   4.902  0.00  0.00    +0.000 C 
ATOM     16  C   UNL     1       3.818   4.962   4.277  0.00  0.00    +0.000 C 
BRANCH  14  17
ATOM     17  C   UNL     1       5.791   6.245   3.156  0.00  0.00    +0.000 A 
ATOM     18  C   UNL     1       7.080   6.533   3.646  0.00  0.00    +0.000 A 
ATOM     19  C   UNL     1       7.735   7.727   3.328  0.00  0.00    +0.000 A 
ATOM     20  C   UNL     1       7.119   8.661   2.499  0.00  0.00    +0.000 A 
ATOM     21  C   UNL     1       5.847   8.395   2.009  0.00  0.00    +0.000 A 
ATOM     22  C   UNL     1       5.188   7.212   2.334  0.00  0.00    +0.000 A 
BRANCH  21  23
ATOM     23  O   UNL     1       5.204   9.275   1.187  0.00  0.00    +0.000 OA
ATOM     24  H   UNL     1       5.809  10.009   0.991  0.00  0.00    +0.000 HD
ENDBRANCH  21  23
ENDBRANCH  14  17
ENDBRANCH   5  14
TORSDOF 4
