REMARK  Name = 
REMARK  6 active torsions:
REMARK  status: ('A' for Active; 'I' for Inactive)
REMARK    1  A    between atoms: C_2  and  C_3
REMARK    2  A    between atoms: N_10  and  C_11
REMARK    3  A    between atoms: C_11  and  C_12
REMARK    4  A    between atoms: C_15  and  C_16
REMARK    5  A    between atoms: C_16  and  N_17
REMARK    6  A    between atoms: C_18  and  C_20
REMARK                            x       y       z     vdW  Elec       q    Type
REMARK                         _______ _______ _______ _____ _____    ______ ____
ROOT
ATOM      1  C   UNL     1       0.675  -4.189  -0.169  0.00  0.00    +0.000 A 
ATOM      2  C   UNL     1       0.037  -5.430  -0.164  0.00  0.00    +0.000 A 
ATOM      3  C   UNL     1      -1.360  -5.486  -0.180  0.00  0.00    +0.000 A 
ATOM      4  C   UNL     1      -2.104  -4.305  -0.212  0.00  0.00    +0.000 A 
ATOM      5  C   UNL     1      -1.386  -3.114  -0.200  0.00  0.00    +0.000 A 
ATOM      6  N   UNL     1      -0.029  -3.028  -0.193  0.00  0.00    +0.000 NA
ENDROOT
BRANCH   1   7
ATOM      7  C   UNL     1       2.192  -4.096  -0.114  0.00  0.00    +0.000 C 
BRANCH   7  15
ATOM      8  C   UNL     1       4.641  -4.353  -3.828  0.00  0.00    +0.000 A 
ATOM      9  C   UNL     1       4.787  -4.544  -5.191  0.00  0.00    +0.000 A 
ATOM     10  C   UNL     1       3.740  -5.389  -5.622  0.00  0.00    +0.000 A 
ATOM     11  C   UNL     1       3.011  -5.721  -4.505  0.00  0.00    +0.000 A 
ATOM     12  N   UNL     1       3.535  -5.069  -3.398  0.00  0.00    +0.000 N 
ATOM     13  C   UNL     1       3.048  -5.251  -2.091  0.00  0.00    +0.000 C 
ATOM     14  O   UNL     1       2.755  -6.377  -1.716  0.00  0.00    +0.000 OA
ATOM     15  N   UNL     1       2.844  -4.073  -1.417  0.00  0.00    +0.000 N 
ATOM     16  H   UNL     1       2.837  -3.191  -1.912  0.00  0.00    +0.000 HD
BRANCH   8  18
ATOM     17  N   UNL     1       6.295  -3.081  -2.309  0.00  0.00    +0.000 NA
ATOM     18  C   UNL     1       5.548  -3.651  -2.981  0.00  0.00    +0.000 C 
ENDBRANCH   8  18
ENDBRANCH   7  15
ENDBRANCH   1   7
BRANCH   4  19
ATOM     19  C   UNL     1      -3.606  -4.313  -0.261  0.00  0.00    +0.000 C 
BRANCH  19  20
ATOM     20  N   UNL     1      -4.210  -4.263   1.048  0.00  0.00    +0.000 N 
ATOM     21  C   UNL     1      -5.576  -4.179   1.186  0.00  0.00    +0.000 C 
ATOM     22  O   UNL     1      -6.327  -4.040   0.225  0.00  0.00    +0.000 OA
ATOM     23  H   UNL     1      -3.649  -4.552   1.846  0.00  0.00    +0.000 HD
BRANCH  21  24
ATOM     24  C   UNL     1      -6.089  -4.257   2.554  0.00  0.00    +0.000 A 
ATOM     25  C   UNL     1      -7.301  -3.705   2.961  0.00  0.00    +0.000 A 
ATOM     26  N   UNL     1      -7.523  -4.028   4.277  0.00  0.00    +0.000 N 
ATOM     27  C   UNL     1      -6.512  -4.834   4.709  0.00  0.00    +0.000 A 
ATOM     28  N   UNL     1      -6.504  -5.446   5.915  0.00  0.00    +0.000 NA
ATOM     29  C   UNL     1      -5.453  -6.186   6.095  0.00  0.00    +0.000 A 
ATOM     30  N   UNL     1      -4.411  -6.318   5.200  0.00  0.00    +0.000 N 
ATOM     31  C   UNL     1      -4.383  -5.688   3.972  0.00  0.00    +0.000 A 
ATOM     32  O   UNL     1      -3.429  -5.766   3.207  0.00  0.00    +0.000 OA
ATOM     33  C   UNL     1      -5.573  -4.919   3.704  0.00  0.00    +0.000 A 
ATOM     34  H   UNL     1      -8.328  -3.769   4.833  0.00  0.00    +0.000 HD
ATOM     35  H   UNL     1      -3.601  -6.873   5.432  0.00  0.00    +0.000 HD
ENDBRANCH  21  24
ENDBRANCH  19  20
ENDBRANCH   4  19
TORSDOF 6
