REMARK  Name = 
REMARK  7 active torsions:
REMARK  status: ('A' for Active; 'I' for Inactive)
REMARK    1  A    between atoms: N_1  and  C_2
REMARK    2  A    between atoms: C_2  and  N_3
REMARK    3  A    between atoms: C_2  and  C_16
REMARK    4  A    between atoms: C_4  and  C_6
REMARK    5  A    between atoms: C_19  and  C_20
REMARK    6  A    between atoms: C_20  and  N_21
REMARK    7  A    between atoms: C_22  and  C_24
REMARK                            x       y       z     vdW  Elec       q    Type
REMARK                         _______ _______ _______ _____ _____    ______ ____
ROOT
ATOM      1  C   UNL     1       2.514  -0.083  -0.085  0.00  0.00    +0.000 C 
ENDROOT
BRANCH   1   2
ATOM      2  C   UNL     1       2.903   0.512   1.259  0.00  0.00    +0.000 A 
ATOM      3  C   UNL     1       2.892   1.899   1.462  0.00  0.00    +0.000 A 
ATOM      4  C   UNL     1       3.240   2.445   2.705  0.00  0.00    +0.000 A 
ATOM      5  C   UNL     1       3.620   1.617   3.770  0.00  0.00    +0.000 A 
ATOM      6  C   UNL     1       3.621   0.231   3.578  0.00  0.00    +0.000 A 
ATOM      7  C   UNL     1       3.273  -0.313   2.338  0.00  0.00    +0.000 A 
BRANCH   5   8
ATOM      8  C   UNL     1       3.996   2.196   5.111  0.00  0.00    +0.000 C 
BRANCH   8   9
ATOM      9  N   UNL     1       2.846   2.287   5.980  0.00  0.00    +0.000 N 
ATOM     10  C   UNL     1       2.954   2.797   7.259  0.00  0.00    +0.000 C 
ATOM     11  O   UNL     1       3.994   3.276   7.695  0.00  0.00    +0.000 OA
ATOM     12  H   UNL     1       2.003   1.809   5.695  0.00  0.00    +0.000 HD
BRANCH  10  13
ATOM     13  C   UNL     1       1.648   2.751   8.048  0.00  0.00    +0.000 C 
ATOM     14  C   UNL     1       1.748   3.308   9.467  0.00  0.00    +0.000 C 
ATOM     15  C   UNL     1       1.807   2.073  10.345  0.00  0.00    +0.000 C 
ATOM     16  N   UNL     1       0.921   1.116   9.672  0.00  0.00    +0.000 NA
ATOM     17  C   UNL     1       1.168   1.313   8.237  0.00  0.00    +0.000 C 
ATOM     18  H   UNL     1      -0.045   1.365   9.884  0.00  0.00    +0.000 HD
ENDBRANCH  10  13
ENDBRANCH   8   9
ENDBRANCH   5   8
ENDBRANCH   1   2
BRANCH   1  19
ATOM     19  N   UNL     1       1.489  -1.070   0.095  0.00  0.00    +0.000 N 
ATOM     20  C   UNL     1       0.896  -1.760  -0.931  0.00  0.00    +0.000 C 
ATOM     21  O   UNL     1       1.280  -1.675  -2.094  0.00  0.00    +0.000 OA
ATOM     22  H   UNL     1       0.914  -0.910   0.915  0.00  0.00    +0.000 HD
BRANCH  20  23
ATOM     23  C   UNL     1      -0.143  -2.717  -0.532  0.00  0.00    +0.000 A 
ATOM     24  C   UNL     1      -0.364  -3.855  -1.295  0.00  0.00    +0.000 A 
ATOM     25  S   UNL     1      -1.541  -4.899  -0.637  0.00  0.00    +0.000 S 
ATOM     26  C   UNL     1      -1.836  -3.839   0.661  0.00  0.00    +0.000 A 
ATOM     27  N   UNL     1      -2.767  -4.130   1.609  0.00  0.00    +0.000 NA
ATOM     28  C   UNL     1      -2.911  -3.221   2.516  0.00  0.00    +0.000 A 
ATOM     29  N   UNL     1      -2.202  -2.047   2.563  0.00  0.00    +0.000 N 
ATOM     30  C   UNL     1      -1.228  -1.726   1.647  0.00  0.00    +0.000 A 
ATOM     31  O   UNL     1      -0.572  -0.695   1.739  0.00  0.00    +0.000 OA
ATOM     32  C   UNL     1      -1.038  -2.711   0.600  0.00  0.00    +0.000 A 
ATOM     33  H   UNL     1      -2.361  -1.379   3.302  0.00  0.00    +0.000 HD
ENDBRANCH  20  23
ENDBRANCH   1  19
BRANCH   1  34
ATOM     34  N   UNL     1       3.643  -0.756  -0.689  0.00  0.00    +0.000 NA
ATOM     35  H   UNL     1       3.308  -1.134  -1.580  0.00  0.00    +0.000 HD
ATOM     36  H   UNL     1       3.858  -1.572  -0.125  0.00  0.00    +0.000 HD
ENDBRANCH   1  34
TORSDOF 7
