REMARK  Name = 
REMARK  7 active torsions:
REMARK  status: ('A' for Active; 'I' for Inactive)
REMARK    1  A    between atoms: N_1  and  C_2
REMARK    2  A    between atoms: C_2  and  C_3
REMARK    3  A    between atoms: C_2  and  C_18
REMARK    4  A    between atoms: C_3  and  N_4
REMARK    5  A    between atoms: C_7  and  N_8
REMARK    6  A    between atoms: N_8  and  C_9
REMARK    7  A    between atoms: C_9  and  C_10
REMARK                            x       y       z     vdW  Elec       q    Type
REMARK                         _______ _______ _______ _____ _____    ______ ____
ROOT
ATOM      1  C   UNL     1       1.050  -0.225   0.018  0.00  0.00    +0.000 C 
ENDROOT
BRANCH   1   2
ATOM      2  N   UNL     1       0.504  -1.018   1.148  0.00  0.00    +0.000 NA
ATOM      3  C   UNL     1       1.006  -0.551   2.450  0.00  0.00    +0.000 C 
ATOM      4  C   UNL     1       0.414  -1.354   3.616  0.00  0.00    +0.000 C 
ATOM      5  C   UNL     1      -1.123  -1.371   3.610  0.00  0.00    +0.000 C 
ATOM      6  C   UNL     1      -1.574  -1.848   2.223  0.00  0.00    +0.000 C 
ATOM      7  C   UNL     1      -0.966  -1.006   1.100  0.00  0.00    +0.000 C 
BRANCH   5   8
ATOM      8  N   UNL     1      -1.634  -0.044   4.003  0.00  0.00    +0.000 NA
ATOM      9  H   UNL     1      -1.332   0.660   3.332  0.00  0.00    +0.000 HD
BRANCH   8  10
ATOM     10  C   UNL     1      -3.087   0.011   4.147  0.00  0.00    +0.000 C 
BRANCH  10  11
ATOM     11  C   UNL     1      -3.548   1.395   4.484  0.00  0.00    +0.000 A 
ATOM     12  C   UNL     1      -4.404   2.110   3.668  0.00  0.00    +0.000 A 
ATOM     13  N   UNL     1      -4.843   3.355   3.940  0.00  0.00    +0.000 NA
ATOM     14  C   UNL     1      -4.397   3.886   5.088  0.00  0.00    +0.000 A 
ATOM     15  N   UNL     1      -3.572   3.295   5.965  0.00  0.00    +0.000 NA
ATOM     16  C   UNL     1      -3.164   2.052   5.636  0.00  0.00    +0.000 A 
ENDBRANCH  10  11
ENDBRANCH   8  10
ENDBRANCH   5   8
ENDBRANCH   1   2
BRANCH   1  17
ATOM     17  C   UNL     1       2.602  -0.263  -0.217  0.00  0.00    +0.000 C 
BRANCH  17  18
ATOM     18  C   UNL     1       3.026   0.653  -1.355  0.00  0.00    +0.000 A 
ATOM     19  C   UNL     1       3.880   1.730  -1.174  0.00  0.00    +0.000 A 
ATOM     20  S   UNL     1       4.043   2.707  -2.565  0.00  0.00    +0.000 S 
ATOM     21  C   UNL     1       3.018   1.692  -3.468  0.00  0.00    +0.000 A 
ATOM     22  N   UNL     1       2.677   1.993  -4.750  0.00  0.00    +0.000 NA
ATOM     23  C   UNL     1       1.924   1.110  -5.319  0.00  0.00    +0.000 A 
ATOM     24  N   UNL     1       1.506  -0.058  -4.734  0.00  0.00    +0.000 N 
ATOM     25  C   UNL     1       1.864  -0.426  -3.457  0.00  0.00    +0.000 A 
ATOM     26  O   UNL     1       1.582  -1.531  -3.004  0.00  0.00    +0.000 OA
ATOM     27  C   UNL     1       2.626   0.582  -2.743  0.00  0.00    +0.000 A 
ATOM     28  H   UNL     1       0.980  -0.738  -5.262  0.00  0.00    +0.000 HD
ENDBRANCH  17  18
BRANCH  17  29
ATOM     29  N   UNL     1       3.134  -1.600  -0.467  0.00  0.00    +0.000 NA
ATOM     30  H   UNL     1       4.093  -1.538  -0.797  0.00  0.00    +0.000 HD
ATOM     31  H   UNL     1       2.587  -2.028  -1.221  0.00  0.00    +0.000 HD
ENDBRANCH  17  29
ENDBRANCH   1  17
TORSDOF 7
