REMARK  Name = 
REMARK  7 active torsions:
REMARK  status: ('A' for Active; 'I' for Inactive)
REMARK    1  A    between atoms: C_1  and  C_2
REMARK    2  A    between atoms: C_2  and  N_3
REMARK    3  A    between atoms: C_2  and  C_16
REMARK    4  A    between atoms: C_4  and  C_6
REMARK    5  A    between atoms: C_19  and  O_20
REMARK    6  A    between atoms: O_20  and  C_21
REMARK    7  A    between atoms: C_21  and  C_22
REMARK                            x       y       z     vdW  Elec       q    Type
REMARK                         _______ _______ _______ _____ _____    ______ ____
ROOT
ATOM      1  C   UNL     1       1.834  -0.157   1.529  0.00  0.00    +0.000 C 
ATOM      2  C   UNL     1       2.416  -0.234   0.113  0.00  0.00    +0.000 C 
ENDROOT
BRANCH   2   3
ATOM      3  C   UNL     1       3.033  -1.581  -0.211  0.00  0.00    +0.000 A 
ATOM      4  C   UNL     1       4.161  -1.669  -1.043  0.00  0.00    +0.000 A 
ATOM      5  C   UNL     1       4.675  -2.915  -1.411  0.00  0.00    +0.000 A 
ATOM      6  C   UNL     1       4.068  -4.087  -0.955  0.00  0.00    +0.000 A 
ATOM      7  C   UNL     1       2.941  -4.005  -0.144  0.00  0.00    +0.000 A 
ATOM      8  C   UNL     1       2.434  -2.767   0.230  0.00  0.00    +0.000 A 
BRANCH   6   9
ATOM      9  O   UNL     1       4.638  -5.258  -1.366  0.00  0.00    +0.000 OA
BRANCH   9  10
ATOM     10  C   UNL     1       4.257  -6.408  -0.603  0.00  0.00    +0.000 C 
BRANCH  10  11
ATOM     11  C   UNL     1       5.211  -7.537  -0.887  0.00  0.00    +0.000 A 
ATOM     12  C   UNL     1       6.582  -7.329  -0.751  0.00  0.00    +0.000 A 
ATOM     13  C   UNL     1       7.446  -8.388  -0.994  0.00  0.00    +0.000 A 
ATOM     14  C   UNL     1       6.920  -9.621  -1.354  0.00  0.00    +0.000 A 
ATOM     15  C   UNL     1       5.542  -9.751  -1.454  0.00  0.00    +0.000 A 
ATOM     16  N   UNL     1       4.678  -8.740  -1.220  0.00  0.00    +0.000 NA
ENDBRANCH  10  11
ENDBRANCH   9  10
ENDBRANCH   6   9
ENDBRANCH   2   3
BRANCH   2  17
ATOM     17  N   UNL     1       1.377   0.032  -0.866  0.00  0.00    +0.000 N 
ATOM     18  C   UNL     1       1.090   1.307  -1.288  0.00  0.00    +0.000 C 
ATOM     19  O   UNL     1       1.707   2.287  -0.893  0.00  0.00    +0.000 OA
ATOM     20  H   UNL     1       0.767  -0.730  -1.121  0.00  0.00    +0.000 HD
BRANCH  18  21
ATOM     21  C   UNL     1       0.029   1.405  -2.292  0.00  0.00    +0.000 A 
ATOM     22  C   UNL     1      -0.263   0.418  -3.223  0.00  0.00    +0.000 A 
ATOM     23  S   UNL     1      -1.411   0.916  -4.390  0.00  0.00    +0.000 S 
ATOM     24  C   UNL     1      -1.545   2.460  -3.683  0.00  0.00    +0.000 A 
ATOM     25  N   UNL     1      -2.314   3.432  -4.242  0.00  0.00    +0.000 NA
ATOM     26  C   UNL     1      -2.289   4.556  -3.603  0.00  0.00    +0.000 A 
ATOM     27  N   UNL     1      -1.602   4.779  -2.437  0.00  0.00    +0.000 N 
ATOM     28  C   UNL     1      -0.920   3.788  -1.769  0.00  0.00    +0.000 A 
ATOM     29  O   UNL     1      -0.555   3.944  -0.610  0.00  0.00    +0.000 OA
ATOM     30  C   UNL     1      -0.796   2.558  -2.526  0.00  0.00    +0.000 A 
ATOM     31  H   UNL     1      -1.703   5.651  -1.937  0.00  0.00    +0.000 HD
ENDBRANCH  18  21
ENDBRANCH   2  17
TORSDOF 6
