REMARK  Name = 
REMARK  5 active torsions:
REMARK  status: ('A' for Active; 'I' for Inactive)
REMARK    1  A    between atoms: C_2  and  C_18
REMARK    2  A    between atoms: N_3  and  C_4
REMARK    3  A    between atoms: C_4  and  C_5
REMARK    4  A    between atoms: C_8  and  C_9
REMARK    5  A    between atoms: C_9  and  N_10
REMARK                            x       y       z     vdW  Elec       q    Type
REMARK                         _______ _______ _______ _____ _____    ______ ____
ROOT
ATOM      1  O   UNL     1       0.512  -0.340  -0.848  0.00  0.00    +0.000 OA
ATOM      2  C   UNL     1       1.466  -0.730  -1.519  0.00  0.00    +0.000 C 
ATOM      3  N   UNL     1       2.169  -1.864  -1.182  0.00  0.00    +0.000 N 
ATOM      4  H   UNL     1       3.059  -2.053  -1.633  0.00  0.00    +0.000 HD
ENDROOT
BRANCH   2   5
ATOM      5  C   UNL     1       1.876  -0.009  -2.734  0.00  0.00    +0.000 A 
ATOM      6  C   UNL     1       0.959   0.794  -3.401  0.00  0.00    +0.000 A 
ATOM      7  S   UNL     1       1.600   1.578  -4.774  0.00  0.00    +0.000 S 
ATOM      8  C   UNL     1       3.142   0.914  -4.497  0.00  0.00    +0.000 A 
ATOM      9  N   UNL     1       4.193   1.235  -5.298  0.00  0.00    +0.000 NA
ATOM     10  C   UNL     1       5.313   0.696  -4.947  0.00  0.00    +0.000 A 
ATOM     11  N   UNL     1       5.470  -0.152  -3.883  0.00  0.00    +0.000 N 
ATOM     12  C   UNL     1       4.428  -0.545  -3.076  0.00  0.00    +0.000 A 
ATOM     13  O   UNL     1       4.588  -1.367  -2.179  0.00  0.00    +0.000 OA
ATOM     14  C   UNL     1       3.155   0.070  -3.399  0.00  0.00    +0.000 A 
ATOM     15  H   UNL     1       6.371  -0.556  -3.673  0.00  0.00    +0.000 HD
ENDBRANCH   2   5
BRANCH   3  16
ATOM     16  C   UNL     1       1.877  -2.562   0.052  0.00  0.00    +0.000 C 
BRANCH  16  17
ATOM     17  C   UNL     1       2.799  -3.733   0.300  0.00  0.00    +0.000 A 
ATOM     18  C   UNL     1       4.063  -3.511   0.861  0.00  0.00    +0.000 A 
ATOM     19  C   UNL     1       4.958  -4.566   1.079  0.00  0.00    +0.000 A 
ATOM     20  C   UNL     1       4.623  -5.884   0.738  0.00  0.00    +0.000 A 
ATOM     21  C   UNL     1       3.349  -6.116   0.192  0.00  0.00    +0.000 A 
ATOM     22  C   UNL     1       2.449  -5.054  -0.031  0.00  0.00    +0.000 A 
BRANCH  20  23
ATOM     23  C   UNL     1       5.683  -6.969   0.806  0.00  0.00    +0.000 C 
BRANCH  23  24
ATOM     24  N   UNL     1       5.940  -7.702   2.044  0.00  0.00    +0.000 NA
ATOM     25  C   UNL     1       4.944  -8.690   2.456  0.00  0.00    +0.000 C 
ATOM     26  C   UNL     1       3.865  -8.144   3.401  0.00  0.00    +0.000 C 
ATOM     27  O   UNL     1       4.434  -7.468   4.530  0.00  0.00    +0.000 OA
ATOM     28  C   UNL     1       5.318  -6.418   4.119  0.00  0.00    +0.000 C 
ATOM     29  C   UNL     1       6.428  -6.943   3.196  0.00  0.00    +0.000 C 
ENDBRANCH  23  24
ENDBRANCH  20  23
ENDBRANCH  16  17
ENDBRANCH   3  16
TORSDOF 5
