REMARK  Name = 
REMARK  9 active torsions:
REMARK  status: ('A' for Active; 'I' for Inactive)
REMARK    1  A    between atoms: C_2  and  C_21
REMARK    2  A    between atoms: N_3  and  C_4
REMARK    3  A    between atoms: C_4  and  C_5
REMARK    4  A    between atoms: C_8  and  C_9
REMARK    5  A    between atoms: C_9  and  O_10
REMARK    6  A    between atoms: C_9  and  C_11
REMARK    7  A    between atoms: C_11  and  N_12
REMARK    8  A    between atoms: N_12  and  C_13
REMARK    9  A    between atoms: C_16  and  O_17
REMARK                            x       y       z     vdW  Elec       q    Type
REMARK                         _______ _______ _______ _____ _____    ______ ____
ROOT
ATOM      1  C   UNL     1      11.329   7.349  11.341  0.00  0.00    +0.000 A 
ATOM      2  C   UNL     1      11.681   6.403  12.308  0.00  0.00    +0.000 A 
ATOM      3  C   UNL     1      11.299   5.068  12.160  0.00  0.00    +0.000 A 
ATOM      4  C   UNL     1      10.560   4.646  11.042  0.00  0.00    +0.000 A 
ATOM      5  C   UNL     1      10.279   5.584  10.041  0.00  0.00    +0.000 A 
ATOM      6  C   UNL     1      10.659   6.921  10.190  0.00  0.00    +0.000 A 
ENDROOT
BRANCH   1   7
ATOM      7  C   UNL     1      11.700   8.798  11.519  0.00  0.00    +0.000 C 
BRANCH   7  10
ATOM      8  O   UNL     1      14.172   8.926  12.858  0.00  0.00    +0.000 OA
ATOM      9  C   UNL     1      14.147   9.061  11.637  0.00  0.00    +0.000 C 
ATOM     10  N   UNL     1      12.979   9.082  10.920  0.00  0.00    +0.000 N 
ATOM     11  H   UNL     1      13.016   9.020   9.914  0.00  0.00    +0.000 HD
BRANCH   9  12
ATOM     12  C   UNL     1      15.378   9.255  10.863  0.00  0.00    +0.000 A 
ATOM     13  C   UNL     1      16.518   9.740  11.490  0.00  0.00    +0.000 A 
ATOM     14  S   UNL     1      17.855   9.900  10.445  0.00  0.00    +0.000 S 
ATOM     15  C   UNL     1      16.972   9.282   9.128  0.00  0.00    +0.000 A 
ATOM     16  N   UNL     1      17.555   9.115   7.910  0.00  0.00    +0.000 NA
ATOM     17  C   UNL     1      16.783   8.597   7.015  0.00  0.00    +0.000 A 
ATOM     18  N   UNL     1      15.475   8.246   7.221  0.00  0.00    +0.000 N 
ATOM     19  C   UNL     1      14.818   8.478   8.405  0.00  0.00    +0.000 A 
ATOM     20  O   UNL     1      13.610   8.289   8.508  0.00  0.00    +0.000 OA
ATOM     21  C   UNL     1      15.661   8.997   9.469  0.00  0.00    +0.000 A 
ATOM     22  H   UNL     1      14.913   7.882   6.465  0.00  0.00    +0.000 HD
ENDBRANCH   9  12
ENDBRANCH   7  10
ENDBRANCH   1   7
BRANCH   4  23
ATOM     23  C   UNL     1      10.103   3.200  10.970  0.00  0.00    +0.000 C 
BRANCH  23  24
ATOM     24  O   UNL     1      11.110   2.399  10.347  0.00  0.00    +0.000 OA
ATOM     25  H   UNL     1      11.533   2.951   9.668  0.00  0.00    +0.000 HD
ENDBRANCH  23  24
BRANCH  23  26
ATOM     26  C   UNL     1       8.760   2.982  10.222  0.00  0.00    +0.000 C 
BRANCH  26  27
ATOM     27  N   UNL     1       8.247   1.593  10.227  0.00  0.00    +0.000 NA
ATOM     28  H   UNL     1       8.984   1.000   9.833  0.00  0.00    +0.000 HD
BRANCH  27  29
ATOM     29  C   UNL     1       7.916   1.094  11.566  0.00  0.00    +0.000 C 
ATOM     30  C   UNL     1       6.798   1.917  12.238  0.00  0.00    +0.000 C 
ATOM     31  C   UNL     1       5.744   0.916  12.683  0.00  0.00    +0.000 C 
ATOM     32  C   UNL     1       5.874  -0.206  11.667  0.00  0.00    +0.000 C 
ATOM     33  C   UNL     1       7.381  -0.346  11.514  0.00  0.00    +0.000 C 
BRANCH  32  34
ATOM     34  O   UNL     1       5.272  -1.401  12.129  0.00  0.00    +0.000 OA
ATOM     35  H   UNL     1       5.664  -1.628  12.990  0.00  0.00    +0.000 HD
ENDBRANCH  32  34
ENDBRANCH  27  29
ENDBRANCH  26  27
ENDBRANCH  23  26
ENDBRANCH   4  23
TORSDOF 9
