REMARK  Name = 
REMARK  9 active torsions:
REMARK  status: ('A' for Active; 'I' for Inactive)
REMARK    1  A    between atoms: C_1  and  O_2
REMARK    2  A    between atoms: O_2  and  C_3
REMARK    3  A    between atoms: C_10  and  C_11
REMARK    4  A    between atoms: N_13  and  C_14
REMARK    5  A    between atoms: C_14  and  C_15
REMARK    6  A    between atoms: C_18  and  C_19
REMARK    7  A    between atoms: C_19  and  N_20
REMARK    8  A    between atoms: N_20  and  C_21
REMARK    9  A    between atoms: C_21  and  C_22
REMARK                            x       y       z     vdW  Elec       q    Type
REMARK                         _______ _______ _______ _____ _____    ______ ____
ROOT
ATOM      1  C   UNL     1       3.345  -3.043   1.415  0.00  0.00    +0.000 C 
ENDROOT
BRANCH   1   2
ATOM      2  C   UNL     1       2.360  -2.490   2.414  0.00  0.00    +0.000 A 
ATOM      3  C   UNL     1       1.424  -3.329   3.032  0.00  0.00    +0.000 A 
ATOM      4  C   UNL     1       0.488  -2.810   3.933  0.00  0.00    +0.000 A 
ATOM      5  C   UNL     1       0.462  -1.440   4.233  0.00  0.00    +0.000 A 
ATOM      6  C   UNL     1       1.387  -0.599   3.600  0.00  0.00    +0.000 A 
ATOM      7  C   UNL     1       2.322  -1.118   2.697  0.00  0.00    +0.000 A 
BRANCH   5   8
ATOM      8  C   UNL     1      -0.548  -0.887   5.215  0.00  0.00    +0.000 C 
BRANCH   8   9
ATOM      9  N   UNL     1      -0.384  -1.499   6.530  0.00  0.00    +0.000 NA
ATOM     10  H   UNL     1       0.565  -1.334   6.861  0.00  0.00    +0.000 HD
BRANCH   9  11
ATOM     11  C   UNL     1      -1.328  -0.958   7.505  0.00  0.00    +0.000 C 
BRANCH  11  12
ATOM     12  C   UNL     1      -1.158  -1.628   8.851  0.00  0.00    +0.000 A 
ATOM     13  C   UNL     1      -0.841  -0.883   9.996  0.00  0.00    +0.000 A 
ATOM     14  C   UNL     1      -0.707  -1.512  11.236  0.00  0.00    +0.000 A 
ATOM     15  C   UNL     1      -0.886  -2.890  11.346  0.00  0.00    +0.000 A 
ATOM     16  C   UNL     1      -1.198  -3.642  10.215  0.00  0.00    +0.000 A 
ATOM     17  C   UNL     1      -1.334  -3.015   8.976  0.00  0.00    +0.000 A 
ENDBRANCH  11  12
ENDBRANCH   9  11
ENDBRANCH   8   9
ENDBRANCH   5   8
ENDBRANCH   1   2
BRANCH   1  20
ATOM     18  C   UNL     1       3.463  -3.488  -1.008  0.00  0.00    +0.000 C 
ATOM     19  O   UNL     1       4.591  -3.966  -0.903  0.00  0.00    +0.000 OA
ATOM     20  N   UNL     1       2.787  -3.022   0.085  0.00  0.00    +0.000 N 
ATOM     21  H   UNL     1       1.864  -2.624  -0.021  0.00  0.00    +0.000 HD
BRANCH  18  29
ATOM     22  C   UNL     1       0.355  -2.376  -1.993  0.00  0.00    +0.000 A 
ATOM     23  N   UNL     1      -0.747  -1.956  -2.646  0.00  0.00    +0.000 NA
ATOM     24  C   UNL     1      -0.762  -2.058  -3.979  0.00  0.00    +0.000 A 
ATOM     25  N   UNL     1       0.198  -2.548  -4.755  0.00  0.00    +0.000 NA
ATOM     26  C   UNL     1       1.281  -2.946  -4.065  0.00  0.00    +0.000 A 
ATOM     27  S   UNL     1       2.604  -3.611  -4.895  0.00  0.00    +0.000 S 
ATOM     28  C   UNL     1       3.472  -3.814  -3.448  0.00  0.00    +0.000 A 
ATOM     29  C   UNL     1       2.791  -3.382  -2.316  0.00  0.00    +0.000 A 
ATOM     30  C   UNL     1       1.466  -2.884  -2.688  0.00  0.00    +0.000 A 
BRANCH  22  32
ATOM     31  C   UNL     1      -0.918  -2.243  -0.033  0.00  0.00    +0.000 C 
ATOM     32  O   UNL     1       0.381  -2.253  -0.620  0.00  0.00    +0.000 OA
ENDBRANCH  22  32
ENDBRANCH  18  29
ENDBRANCH   1  20
TORSDOF 8
