REMARK  Name = 
REMARK  8 active torsions:
REMARK  status: ('A' for Active; 'I' for Inactive)
REMARK    1  A    between atoms: C_2  and  C_21
REMARK    2  A    between atoms: N_3  and  C_4
REMARK    3  A    between atoms: C_4  and  C_5
REMARK    4  A    between atoms: C_8  and  C_9
REMARK    5  A    between atoms: C_9  and  N_10
REMARK    6  A    between atoms: N_10  and  C_11
REMARK    7  A    between atoms: C_11  and  C_12
REMARK    8  A    between atoms: C_15  and  O_16
REMARK                            x       y       z     vdW  Elec       q    Type
REMARK                         _______ _______ _______ _____ _____    ______ ____
ROOT
ATOM      1  C   UNL     1       4.690  -3.396  -7.295  0.00  0.00    +0.000 A 
ATOM      2  C   UNL     1       4.933  -4.509  -6.483  0.00  0.00    +0.000 A 
ATOM      3  C   UNL     1       6.156  -4.651  -5.824  0.00  0.00    +0.000 A 
ATOM      4  C   UNL     1       7.158  -3.677  -5.953  0.00  0.00    +0.000 A 
ATOM      5  C   UNL     1       6.899  -2.545  -6.735  0.00  0.00    +0.000 A 
ATOM      6  C   UNL     1       5.675  -2.402  -7.394  0.00  0.00    +0.000 A 
ENDROOT
BRANCH   1   7
ATOM      7  C   UNL     1       3.380  -3.261  -8.025  0.00  0.00    +0.000 C 
BRANCH   7  10
ATOM      8  O   UNL     1       1.305  -4.312  -6.422  0.00  0.00    +0.000 OA
ATOM      9  C   UNL     1       1.482  -3.097  -6.455  0.00  0.00    +0.000 C 
ATOM     10  N   UNL     1       2.428  -2.509  -7.251  0.00  0.00    +0.000 N 
ATOM     11  H   UNL     1       2.655  -1.531  -7.110  0.00  0.00    +0.000 HD
BRANCH   9  12
ATOM     12  C   UNL     1       0.640  -2.178  -5.677  0.00  0.00    +0.000 A 
ATOM     13  C   UNL     1      -0.612  -2.590  -5.241  0.00  0.00    +0.000 A 
ATOM     14  S   UNL     1      -1.458  -1.396  -4.366  0.00  0.00    +0.000 S 
ATOM     15  C   UNL     1      -0.163  -0.300  -4.500  0.00  0.00    +0.000 A 
ATOM     16  N   UNL     1      -0.226   0.931  -3.925  0.00  0.00    +0.000 NA
ATOM     17  C   UNL     1       0.840   1.645  -4.072  0.00  0.00    +0.000 A 
ATOM     18  N   UNL     1       1.958   1.244  -4.754  0.00  0.00    +0.000 N 
ATOM     19  C   UNL     1       2.037   0.040  -5.416  0.00  0.00    +0.000 A 
ATOM     20  O   UNL     1       2.999  -0.223  -6.132  0.00  0.00    +0.000 OA
ATOM     21  C   UNL     1       0.887  -0.825  -5.234  0.00  0.00    +0.000 A 
ATOM     22  H   UNL     1       2.748   1.862  -4.866  0.00  0.00    +0.000 HD
ENDBRANCH   9  12
ENDBRANCH   7  10
ENDBRANCH   1   7
BRANCH   4  23
ATOM     23  C   UNL     1       8.490  -3.852  -5.258  0.00  0.00    +0.000 C 
BRANCH  23  24
ATOM     24  N   UNL     1       9.156  -5.062  -5.731  0.00  0.00    +0.000 NA
ATOM     25  H   UNL     1       9.277  -5.004  -6.741  0.00  0.00    +0.000 HD
BRANCH  24  26
ATOM     26  C   UNL     1      10.440  -5.294  -5.076  0.00  0.00    +0.000 C 
BRANCH  26  27
ATOM     27  C   UNL     1      11.061  -6.611  -5.588  0.00  0.00    +0.000 C 
ATOM     28  C   UNL     1      12.428  -6.862  -4.925  0.00  0.00    +0.000 C 
ATOM     29  C   UNL     1      13.042  -8.187  -5.374  0.00  0.00    +0.000 C 
ATOM     30  C   UNL     1      12.091  -9.358  -5.139  0.00  0.00    +0.000 C 
ATOM     31  C   UNL     1      10.745  -9.120  -5.813  0.00  0.00    +0.000 C 
ATOM     32  C   UNL     1      10.119  -7.809  -5.355  0.00  0.00    +0.000 C 
BRANCH  30  33
ATOM     33  O   UNL     1      12.673 -10.556  -5.639  0.00  0.00    +0.000 OA
ATOM     34  H   UNL     1      12.720 -10.485  -6.608  0.00  0.00    +0.000 HD
ENDBRANCH  30  33
ENDBRANCH  26  27
ENDBRANCH  24  26
ENDBRANCH  23  24
ENDBRANCH   4  23
TORSDOF 8
