REMARK  Name = 
REMARK  8 active torsions:
REMARK  status: ('A' for Active; 'I' for Inactive)
REMARK    1  A    between atoms: C_1  and  O_2
REMARK    2  A    between atoms: O_2  and  C_3
REMARK    3  A    between atoms: C_5  and  C_6
REMARK    4  A    between atoms: C_11  and  O_12
REMARK    5  A    between atoms: O_12  and  C_13
REMARK    6  A    between atoms: C_13  and  C_14
REMARK    7  A    between atoms: C_19  and  C_20
REMARK    8  A    between atoms: C_24  and  C_25
REMARK                            x       y       z     vdW  Elec       q    Type
REMARK                         _______ _______ _______ _____ _____    ______ ____
ROOT
ATOM      1  C   UNL     1       3.724   2.037  -1.028  0.00  0.00    +0.000 C 
ENDROOT
BRANCH   1   2
ATOM      2  C   UNL     1       4.176   3.191  -1.894  0.00  0.00    +0.000 A 
ATOM      3  C   UNL     1       3.328   4.271  -2.133  0.00  0.00    +0.000 A 
ATOM      4  C   UNL     1       3.707   5.271  -3.021  0.00  0.00    +0.000 A 
ATOM      5  C   UNL     1       4.948   5.219  -3.669  0.00  0.00    +0.000 A 
ATOM      6 CL   UNL     1       5.197   6.454  -4.865  0.00  0.00    +0.000 Cl
ATOM      7  C   UNL     1       5.874   4.188  -3.390  0.00  0.00    +0.000 A 
ATOM      8  C   UNL     1       5.433   3.165  -2.517  0.00  0.00    +0.000 A 
BRANCH   7   9
ATOM      9  C   UNL     1       7.261   4.129  -3.928  0.00  0.00    +0.000 A 
ATOM     10  C   UNL     1       7.889   2.901  -4.217  0.00  0.00    +0.000 A 
ATOM     11  C   UNL     1       9.199   2.839  -4.701  0.00  0.00    +0.000 A 
ATOM     12  C   UNL     1       9.908   4.012  -4.944  0.00  0.00    +0.000 A 
ATOM     13  C   UNL     1       9.319   5.243  -4.665  0.00  0.00    +0.000 A 
ATOM     14  C   UNL     1       8.030   5.292  -4.124  0.00  0.00    +0.000 A 
BRANCH  13  15
ATOM     15  C   UNL     1      10.017   6.461  -4.951  0.00  0.00    +0.000 C 
ATOM     16  N   UNL     1      10.576   7.448  -5.197  0.00  0.00    +0.000 NA
ENDBRANCH  13  15
ENDBRANCH   7   9
ENDBRANCH   1   2
BRANCH   1  17
ATOM     17  O   UNL     1       4.636   1.834   0.049  0.00  0.00    +0.000 OA
BRANCH  17  23
ATOM     18  C   UNL     1       3.240  -0.036   0.949  0.00  0.00    +0.000 A 
ATOM     19  C   UNL     1       3.086  -0.946   2.004  0.00  0.00    +0.000 A 
ATOM     20  C   UNL     1       4.003  -1.011   3.062  0.00  0.00    +0.000 A 
ATOM     21  C   UNL     1       5.099  -0.147   3.058  0.00  0.00    +0.000 A 
ATOM     22  C   UNL     1       5.252   0.779   2.018  0.00  0.00    +0.000 A 
ATOM     23  C   UNL     1       4.330   0.852   0.962  0.00  0.00    +0.000 A 
BRANCH  20  24
ATOM     24  C   UNL     1       3.741  -2.032   4.117  0.00  0.00    +0.000 C 
ATOM     25  N   UNL     1       4.613  -2.144   5.159  0.00  0.00    +0.000 N 
ATOM     26  O   UNL     1       2.757  -2.762   4.068  0.00  0.00    +0.000 OA
ATOM     27  H   UNL     1       5.449  -1.589   5.288  0.00  0.00    +0.000 HD
ATOM     28  H   UNL     1       4.403  -2.848   5.855  0.00  0.00    +0.000 HD
ENDBRANCH  20  24
BRANCH  18  30
ATOM     29  C   UNL     1       1.086  -0.554   0.064  0.00  0.00    +0.000 C 
ATOM     30  O   UNL     1       2.397  -0.038  -0.131  0.00  0.00    +0.000 OA
ENDBRANCH  18  30
ENDBRANCH  17  23
ENDBRANCH   1  17
TORSDOF 7
