REMARK  Name = 
REMARK  10 active torsions:
REMARK  status: ('A' for Active; 'I' for Inactive)
REMARK    1  A    between atoms: C_1  and  C_2
REMARK    2  A    between atoms: C_2  and  O_3
REMARK    3  A    between atoms: O_3  and  C_4
REMARK    4  A    between atoms: C_6  and  C_7
REMARK    5  A    between atoms: C_12  and  O_13
REMARK    6  A    between atoms: O_13  and  C_14
REMARK    7  A    between atoms: C_14  and  C_15
REMARK    8  A    between atoms: C_15  and  C_16
REMARK    9  A    between atoms: C_15  and  C_17
REMARK   10  A    between atoms: C_21  and  C_22
REMARK                            x       y       z     vdW  Elec       q    Type
REMARK                         _______ _______ _______ _____ _____    ______ ____
ROOT
ATOM      1  C   UNL     1       4.270   1.478   0.607  0.00  0.00    +0.000 A 
ATOM      2  C   UNL     1       5.147   1.232  -0.455  0.00  0.00    +0.000 A 
ATOM      3  C   UNL     1       6.492   1.608  -0.377  0.00  0.00    +0.000 A 
ATOM      4  C   UNL     1       6.972   2.210   0.789  0.00  0.00    +0.000 A 
ATOM      5  C   UNL     1       6.109   2.403   1.874  0.00  0.00    +0.000 A 
ATOM      6  C   UNL     1       4.764   2.008   1.811  0.00  0.00    +0.000 A 
ENDROOT
BRANCH   3   7
ATOM      7  C   UNL     1       7.351   1.341  -1.560  0.00  0.00    +0.000 C 
ATOM      8  N   UNL     1       8.457   2.122  -1.726  0.00  0.00    +0.000 N 
ATOM      9  O   UNL     1       7.056   0.486  -2.386  0.00  0.00    +0.000 OA
ATOM     10  H   UNL     1       8.610   2.975  -1.209  0.00  0.00    +0.000 HD
ATOM     11  H   UNL     1       8.956   2.006  -2.599  0.00  0.00    +0.000 HD
ENDBRANCH   3   7
BRANCH   1  12
ATOM     12  O   UNL     1       2.939   1.176   0.486  0.00  0.00    +0.000 OA
BRANCH  12  14
ATOM     13  C   UNL     1       0.928   2.010  -0.515  0.00  0.00    +0.000 C 
ATOM     14  C   UNL     1       2.346   1.528  -0.768  0.00  0.00    +0.000 C 
ENDBRANCH  12  14
ENDBRANCH   1  12
BRANCH   6  15
ATOM     15  O   UNL     1       4.080   2.208   2.987  0.00  0.00    +0.000 OA
BRANCH  15  16
ATOM     16  C   UNL     1       2.772   1.633   3.083  0.00  0.00    +0.000 C 
BRANCH  16  17
ATOM     17  C   UNL     1       2.187   1.814   4.493  0.00  0.00    +0.000 C 
ATOM     18  C   UNL     1       2.163   3.294   4.897  0.00  0.00    +0.000 C 
BRANCH  17  19
ATOM     19  C   UNL     1       0.787   1.217   4.592  0.00  0.00    +0.000 A 
ATOM     20  C   UNL     1       0.534   0.154   5.470  0.00  0.00    +0.000 A 
ATOM     21  C   UNL     1      -0.763  -0.339   5.638  0.00  0.00    +0.000 A 
ATOM     22  C   UNL     1      -1.829   0.235   4.945  0.00  0.00    +0.000 A 
ATOM     23  C   UNL     1      -1.597   1.290   4.060  0.00  0.00    +0.000 A 
ATOM     24  C   UNL     1      -0.291   1.754   3.862  0.00  0.00    +0.000 A 
BRANCH  23  25
ATOM     25  C   UNL     1      -2.698   1.942   3.407  0.00  0.00    +0.000 C 
ATOM     26  N   UNL     1      -3.584   2.495   2.907  0.00  0.00    +0.000 NA
ENDBRANCH  23  25
ENDBRANCH  17  19
ENDBRANCH  16  17
ENDBRANCH  15  16
ENDBRANCH   6  15
TORSDOF 8
