REMARK  Name = 
REMARK  8 active torsions:
REMARK  status: ('A' for Active; 'I' for Inactive)
REMARK    1  A    between atoms: C_1  and  C_2
REMARK    2  A    between atoms: C_2  and  C_3
REMARK    3  A    between atoms: C_2  and  C_4
REMARK    4  A    between atoms: C_2  and  C_5
REMARK    5  A    between atoms: C_8  and  C_9
REMARK    6  A    between atoms: C_9  and  N_10
REMARK    7  A    between atoms: C_15  and  C_16
REMARK    8  A    between atoms: C_16  and  O_18
REMARK                            x       y       z     vdW  Elec       q    Type
REMARK                         _______ _______ _______ _____ _____    ______ ____
ROOT
ATOM      1  N   UNL     1       4.641  -5.113   3.400  0.00  0.00    +0.000 N 
ATOM      2  C   UNL     1       3.845  -5.167   4.518  0.00  0.00    +0.000 A 
ATOM      3  C   UNL     1       4.664  -5.278   5.618  0.00  0.00    +0.000 A 
ATOM      4  C   UNL     1       6.007  -5.294   5.157  0.00  0.00    +0.000 A 
ATOM      5  C   UNL     1       7.252  -5.417   5.805  0.00  0.00    +0.000 A 
ATOM      6  C   UNL     1       8.436  -5.415   5.050  0.00  0.00    +0.000 A 
ATOM      7  C   UNL     1       8.379  -5.275   3.659  0.00  0.00    +0.000 A 
ATOM      8  C   UNL     1       7.151  -5.138   2.997  0.00  0.00    +0.000 A 
ATOM      9  C   UNL     1       5.975  -5.170   3.765  0.00  0.00    +0.000 A 
ENDROOT
BRANCH   6  10
ATOM     10  C   UNL     1       9.712  -5.633   5.781  0.00  0.00    +0.000 C 
ATOM     11  O   UNL     1       9.775  -6.258   6.824  0.00  0.00    +0.000 OA
BRANCH  10  12
ATOM     12  O   UNL     1      10.791  -5.057   5.211  0.00  0.00    +0.000 OA
ATOM     13  H   UNL     1      10.595  -4.437   4.485  0.00  0.00    +0.000 HD
ENDBRANCH  10  12
ENDBRANCH   6  10
BRANCH   1  14
ATOM     14  C   UNL     1       4.125  -5.089   2.031  0.00  0.00    +0.000 C 
BRANCH  14  18
ATOM     15  C   UNL     1       2.988  -1.236   0.546  0.00  0.00    +0.000 A 
ATOM     16  C   UNL     1       4.074  -1.318   1.418  0.00  0.00    +0.000 A 
ATOM     17  C   UNL     1       4.472  -2.559   1.909  0.00  0.00    +0.000 A 
ATOM     18  C   UNL     1       3.777  -3.710   1.544  0.00  0.00    +0.000 A 
ATOM     19  C   UNL     1       2.741  -3.544   0.631  0.00  0.00    +0.000 A 
ATOM     20  N   UNL     1       2.337  -2.351   0.137  0.00  0.00    +0.000 NA
BRANCH  15  22
ATOM     21  C   UNL     1       3.599   0.843  -0.740  0.00  0.00    +0.000 C 
ATOM     22  C   UNL     1       2.486   0.124   0.044  0.00  0.00    +0.000 C 
ATOM     23  C   UNL     1       2.052   0.988   1.244  0.00  0.00    +0.000 C 
ATOM     24  C   UNL     1       1.267  -0.024  -0.893  0.00  0.00    +0.000 C 
ENDBRANCH  15  22
ENDBRANCH  14  18
ENDBRANCH   1  14
TORSDOF 5
