REMARK  Name = 
REMARK  7 active torsions:
REMARK  status: ('A' for Active; 'I' for Inactive)
REMARK    1  A    between atoms: C_2  and  C_3
REMARK    2  A    between atoms: C_6  and  N_7
REMARK    3  A    between atoms: N_7  and  C_8
REMARK    4  A    between atoms: C_8  and  C_9
REMARK    5  A    between atoms: C_9  and  C_12
REMARK    6  A    between atoms: C_14  and  C_15
REMARK    7  A    between atoms: C_18  and  O_19
REMARK                            x       y       z     vdW  Elec       q    Type
REMARK                         _______ _______ _______ _____ _____    ______ ____
ROOT
ATOM      1  C   UNL     1       6.774  -2.370   0.425  0.00  0.00    +0.000 A 
ATOM      2  C   UNL     1       8.167  -2.358   0.502  0.00  0.00    +0.000 A 
ATOM      3  C   UNL     1       8.886  -3.563   0.539  0.00  0.00    +0.000 A 
ATOM      4  C   UNL     1       8.142  -4.749   0.493  0.00  0.00    +0.000 A 
ATOM      5  C   UNL     1       6.762  -4.686   0.420  0.00  0.00    +0.000 A 
ATOM      6  N   UNL     1       6.068  -3.532   0.385  0.00  0.00    +0.000 NA
ENDROOT
BRANCH   3   7
ATOM      7  C   UNL     1      10.363  -3.579   0.623  0.00  0.00    +0.000 A 
ATOM      8  C   UNL     1      11.144  -2.551   0.056  0.00  0.00    +0.000 A 
ATOM      9  C   UNL     1      12.540  -2.560   0.133  0.00  0.00    +0.000 A 
ATOM     10  C   UNL     1      13.183  -3.612   0.775  0.00  0.00    +0.000 A 
ATOM     11  C   UNL     1      12.434  -4.638   1.339  0.00  0.00    +0.000 A 
ATOM     12  F   UNL     1      13.039  -5.661   1.961  0.00  0.00    +0.000 F 
ATOM     13  C   UNL     1      11.044  -4.624   1.271  0.00  0.00    +0.000 A 
BRANCH  10  14
ATOM     14  O   UNL     1      14.542  -3.656   0.862  0.00  0.00    +0.000 OA
ATOM     15  H   UNL     1      14.914  -2.877   0.420  0.00  0.00    +0.000 HD
ENDBRANCH  10  14
ENDBRANCH   3   7
BRANCH   1  16
ATOM     16  C   UNL     1       6.028  -1.042   0.341  0.00  0.00    +0.000 C 
ATOM     17  F   UNL     1       5.911  -0.609  -0.951  0.00  0.00    +0.000 F 
ATOM     18  F   UNL     1       6.696  -0.033   0.990  0.00  0.00    +0.000 F 
BRANCH  16  19
ATOM     19  C   UNL     1       4.622  -1.158   0.971  0.00  0.00    +0.000 C 
BRANCH  19  20
ATOM     20  N   UNL     1       3.859   0.105   0.967  0.00  0.00    +0.000 N 
ATOM     21  H   UNL     1       4.417   0.956   1.012  0.00  0.00    +0.000 HD
BRANCH  20  25
ATOM     22  C   UNL     1      -0.058   0.380   2.504  0.00  0.00    +0.000 A 
ATOM     23  C   UNL     1       0.624  -0.834   2.571  0.00  0.00    +0.000 A 
ATOM     24  C   UNL     1       1.932  -0.931   2.084  0.00  0.00    +0.000 A 
ATOM     25  C   UNL     1       2.598   0.178   1.547  0.00  0.00    +0.000 A 
ATOM     26  C   UNL     1       1.887   1.384   1.467  0.00  0.00    +0.000 A 
ATOM     27  C   UNL     1       0.574   1.490   1.941  0.00  0.00    +0.000 A 
BRANCH  22  29
ATOM     28  N   UNL     1      -2.474   0.558   3.428  0.00  0.00    +0.000 NA
ATOM     29  C   UNL     1      -1.393   0.483   3.008  0.00  0.00    +0.000 C 
ENDBRANCH  22  29
ENDBRANCH  20  25
ENDBRANCH  19  20
ENDBRANCH  16  19
ENDBRANCH   1  16
TORSDOF 7
