REMARK  Name = 
REMARK  5 active torsions:
REMARK  status: ('A' for Active; 'I' for Inactive)
REMARK    1  A    between atoms: N_1  and  C_2
REMARK    2  A    between atoms: C_2  and  C_3
REMARK    3  A    between atoms: C_5  and  C_6
REMARK    4  A    between atoms: C_6  and  N_7
REMARK    5  A    between atoms: C_12  and  C_13
REMARK                            x       y       z     vdW  Elec       q    Type
REMARK                         _______ _______ _______ _____ _____    ______ ____
ROOT
ATOM      1  N   UNL     1       3.487   5.347   0.832  0.00  0.00    +0.000 N 
ATOM      2  C   UNL     1       3.527   5.016   2.168  0.00  0.00    +0.000 A 
ATOM      3  C   UNL     1       4.556   5.713   2.753  0.00  0.00    +0.000 A 
ATOM      4  C   UNL     1       5.232   6.412   1.727  0.00  0.00    +0.000 A 
ATOM      5  C   UNL     1       6.375   7.219   1.695  0.00  0.00    +0.000 A 
ATOM      6  C   UNL     1       6.794   7.701   0.460  0.00  0.00    +0.000 A 
ATOM      7  C   UNL     1       6.020   7.413  -0.666  0.00  0.00    +0.000 A 
ATOM      8  N   UNL     1       4.883   6.654  -0.685  0.00  0.00    +0.000 NA
ATOM      9  C   UNL     1       4.550   6.172   0.528  0.00  0.00    +0.000 A 
ENDROOT
BRANCH   6  10
ATOM     10  C   UNL     1       8.025   8.508   0.336  0.00  0.00    +0.000 C 
ATOM     11  N   UNL     1       9.022   8.298   1.248  0.00  0.00    +0.000 N 
ATOM     12  O   UNL     1       8.160   9.325  -0.569  0.00  0.00    +0.000 OA
ATOM     13  H   UNL     1       9.022   7.551   1.932  0.00  0.00    +0.000 HD
ATOM     14  H   UNL     1       9.885   8.812   1.120  0.00  0.00    +0.000 HD
ENDBRANCH   6  10
BRANCH   1  15
ATOM     15  C   UNL     1       2.437   4.923  -0.080  0.00  0.00    +0.000 C 
BRANCH  15  18
ATOM     16  C   UNL     1       2.259   2.054  -2.497  0.00  0.00    +0.000 C 
ATOM     17  C   UNL     1       1.580   3.139  -1.674  0.00  0.00    +0.000 C 
ATOM     18  C   UNL     1       2.704   3.583  -0.759  0.00  0.00    +0.000 C 
ATOM     19  C   UNL     1       3.884   3.549  -1.718  0.00  0.00    +0.000 C 
ATOM     20  O   UNL     1       3.645   2.445  -2.617  0.00  0.00    +0.000 OA
BRANCH  16  21
ATOM     21  C   UNL     1       1.617   1.836  -3.876  0.00  0.00    +0.000 C 
BRANCH  21  22
ATOM     22  N   UNL     1       1.659   3.046  -4.703  0.00  0.00    +0.000 NA
ATOM     23  H   UNL     1       1.365   2.824  -5.651  0.00  0.00    +0.000 HD
ATOM     24  H   UNL     1       2.637   3.340  -4.762  0.00  0.00    +0.000 HD
ENDBRANCH  21  22
ENDBRANCH  16  21
ENDBRANCH  15  18
ENDBRANCH   1  15
TORSDOF 5
