REMARK  Name = 
REMARK  4 active torsions:
REMARK  status: ('A' for Active; 'I' for Inactive)
REMARK    1  A    between atoms: C_2  and  C_4
REMARK    2  A    between atoms: C_7  and  N_8
REMARK    3  A    between atoms: N_8  and  C_9
REMARK    4  A    between atoms: C_9  and  C_10
REMARK                            x       y       z     vdW  Elec       q    Type
REMARK                         _______ _______ _______ _____ _____    ______ ____
ROOT
ATOM      1  C   UNL     1       8.733  -2.770  -1.559  0.00  0.00    +0.000 A 
ATOM      2  C   UNL     1       7.602  -2.039  -1.179  0.00  0.00    +0.000 A 
ATOM      3  C   UNL     1       6.531  -2.685  -0.549  0.00  0.00    +0.000 A 
ATOM      4  C   UNL     1       6.554  -4.064  -0.314  0.00  0.00    +0.000 A 
ATOM      5  C   UNL     1       7.715  -4.771  -0.652  0.00  0.00    +0.000 A 
ATOM      6  C   UNL     1       8.788  -4.138  -1.288  0.00  0.00    +0.000 A 
ENDROOT
BRANCH   1   8
ATOM      7  N   UNL     1      10.098  -0.815  -2.059  0.00  0.00    +0.000 N 
ATOM      8  C   UNL     1       9.881  -2.148  -2.268  0.00  0.00    +0.000 C 
ATOM      9  O   UNL     1      10.628  -2.802  -2.986  0.00  0.00    +0.000 OA
ATOM     10  H   UNL     1      10.946  -0.437  -2.460  0.00  0.00    +0.000 HD
ATOM     11  H   UNL     1       9.683  -0.319  -1.285  0.00  0.00    +0.000 HD
ENDBRANCH   1   8
BRANCH   4  12
ATOM     12  N   UNL     1       5.448  -4.689   0.306  0.00  0.00    +0.000 N 
ATOM     13  H   UNL     1       4.612  -4.108   0.272  0.00  0.00    +0.000 HD
BRANCH  12  14
ATOM     14  C   UNL     1       5.207  -6.143   0.128  0.00  0.00    +0.000 C 
ATOM     15  C   UNL     1       5.041  -6.647  -1.300  0.00  0.00    +0.000 C 
ATOM     16  C   UNL     1       3.852  -6.609  -0.402  0.00  0.00    +0.000 C 
BRANCH  14  17
ATOM     17  C   UNL     1       5.735  -7.025   1.265  0.00  0.00    +0.000 A 
ATOM     18  C   UNL     1       5.447  -6.704   2.607  0.00  0.00    +0.000 A 
ATOM     19  C   UNL     1       5.797  -7.554   3.661  0.00  0.00    +0.000 A 
ATOM     20  C   UNL     1       6.450  -8.752   3.396  0.00  0.00    +0.000 A 
ATOM     21  C   UNL     1       6.787  -9.079   2.087  0.00  0.00    +0.000 A 
ATOM     22  C   UNL     1       6.446  -8.218   1.039  0.00  0.00    +0.000 A 
ENDBRANCH  14  17
ENDBRANCH  12  14
ENDBRANCH   4  12
TORSDOF 4
