REMARK  Name = 
REMARK  7 active torsions:
REMARK  status: ('A' for Active; 'I' for Inactive)
REMARK    1  A    between atoms: C_1  and  C_2
REMARK    2  A    between atoms: C_2  and  N_3
REMARK    3  A    between atoms: C_2  and  C_16
REMARK    4  A    between atoms: C_4  and  C_6
REMARK    5  A    between atoms: C_19  and  C_20
REMARK    6  A    between atoms: C_20  and  N_21
REMARK    7  A    between atoms: C_22  and  C_24
REMARK                            x       y       z     vdW  Elec       q    Type
REMARK                         _______ _______ _______ _____ _____    ______ ____
ROOT
ATOM      1  C   UNL     1       3.394   0.072  -1.135  0.00  0.00    +0.000 C 
ATOM      2  C   UNL     1       2.426   0.096   0.054  0.00  0.00    +0.000 C 
ENDROOT
BRANCH   2   3
ATOM      3  C   UNL     1       2.820  -0.967   1.078  0.00  0.00    +0.000 A 
ATOM      4  C   UNL     1       3.212  -0.615   2.377  0.00  0.00    +0.000 A 
ATOM      5  C   UNL     1       3.515  -1.604   3.327  0.00  0.00    +0.000 A 
ATOM      6  C   UNL     1       3.440  -2.966   2.999  0.00  0.00    +0.000 A 
ATOM      7  C   UNL     1       3.056  -3.317   1.700  0.00  0.00    +0.000 A 
ATOM      8  C   UNL     1       2.759  -2.332   0.752  0.00  0.00    +0.000 A 
BRANCH   6   9
ATOM      9  C   UNL     1       3.733  -4.037   4.021  0.00  0.00    +0.000 C 
BRANCH   9  10
ATOM     10  N   UNL     1       2.548  -4.409   4.756  0.00  0.00    +0.000 N 
ATOM     11  C   UNL     1       2.566  -5.423   5.688  0.00  0.00    +0.000 C 
ATOM     12  O   UNL     1       3.573  -6.072   5.940  0.00  0.00    +0.000 OA
ATOM     13  H   UNL     1       1.713  -3.862   4.620  0.00  0.00    +0.000 HD
BRANCH  11  14
ATOM     14  C   UNL     1       1.310  -5.670   6.356  0.00  0.00    +0.000 A 
ATOM     15  C   UNL     1       0.056  -5.103   6.234  0.00  0.00    +0.000 A 
ATOM     16  N   UNL     1      -0.845  -5.680   7.092  0.00  0.00    +0.000 NA
ATOM     17  C   UNL     1      -0.162  -6.595   7.739  0.00  0.00    +0.000 A 
ATOM     18  N   UNL     1       1.140  -6.626   7.330  0.00  0.00    +0.000 N 
ATOM     19  H   UNL     1       1.863  -7.245   7.674  0.00  0.00    +0.000 HD
ENDBRANCH  11  14
ENDBRANCH   9  10
ENDBRANCH   6   9
ENDBRANCH   2   3
BRANCH   2  20
ATOM     20  N   UNL     1       1.042  -0.126  -0.345  0.00  0.00    +0.000 N 
ATOM     21  C   UNL     1       0.362   0.673  -1.230  0.00  0.00    +0.000 C 
ATOM     22  O   UNL     1       0.874   1.635  -1.792  0.00  0.00    +0.000 OA
ATOM     23  H   UNL     1       0.489  -0.679   0.302  0.00  0.00    +0.000 HD
BRANCH  21  24
ATOM     24  C   UNL     1      -1.023   0.276  -1.522  0.00  0.00    +0.000 A 
ATOM     25  C   UNL     1      -1.582   0.580  -2.757  0.00  0.00    +0.000 A 
ATOM     26  S   UNL     1      -3.198   0.059  -2.922  0.00  0.00    +0.000 S 
ATOM     27  C   UNL     1      -3.220  -0.557  -1.337  0.00  0.00    +0.000 A 
ATOM     28  N   UNL     1      -4.347  -1.109  -0.813  0.00  0.00    +0.000 NA
ATOM     29  C   UNL     1      -4.227  -1.509   0.409  0.00  0.00    +0.000 A 
ATOM     30  N   UNL     1      -3.077  -1.423   1.151  0.00  0.00    +0.000 N 
ATOM     31  C   UNL     1      -1.903  -0.918   0.647  0.00  0.00    +0.000 A 
ATOM     32  O   UNL     1      -0.869  -0.933   1.308  0.00  0.00    +0.000 OA
ATOM     33  C   UNL     1      -1.997  -0.410  -0.706  0.00  0.00    +0.000 A 
ATOM     34  H   UNL     1      -3.043  -1.782   2.093  0.00  0.00    +0.000 HD
ENDBRANCH  21  24
ENDBRANCH   2  20
TORSDOF 6
