REMARK  Name = 
REMARK  7 active torsions:
REMARK  status: ('A' for Active; 'I' for Inactive)
REMARK    1  A    between atoms: C_1  and  C_2
REMARK    2  A    between atoms: C_2  and  N_3
REMARK    3  A    between atoms: C_2  and  C_16
REMARK    4  A    between atoms: C_4  and  C_6
REMARK    5  A    between atoms: C_19  and  C_20
REMARK    6  A    between atoms: C_20  and  N_21
REMARK    7  A    between atoms: C_22  and  C_24
REMARK                            x       y       z     vdW  Elec       q    Type
REMARK                         _______ _______ _______ _____ _____    ______ ____
ROOT
ATOM      1  C   UNL     1       3.486  -0.395  -1.215  0.00  0.00    +0.000 C 
ATOM      2  C   UNL     1       2.460  -0.013  -0.140  0.00  0.00    +0.000 C 
ENDROOT
BRANCH   2   3
ATOM      3  C   UNL     1       2.850  -0.628   1.199  0.00  0.00    +0.000 A 
ATOM      4  C   UNL     1       3.175   0.181   2.297  0.00  0.00    +0.000 A 
ATOM      5  C   UNL     1       3.493  -0.393   3.535  0.00  0.00    +0.000 A 
ATOM      6  C   UNL     1       3.499  -1.785   3.700  0.00  0.00    +0.000 A 
ATOM      7  C   UNL     1       3.172  -2.594   2.606  0.00  0.00    +0.000 A 
ATOM      8  C   UNL     1       2.857  -2.022   1.371  0.00  0.00    +0.000 A 
BRANCH   6   9
ATOM      9  C   UNL     1       3.824  -2.408   5.030  0.00  0.00    +0.000 C 
BRANCH   9  10
ATOM     10  N   UNL     1       2.640  -2.670   5.808  0.00  0.00    +0.000 N 
ATOM     11  C   UNL     1       2.715  -3.196   7.076  0.00  0.00    +0.000 C 
ATOM     12  O   UNL     1       3.770  -3.550   7.598  0.00  0.00    +0.000 OA
ATOM     13  H   UNL     1       1.730  -2.328   5.511  0.00  0.00    +0.000 HD
BRANCH  11  14
ATOM     14  C   UNL     1       1.362  -3.383   7.772  0.00  0.00    +0.000 C 
ATOM     15  C   UNL     1       0.733  -4.725   7.453  0.00  0.00    +0.000 C 
ATOM     16  C   UNL     1      -0.727  -4.504   7.800  0.00  0.00    +0.000 C 
ATOM     17  C   UNL     1      -0.962  -3.018   7.564  0.00  0.00    +0.000 C 
ATOM     18  N   UNL     1       0.345  -2.428   7.259  0.00  0.00    +0.000 NA
ATOM     19  H   UNL     1       0.453  -1.533   7.738  0.00  0.00    +0.000 HD
ENDBRANCH  11  14
ENDBRANCH   9  10
ENDBRANCH   6   9
ENDBRANCH   2   3
BRANCH   2  20
ATOM     20  N   UNL     1       1.108  -0.437  -0.470  0.00  0.00    +0.000 N 
ATOM     21  C   UNL     1       0.433  -0.028  -1.592  0.00  0.00    +0.000 C 
ATOM     22  O   UNL     1       0.937   0.698  -2.444  0.00  0.00    +0.000 OA
ATOM     23  H   UNL     1       0.551  -0.765   0.315  0.00  0.00    +0.000 HD
BRANCH  21  24
ATOM     24  C   UNL     1      -0.921  -0.569  -1.765  0.00  0.00    +0.000 A 
ATOM     25  C   UNL     1      -1.438  -0.727  -3.044  0.00  0.00    +0.000 A 
ATOM     26  S   UNL     1      -3.011  -1.384  -3.070  0.00  0.00    +0.000 S 
ATOM     27  C   UNL     1      -3.074  -1.439  -1.371  0.00  0.00    +0.000 A 
ATOM     28  N   UNL     1      -4.189  -1.877  -0.727  0.00  0.00    +0.000 NA
ATOM     29  C   UNL     1      -4.111  -1.837   0.561  0.00  0.00    +0.000 A 
ATOM     30  N   UNL     1      -3.013  -1.411   1.264  0.00  0.00    +0.000 N 
ATOM     31  C   UNL     1      -1.851  -0.995   0.656  0.00  0.00    +0.000 A 
ATOM     32  O   UNL     1      -0.865  -0.680   1.310  0.00  0.00    +0.000 OA
ATOM     33  C   UNL     1      -1.899  -0.993  -0.793  0.00  0.00    +0.000 A 
ATOM     34  H   UNL     1      -3.008  -1.424   2.273  0.00  0.00    +0.000 HD
ENDBRANCH  21  24
ENDBRANCH   2  20
TORSDOF 6
