REMARK  Name = 
REMARK  7 active torsions:
REMARK  status: ('A' for Active; 'I' for Inactive)
REMARK    1  A    between atoms: C_2  and  C_20
REMARK    2  A    between atoms: N_3  and  C_4
REMARK    3  A    between atoms: C_4  and  C_5
REMARK    4  A    between atoms: C_8  and  C_9
REMARK    5  A    between atoms: C_9  and  O_10
REMARK    6  A    between atoms: O_10  and  C_11
REMARK    7  A    between atoms: C_11  and  C_12
REMARK                            x       y       z     vdW  Elec       q    Type
REMARK                         _______ _______ _______ _____ _____    ______ ____
ROOT
ATOM      1  C   UNL     1       2.299  -2.433  -0.604  0.00  0.00    +0.000 C 
ENDROOT
BRANCH   1   2
ATOM      2  C   UNL     1       3.228  -3.517  -1.088  0.00  0.00    +0.000 A 
ATOM      3  C   UNL     1       4.512  -3.199  -1.545  0.00  0.00    +0.000 A 
ATOM      4  C   UNL     1       5.399  -4.209  -1.929  0.00  0.00    +0.000 A 
ATOM      5  C   UNL     1       5.015  -5.556  -1.882  0.00  0.00    +0.000 A 
ATOM      6  C   UNL     1       3.707  -5.870  -1.491  0.00  0.00    +0.000 A 
ATOM      7  C   UNL     1       2.820  -4.860  -1.101  0.00  0.00    +0.000 A 
BRANCH   5   8
ATOM      8  C   UNL     1       6.000  -6.643  -2.231  0.00  0.00    +0.000 C 
BRANCH   8   9
ATOM      9  O   UNL     1       7.106  -6.565  -1.336  0.00  0.00    +0.000 OA
BRANCH   9  10
ATOM     10  C   UNL     1       8.058  -7.604  -1.587  0.00  0.00    +0.000 C 
BRANCH  10  11
ATOM     11  C   UNL     1       9.232  -7.514  -0.633  0.00  0.00    +0.000 A 
ATOM     12  N   UNL     1       9.168  -8.216   0.516  0.00  0.00    +0.000 NA
ATOM     13  C   UNL     1      10.218  -8.111   1.350  0.00  0.00    +0.000 A 
ATOM     14  C   UNL     1      11.325  -7.345   1.079  0.00  0.00    +0.000 A 
ATOM     15  C   UNL     1      11.303  -6.677  -0.122  0.00  0.00    +0.000 A 
ATOM     16  N   UNL     1      10.282  -6.747  -0.997  0.00  0.00    +0.000 NA
ENDBRANCH  10  11
ENDBRANCH   9  10
ENDBRANCH   8   9
ENDBRANCH   5   8
ENDBRANCH   1   2
BRANCH   1  19
ATOM     17  O   UNL     1       0.417  -0.308  -0.479  0.00  0.00    +0.000 OA
ATOM     18  C   UNL     1       0.469  -1.034  -1.463  0.00  0.00    +0.000 C 
ATOM     19  N   UNL     1       1.408  -2.023  -1.654  0.00  0.00    +0.000 N 
ATOM     20  H   UNL     1       1.260  -2.690  -2.395  0.00  0.00    +0.000 HD
BRANCH  18  21
ATOM     21  C   UNL     1      -0.583  -1.096  -2.469  0.00  0.00    +0.000 A 
ATOM     22  C   UNL     1      -1.927  -1.027  -2.148  0.00  0.00    +0.000 A 
ATOM     23  S   UNL     1      -2.914  -1.623  -3.419  0.00  0.00    +0.000 S 
ATOM     24  C   UNL     1      -1.565  -1.857  -4.436  0.00  0.00    +0.000 A 
ATOM     25  N   UNL     1      -1.655  -2.477  -5.643  0.00  0.00    +0.000 NA
ATOM     26  C   UNL     1      -0.539  -2.527  -6.296  0.00  0.00    +0.000 A 
ATOM     27  N   UNL     1       0.647  -1.970  -5.878  0.00  0.00    +0.000 N 
ATOM     28  C   UNL     1       0.776  -1.306  -4.684  0.00  0.00    +0.000 A 
ATOM     29  O   UNL     1       1.806  -0.721  -4.374  0.00  0.00    +0.000 OA
ATOM     30  C   UNL     1      -0.416  -1.354  -3.865  0.00  0.00    +0.000 A 
ATOM     31  H   UNL     1       1.459  -1.965  -6.478  0.00  0.00    +0.000 HD
ENDBRANCH  18  21
ENDBRANCH   1  19
TORSDOF 7
