REMARK  Name = 
REMARK  9 active torsions:
REMARK  status: ('A' for Active; 'I' for Inactive)
REMARK    1  A    between atoms: C_1  and  O_2
REMARK    2  A    between atoms: O_2  and  C_3
REMARK    3  A    between atoms: C_10  and  C_11
REMARK    4  A    between atoms: N_13  and  C_14
REMARK    5  A    between atoms: C_14  and  C_15
REMARK    6  A    between atoms: C_18  and  C_19
REMARK    7  A    between atoms: C_19  and  O_20
REMARK    8  A    between atoms: O_20  and  C_21
REMARK    9  A    between atoms: C_21  and  C_22
REMARK                            x       y       z     vdW  Elec       q    Type
REMARK                         _______ _______ _______ _____ _____    ______ ____
ROOT
ATOM      1  C   UNL     1       2.866   0.607   3.359  0.00  0.00    +0.000 C 
ENDROOT
BRANCH   1   2
ATOM      2  C   UNL     1       1.807   1.636   3.050  0.00  0.00    +0.000 A 
ATOM      3  C   UNL     1       0.478   1.257   2.814  0.00  0.00    +0.000 A 
ATOM      4  C   UNL     1      -0.495   2.216   2.505  0.00  0.00    +0.000 A 
ATOM      5  C   UNL     1      -0.161   3.576   2.420  0.00  0.00    +0.000 A 
ATOM      6  C   UNL     1       1.167   3.953   2.655  0.00  0.00    +0.000 A 
ATOM      7  C   UNL     1       2.141   2.994   2.958  0.00  0.00    +0.000 A 
BRANCH   5   8
ATOM      8  C   UNL     1      -1.202   4.607   2.054  0.00  0.00    +0.000 C 
BRANCH   8   9
ATOM      9  O   UNL     1      -2.250   4.585   3.017  0.00  0.00    +0.000 OA
BRANCH   9  10
ATOM     10  C   UNL     1      -3.247   5.574   2.738  0.00  0.00    +0.000 C 
BRANCH  10  11
ATOM     11  C   UNL     1      -4.357   5.533   3.768  0.00  0.00    +0.000 A 
ATOM     12  C   UNL     1      -4.090   5.178   5.089  0.00  0.00    +0.000 A 
ATOM     13  C   UNL     1      -5.131   5.160   6.011  0.00  0.00    +0.000 A 
ATOM     14  C   UNL     1      -6.410   5.511   5.599  0.00  0.00    +0.000 A 
ATOM     15  C   UNL     1      -6.591   5.873   4.275  0.00  0.00    +0.000 A 
ATOM     16  N   UNL     1      -5.600   5.899   3.356  0.00  0.00    +0.000 NA
ENDBRANCH  10  11
ENDBRANCH   9  10
ENDBRANCH   8   9
ENDBRANCH   5   8
ENDBRANCH   1   2
BRANCH   1  19
ATOM     17  C   UNL     1       4.457  -0.853   2.174  0.00  0.00    +0.000 C 
ATOM     18  O   UNL     1       4.842  -1.346   3.232  0.00  0.00    +0.000 OA
ATOM     19  N   UNL     1       3.491   0.118   2.153  0.00  0.00    +0.000 N 
ATOM     20  H   UNL     1       3.224   0.552   1.280  0.00  0.00    +0.000 HD
BRANCH  17  28
ATOM     21  C   UNL     1       3.764  -0.041  -1.102  0.00  0.00    +0.000 A 
ATOM     22  N   UNL     1       3.711   0.099  -2.442  0.00  0.00    +0.000 NA
ATOM     23  C   UNL     1       4.554  -0.623  -3.184  0.00  0.00    +0.000 A 
ATOM     24  N   UNL     1       5.464  -1.487  -2.746  0.00  0.00    +0.000 NA
ATOM     25  C   UNL     1       5.492  -1.589  -1.406  0.00  0.00    +0.000 A 
ATOM     26  S   UNL     1       6.594  -2.649  -0.670  0.00  0.00    +0.000 S 
ATOM     27  C   UNL     1       6.039  -2.229   0.881  0.00  0.00    +0.000 A 
ATOM     28  C   UNL     1       5.019  -1.283   0.876  0.00  0.00    +0.000 A 
ATOM     29  C   UNL     1       4.692  -0.905  -0.495  0.00  0.00    +0.000 A 
BRANCH  21  31
ATOM     30  C   UNL     1       1.719   1.082  -1.041  0.00  0.00    +0.000 C 
ATOM     31  O   UNL     1       2.909   0.726  -0.340  0.00  0.00    +0.000 OA
ENDBRANCH  21  31
ENDBRANCH  17  28
ENDBRANCH   1  19
TORSDOF 8
