REMARK  Name = 
REMARK  5 active torsions:
REMARK  status: ('A' for Active; 'I' for Inactive)
REMARK    1  A    between atoms: C_2  and  C_18
REMARK    2  A    between atoms: N_3  and  C_4
REMARK    3  A    between atoms: C_4  and  C_5
REMARK    4  A    between atoms: N_8  and  C_9
REMARK    5  A    between atoms: C_9  and  C_10
REMARK                            x       y       z     vdW  Elec       q    Type
REMARK                         _______ _______ _______ _____ _____    ______ ____
ROOT
ATOM      1  O   UNL     1       0.781   1.280   0.723  0.00  0.00    +0.000 OA
ATOM      2  C   UNL     1       1.981   1.028   0.690  0.00  0.00    +0.000 C 
ATOM      3  N   UNL     1       2.767   1.279  -0.404  0.00  0.00    +0.000 N 
ATOM      4  H   UNL     1       3.672   0.824  -0.458  0.00  0.00    +0.000 HD
ENDROOT
BRANCH   2   5
ATOM      5  C   UNL     1       2.695   0.496   1.855  0.00  0.00    +0.000 A 
ATOM      6  C   UNL     1       2.240   0.742   3.142  0.00  0.00    +0.000 A 
ATOM      7  S   UNL     1       3.236   0.066   4.354  0.00  0.00    +0.000 S 
ATOM      8  C   UNL     1       4.289  -0.608   3.198  0.00  0.00    +0.000 A 
ATOM      9  N   UNL     1       5.369  -1.341   3.567  0.00  0.00    +0.000 NA
ATOM     10  C   UNL     1       6.066  -1.803   2.580  0.00  0.00    +0.000 A 
ATOM     11  N   UNL     1       5.777  -1.595   1.259  0.00  0.00    +0.000 N 
ATOM     12  C   UNL     1       4.723  -0.830   0.838  0.00  0.00    +0.000 A 
ATOM     13  O   UNL     1       4.547  -0.597  -0.356  0.00  0.00    +0.000 OA
ATOM     14  C   UNL     1       3.894  -0.303   1.906  0.00  0.00    +0.000 A 
ATOM     15  H   UNL     1       6.368  -1.965   0.529  0.00  0.00    +0.000 HD
ENDBRANCH   2   5
BRANCH   3  16
ATOM     16  C   UNL     1       2.265   1.800  -1.654  0.00  0.00    +0.000 C 
BRANCH  16  17
ATOM     17  C   UNL     1       3.347   2.640  -2.353  0.00  0.00    +0.000 C 
ATOM     18  C   UNL     1       3.790   3.845  -1.511  0.00  0.00    +0.000 C 
ATOM     19  C   UNL     1       2.730   4.945  -1.464  0.00  0.00    +0.000 C 
ATOM     20  N   UNL     1       2.370   5.405  -2.815  0.00  0.00    +0.000 NA
ATOM     21  C   UNL     1       1.868   4.286  -3.632  0.00  0.00    +0.000 C 
ATOM     22  C   UNL     1       2.876   3.132  -3.725  0.00  0.00    +0.000 C 
BRANCH  20  23
ATOM     23  C   UNL     1       1.357   6.486  -2.748  0.00  0.00    +0.000 C 
BRANCH  23  24
ATOM     24  C   UNL     1       1.831   7.733  -2.019  0.00  0.00    +0.000 A 
ATOM     25  C   UNL     1       2.973   8.429  -2.442  0.00  0.00    +0.000 A 
ATOM     26  C   UNL     1       3.461   9.512  -1.703  0.00  0.00    +0.000 A 
ATOM     27  C   UNL     1       2.788   9.939  -0.559  0.00  0.00    +0.000 A 
ATOM     28  C   UNL     1       1.619   9.295  -0.162  0.00  0.00    +0.000 A 
ATOM     29  C   UNL     1       1.146   8.196  -0.883  0.00  0.00    +0.000 A 
ENDBRANCH  23  24
ENDBRANCH  20  23
ENDBRANCH  16  17
ENDBRANCH   3  16
TORSDOF 5
