REMARK  Name = 
REMARK  6 active torsions:
REMARK  status: ('A' for Active; 'I' for Inactive)
REMARK    1  A    between atoms: C_2  and  C_4
REMARK    2  A    between atoms: C_7  and  N_8
REMARK    3  A    between atoms: N_8  and  C_9
REMARK    4  A    between atoms: C_9  and  C_10
REMARK    5  A    between atoms: C_10  and  C_13
REMARK    6  A    between atoms: C_17  and  C_18
REMARK                            x       y       z     vdW  Elec       q    Type
REMARK                         _______ _______ _______ _____ _____    ______ ____
ROOT
ATOM      1  C   UNL     1       5.556   7.278  -1.533  0.00  0.00    +0.000 C 
ATOM      2  F   UNL     1       6.875   7.100  -1.229  0.00  0.00    +0.000 F 
ATOM      3  F   UNL     1       5.487   7.227  -2.898  0.00  0.00    +0.000 F 
ENDROOT
BRANCH   1   4
ATOM      4  C   UNL     1       5.016   8.580  -0.970  0.00  0.00    +0.000 A 
ATOM      5  C   UNL     1       4.057   9.327  -1.662  0.00  0.00    +0.000 A 
ATOM      6  C   UNL     1       3.522  10.479  -1.089  0.00  0.00    +0.000 A 
ATOM      7  C   UNL     1       3.925  10.882   0.188  0.00  0.00    +0.000 A 
ATOM      8  C   UNL     1       4.865  10.144   0.927  0.00  0.00    +0.000 A 
ATOM      9  C   UNL     1       5.417   9.006   0.311  0.00  0.00    +0.000 A 
BRANCH   8  10
ATOM     10  C   UNL     1       5.219  10.503   2.316  0.00  0.00    +0.000 A 
ATOM     11  C   UNL     1       6.504  10.307   2.842  0.00  0.00    +0.000 A 
ATOM     12  C   UNL     1       6.776  10.593   4.180  0.00  0.00    +0.000 A 
ATOM     13  C   UNL     1       5.753  11.089   4.968  0.00  0.00    +0.000 A 
ATOM     14  N   UNL     1       4.505  11.311   4.513  0.00  0.00    +0.000 NA
ATOM     15  C   UNL     1       4.272  11.010   3.212  0.00  0.00    +0.000 A 
ENDBRANCH   8  10
ENDBRANCH   1   4
BRANCH   1  16
ATOM     16  C   UNL     1       4.734   6.097  -0.956  0.00  0.00    +0.000 C 
BRANCH  16  17
ATOM     17  N   UNL     1       5.170   4.767  -1.417  0.00  0.00    +0.000 N 
ATOM     18  H   UNL     1       5.487   4.732  -2.384  0.00  0.00    +0.000 HD
BRANCH  17  22
ATOM     19  C   UNL     1       3.276   1.245  -0.057  0.00  0.00    +0.000 A 
ATOM     20  C   UNL     1       2.819   2.486   0.386  0.00  0.00    +0.000 A 
ATOM     21  C   UNL     1       3.428   3.661  -0.076  0.00  0.00    +0.000 A 
ATOM     22  C   UNL     1       4.478   3.626  -1.003  0.00  0.00    +0.000 A 
ATOM     23  C   UNL     1       4.939   2.371  -1.416  0.00  0.00    +0.000 A 
ATOM     24  C   UNL     1       4.350   1.187  -0.948  0.00  0.00    +0.000 A 
BRANCH  19  26
ATOM     25  N   UNL     1       1.358   0.026   0.812  0.00  0.00    +0.000 N 
ATOM     26  C   UNL     1       2.674  -0.018   0.439  0.00  0.00    +0.000 C 
ATOM     27  O   UNL     1       3.309  -1.062   0.486  0.00  0.00    +0.000 OA
ATOM     28  H   UNL     1       0.930  -0.857   1.059  0.00  0.00    +0.000 HD
ATOM     29  H   UNL     1       0.748   0.790   0.561  0.00  0.00    +0.000 HD
ENDBRANCH  19  26
ENDBRANCH  17  22
ENDBRANCH  16  17
ENDBRANCH   1  16
TORSDOF 6
