REMARK  Name = 
REMARK  6 active torsions:
REMARK  status: ('A' for Active; 'I' for Inactive)
REMARK    1  A    between atoms: C_2  and  C_4
REMARK    2  A    between atoms: C_7  and  N_8
REMARK    3  A    between atoms: N_8  and  CA_9
REMARK    4  A    between atoms: CA_9  and  C_10
REMARK    5  A    between atoms: CA_9  and  C_12
REMARK    6  A    between atoms: C_10  and  O_11
REMARK                            x       y       z     vdW  Elec       q    Type
REMARK                         _______ _______ _______ _____ _____    ______ ____
ROOT
ATOM      1  N   UNL     1       5.225   5.513   1.416  0.00  0.00    +0.000 N 
ATOM      2  H   UNL     1       6.182   5.672   1.705  0.00  0.00    +0.000 HD
ENDROOT
BRANCH   1   6
ATOM      3  C   UNL     1       2.838   3.547   4.187  0.00  0.00    +0.000 A 
ATOM      4  C   UNL     1       2.206   4.369   3.267  0.00  0.00    +0.000 A 
ATOM      5  C   UNL     1       2.990   5.052   2.331  0.00  0.00    +0.000 A 
ATOM      6  C   UNL     1       4.380   4.935   2.343  0.00  0.00    +0.000 A 
ATOM      7  C   UNL     1       4.903   4.085   3.330  0.00  0.00    +0.000 A 
ATOM      8  N   UNL     1       4.185   3.389   4.249  0.00  0.00    +0.000 NA
BRANCH   3  10
ATOM      9  N   UNL     1       2.728   1.963   6.024  0.00  0.00    +0.000 N 
ATOM     10  C   UNL     1       2.019   2.751   5.158  0.00  0.00    +0.000 C 
ATOM     11  O   UNL     1       0.795   2.783   5.173  0.00  0.00    +0.000 OA
ATOM     12  H   UNL     1       2.235   1.366   6.671  0.00  0.00    +0.000 HD
ATOM     13  H   UNL     1       3.740   1.936   5.961  0.00  0.00    +0.000 HD
ENDBRANCH   3  10
ENDBRANCH   1   6
BRANCH   1  14
ATOM     14  CA  UNL     1       4.829   6.108   0.140  0.00  0.00    +0.000 C 
BRANCH  14  15
ATOM     15  C   UNL     1       5.743   7.295  -0.153  0.00  0.00    +0.000 A 
ATOM     16  C   UNL     1       5.205   8.591  -0.193  0.00  0.00    +0.000 A 
ATOM     17  C   UNL     1       6.015   9.693  -0.476  0.00  0.00    +0.000 A 
ATOM     18  C   UNL     1       7.375   9.516  -0.718  0.00  0.00    +0.000 A 
ATOM     19  C   UNL     1       7.927   8.238  -0.675  0.00  0.00    +0.000 A 
ATOM     20  C   UNL     1       7.120   7.134  -0.394  0.00  0.00    +0.000 A 
ENDBRANCH  14  15
BRANCH  14  21
ATOM     21  C   UNL     1       4.884   5.055  -0.996  0.00  0.00    +0.000 C 
BRANCH  21  22
ATOM     22  O   UNL     1       4.351   5.561  -2.224  0.00  0.00    +0.000 OA
ATOM     23  H   UNL     1       4.869   6.352  -2.461  0.00  0.00    +0.000 HD
ENDBRANCH  21  22
ENDBRANCH  14  21
ENDBRANCH   1  14
TORSDOF 6
