REMARK  Name = 
REMARK  10 active torsions:
REMARK  status: ('A' for Active; 'I' for Inactive)
REMARK    1  A    between atoms: C_1  and  O_2
REMARK    2  A    between atoms: O_2  and  C_3
REMARK    3  A    between atoms: C_10  and  C_11
REMARK    4  A    between atoms: N_13  and  C_14
REMARK    5  A    between atoms: C_14  and  C_15
REMARK    6  A    between atoms: C_18  and  N_19
REMARK    7  A    between atoms: N_19  and  C_20
REMARK    8  A    between atoms: C_20  and  C_21
REMARK    9  A    between atoms: C_21  and  N_22
REMARK   10  A    between atoms: N_25  and  C_26
REMARK                            x       y       z     vdW  Elec       q    Type
REMARK                         _______ _______ _______ _____ _____    ______ ____
ROOT
ATOM      1  C   UNL     1       2.218  -3.337   0.528  0.00  0.00    +0.000 A 
ATOM      2  C   UNL     1       1.624  -4.559   0.862  0.00  0.00    +0.000 A 
ATOM      3  C   UNL     1       0.673  -4.635   1.888  0.00  0.00    +0.000 A 
ATOM      4  C   UNL     1       0.304  -3.499   2.615  0.00  0.00    +0.000 A 
ATOM      5  C   UNL     1       0.823  -2.267   2.207  0.00  0.00    +0.000 A 
ATOM      6  C   UNL     1       1.783  -2.183   1.191  0.00  0.00    +0.000 A 
ENDROOT
BRANCH   4   7
ATOM      7  N   UNL     1      -0.636  -3.505   3.651  0.00  0.00    +0.000 N 
ATOM      8  H   UNL     1      -1.584  -3.352   3.301  0.00  0.00    +0.000 HD
BRANCH   7   9
ATOM      9  C   UNL     1      -0.616  -4.646   4.572  0.00  0.00    +0.000 C 
BRANCH   9  10
ATOM     10  C   UNL     1      -1.742  -4.505   5.623  0.00  0.00    +0.000 C 
BRANCH  10  11
ATOM     11  N   UNL     1      -3.098  -4.394   5.045  0.00  0.00    +0.000 NA
ATOM     12  C   UNL     1      -3.488  -5.584   4.267  0.00  0.00    +0.000 C 
ATOM     13  C   UNL     1      -4.914  -5.445   3.689  0.00  0.00    +0.000 C 
ATOM     14  N   UNL     1      -5.964  -5.174   4.689  0.00  0.00    +0.000 NA
ATOM     15  C   UNL     1      -6.272  -6.363   5.478  0.00  0.00    +0.000 C 
ATOM     16  C   UNL     1      -5.536  -4.045   5.543  0.00  0.00    +0.000 C 
ATOM     17  C   UNL     1      -4.098  -4.156   6.108  0.00  0.00    +0.000 C 
ENDBRANCH  10  11
ENDBRANCH   9  10
ENDBRANCH   7   9
ENDBRANCH   4   7
BRANCH   1  18
ATOM     18  C   UNL     1       3.262  -3.257  -0.557  0.00  0.00    +0.000 C 
BRANCH  18  21
ATOM     19  C   UNL     1       3.389  -2.910  -2.990  0.00  0.00    +0.000 C 
ATOM     20  O   UNL     1       4.610  -3.048  -2.981  0.00  0.00    +0.000 OA
ATOM     21  N   UNL     1       2.656  -3.005  -1.840  0.00  0.00    +0.000 N 
ATOM     22  H   UNL     1       1.651  -2.912  -1.868  0.00  0.00    +0.000 HD
BRANCH  19  30
ATOM     23  C   UNL     1       0.049  -2.534  -3.748  0.00  0.00    +0.000 A 
ATOM     24  N   UNL     1      -1.154  -2.277  -4.300  0.00  0.00    +0.000 NA
ATOM     25  C   UNL     1      -1.195  -1.951  -5.595  0.00  0.00    +0.000 A 
ATOM     26  N   UNL     1      -0.164  -1.858  -6.430  0.00  0.00    +0.000 NA
ATOM     27  C   UNL     1       1.015  -2.114  -5.841  0.00  0.00    +0.000 A 
ATOM     28  S   UNL     1       2.441  -2.053  -6.760  0.00  0.00    +0.000 S 
ATOM     29  C   UNL     1       3.391  -2.439  -5.406  0.00  0.00    +0.000 A 
ATOM     30  C   UNL     1       2.658  -2.612  -4.235  0.00  0.00    +0.000 A 
ATOM     31  C   UNL     1       1.231  -2.444  -4.506  0.00  0.00    +0.000 A 
BRANCH  23  33
ATOM     32  C   UNL     1      -1.170  -2.936  -1.773  0.00  0.00    +0.000 C 
ATOM     33  O   UNL     1       0.100  -2.904  -2.420  0.00  0.00    +0.000 OA
ENDBRANCH  23  33
ENDBRANCH  19  30
ENDBRANCH  18  21
ENDBRANCH   1  18
TORSDOF 8
