REMARK  Name = 
REMARK  5 active torsions:
REMARK  status: ('A' for Active; 'I' for Inactive)
REMARK    1  A    between atoms: C_2  and  C_3
REMARK    2  A    between atoms: C_6  and  N_7
REMARK    3  A    between atoms: N_7  and  C_8
REMARK    4  A    between atoms: C_8  and  C_9
REMARK    5  A    between atoms: C_13  and  C_14
REMARK                            x       y       z     vdW  Elec       q    Type
REMARK                         _______ _______ _______ _____ _____    ______ ____
ROOT
ATOM      1  C   UNL     1      10.215  -0.773  -1.011  0.00  0.00    +0.000 A 
ATOM      2  C   UNL     1      10.704   0.531  -1.143  0.00  0.00    +0.000 A 
ATOM      3  C   UNL     1      12.008   0.749  -1.581  0.00  0.00    +0.000 A 
ATOM      4  C   UNL     1      12.831  -0.332  -1.910  0.00  0.00    +0.000 A 
ATOM      5  C   UNL     1      12.376  -1.658  -1.806  0.00  0.00    +0.000 A 
ATOM      6  C   UNL     1      11.066  -1.852  -1.328  0.00  0.00    +0.000 A 
ENDROOT
BRANCH   5   7
ATOM      7  C   UNL     1      13.211  -2.796  -2.246  0.00  0.00    +0.000 A 
ATOM      8  C   UNL     1      13.187  -4.042  -1.606  0.00  0.00    +0.000 A 
ATOM      9  N   UNL     1      13.895  -5.137  -1.991  0.00  0.00    +0.000 NA
ATOM     10  C   UNL     1      14.685  -4.991  -3.078  0.00  0.00    +0.000 A 
ATOM     11  C   UNL     1      14.793  -3.807  -3.780  0.00  0.00    +0.000 A 
ATOM     12  F   UNL     1      15.587  -3.719  -4.854  0.00  0.00    +0.000 F 
ATOM     13  C   UNL     1      14.054  -2.705  -3.366  0.00  0.00    +0.000 A 
ENDBRANCH   5   7
BRANCH   1  14
ATOM     14  C   UNL     1       8.763  -1.027  -0.668  0.00  0.00    +0.000 C 
BRANCH  14  15
ATOM     15  N   UNL     1       8.650  -1.905   0.474  0.00  0.00    +0.000 N 
ATOM     16  H   UNL     1       9.184  -1.670   1.305  0.00  0.00    +0.000 HD
BRANCH  15  20
ATOM     17  C   UNL     1       5.416  -4.239   1.409  0.00  0.00    +0.000 A 
ATOM     18  C   UNL     1       6.440  -3.985   2.305  0.00  0.00    +0.000 A 
ATOM     19  N   UNL     1       7.496  -3.176   2.009  0.00  0.00    +0.000 NA
ATOM     20  C   UNL     1       7.527  -2.638   0.772  0.00  0.00    +0.000 A 
ATOM     21  C   UNL     1       6.489  -2.920  -0.122  0.00  0.00    +0.000 A 
ATOM     22  N   UNL     1       5.415  -3.704   0.168  0.00  0.00    +0.000 NA
BRANCH  17  24
ATOM     23  N   UNL     1       3.436  -5.766   2.090  0.00  0.00    +0.000 NA
ATOM     24  C   UNL     1       4.313  -5.082   1.763  0.00  0.00    +0.000 C 
ENDBRANCH  17  24
ENDBRANCH  15  20
ENDBRANCH  14  15
ENDBRANCH   1  14
TORSDOF 5
