REMARK  Name = 
REMARK  5 active torsions:
REMARK  status: ('A' for Active; 'I' for Inactive)
REMARK    1  A    between atoms: C_2  and  C_20
REMARK    2  A    between atoms: N_3  and  C_4
REMARK    3  A    between atoms: C_4  and  C_5
REMARK    4  A    between atoms: C_8  and  C_9
REMARK    5  A    between atoms: C_9  and  N_10
REMARK                            x       y       z     vdW  Elec       q    Type
REMARK                         _______ _______ _______ _____ _____    ______ ____
ROOT
ATOM      1  C   UNL     1       2.223  -0.944  -2.335  0.00  0.00    +0.000 C 
ENDROOT
BRANCH   1   2
ATOM      2  C   UNL     1       3.225  -1.354  -3.380  0.00  0.00    +0.000 A 
ATOM      3  C   UNL     1       4.044  -0.400  -3.997  0.00  0.00    +0.000 A 
ATOM      4  C   UNL     1       4.985  -0.781  -4.961  0.00  0.00    +0.000 A 
ATOM      5  C   UNL     1       5.116  -2.124  -5.341  0.00  0.00    +0.000 A 
ATOM      6  C   UNL     1       4.306  -3.079  -4.713  0.00  0.00    +0.000 A 
ATOM      7  C   UNL     1       3.363  -2.698  -3.752  0.00  0.00    +0.000 A 
BRANCH   5   8
ATOM      8  C   UNL     1       6.097  -2.534  -6.413  0.00  0.00    +0.000 C 
BRANCH   8   9
ATOM      9  N   UNL     1       7.411  -2.811  -5.875  0.00  0.00    +0.000 N 
ATOM     10  C   UNL     1       8.399  -3.272  -6.709  0.00  0.00    +0.000 C 
ATOM     11  O   UNL     1       8.195  -3.533  -7.891  0.00  0.00    +0.000 OA
ATOM     12  N   UNL     1       9.632  -3.421  -6.122  0.00  0.00    +0.000 N 
ATOM     13  C   UNL     1       9.984  -3.300  -4.721  0.00  0.00    +0.000 C 
ATOM     14  C   UNL     1      11.464  -2.967  -4.771  0.00  0.00    +0.000 C 
ATOM     15  C   UNL     1      11.970  -3.803  -5.941  0.00  0.00    +0.000 C 
ATOM     16  C   UNL     1      10.773  -3.900  -6.888  0.00  0.00    +0.000 C 
ATOM     17  H   UNL     1       7.718  -2.184  -5.153  0.00  0.00    +0.000 HD
ENDBRANCH   8   9
ENDBRANCH   5   8
ENDBRANCH   1   2
BRANCH   1  20
ATOM     18  O   UNL     1       0.062  -0.111  -0.841  0.00  0.00    +0.000 OA
ATOM     19  C   UNL     1      -0.080  -0.184  -2.057  0.00  0.00    +0.000 C 
ATOM     20  N   UNL     1       0.942  -0.592  -2.888  0.00  0.00    +0.000 N 
ATOM     21  H   UNL     1       0.748  -0.645  -3.883  0.00  0.00    +0.000 HD
BRANCH  19  22
ATOM     22  C   UNL     1      -1.339   0.144  -2.745  0.00  0.00    +0.000 A 
ATOM     23  N   UNL     1      -1.487  -0.039  -4.083  0.00  0.00    +0.000 NA
ATOM     24  N   UNL     1      -2.764   0.341  -4.327  0.00  0.00    +0.000 N 
ATOM     25  C   UNL     1      -3.425   0.766  -3.214  0.00  0.00    +0.000 A 
ATOM     26  N   UNL     1      -4.706   1.198  -3.177  0.00  0.00    +0.000 NA
ATOM     27  C   UNL     1      -5.079   1.540  -1.983  0.00  0.00    +0.000 A 
ATOM     28  N   UNL     1      -4.283   1.486  -0.855  0.00  0.00    +0.000 N 
ATOM     29  C   UNL     1      -2.964   1.068  -0.870  0.00  0.00    +0.000 A 
ATOM     30  O   UNL     1      -2.284   1.084   0.148  0.00  0.00    +0.000 OA
ATOM     31  C   UNL     1      -2.527   0.662  -2.180  0.00  0.00    +0.000 A 
ATOM     32  H   UNL     1      -3.127   0.287  -5.272  0.00  0.00    +0.000 HD
ATOM     33  H   UNL     1      -4.632   1.783   0.042  0.00  0.00    +0.000 HD
ENDBRANCH  19  22
ENDBRANCH   1  20
TORSDOF 5
