REMARK  Name = 
REMARK  7 active torsions:
REMARK  status: ('A' for Active; 'I' for Inactive)
REMARK    1  A    between atoms: C_2  and  C_21
REMARK    2  A    between atoms: N_3  and  C_4
REMARK    3  A    between atoms: C_4  and  C_5
REMARK    4  A    between atoms: C_8  and  C_9
REMARK    5  A    between atoms: C_9  and  N_10
REMARK    6  A    between atoms: CA_15  and  C_16
REMARK    7  A    between atoms: C_16  and  O_17
REMARK                            x       y       z     vdW  Elec       q    Type
REMARK                         _______ _______ _______ _____ _____    ______ ____
ROOT
ATOM      1  C   UNL     1       3.141   2.420   2.799  0.00  0.00    +0.000 A 
ATOM      2  C   UNL     1       3.083   3.820   2.787  0.00  0.00    +0.000 A 
ATOM      3  C   UNL     1       3.873   4.572   3.660  0.00  0.00    +0.000 A 
ATOM      4  C   UNL     1       4.755   3.942   4.548  0.00  0.00    +0.000 A 
ATOM      5  C   UNL     1       4.829   2.541   4.544  0.00  0.00    +0.000 A 
ATOM      6  C   UNL     1       4.037   1.789   3.670  0.00  0.00    +0.000 A 
ENDROOT
BRANCH   1   7
ATOM      7  C   UNL     1       2.248   1.616   1.890  0.00  0.00    +0.000 C 
BRANCH   7  10
ATOM      8  O   UNL     1       1.671   3.112  -0.414  0.00  0.00    +0.000 OA
ATOM      9  C   UNL     1       2.505   2.214  -0.488  0.00  0.00    +0.000 C 
ATOM     10  N   UNL     1       2.831   1.427   0.586  0.00  0.00    +0.000 N 
ATOM     11  H   UNL     1       3.624   0.798   0.528  0.00  0.00    +0.000 HD
BRANCH   9  12
ATOM     12  C   UNL     1       3.165   1.896  -1.760  0.00  0.00    +0.000 A 
ATOM     13  C   UNL     1       2.580   2.301  -2.954  0.00  0.00    +0.000 A 
ATOM     14  S   UNL     1       3.476   1.869  -4.338  0.00  0.00    +0.000 S 
ATOM     15  C   UNL     1       4.696   1.156  -3.391  0.00  0.00    +0.000 A 
ATOM     16  N   UNL     1       5.807   0.621  -3.970  0.00  0.00    +0.000 NA
ATOM     17  C   UNL     1       6.672   0.149  -3.134  0.00  0.00    +0.000 A 
ATOM     18  N   UNL     1       6.516   0.148  -1.771  0.00  0.00    +0.000 N 
ATOM     19  C   UNL     1       5.375   0.598  -1.150  0.00  0.00    +0.000 A 
ATOM     20  O   UNL     1       5.206   0.442   0.055  0.00  0.00    +0.000 OA
ATOM     21  C   UNL     1       4.404   1.204  -2.040  0.00  0.00    +0.000 A 
ATOM     22  H   UNL     1       7.212  -0.273  -1.176  0.00  0.00    +0.000 HD
ENDBRANCH   9  12
ENDBRANCH   7  10
ENDBRANCH   1   7
BRANCH   4  23
ATOM     23  C   UNL     1       5.614   4.757   5.491  0.00  0.00    +0.000 C 
BRANCH  23  24
ATOM     24  N   UNL     1       4.895   5.010   6.732  0.00  0.00    +0.000 N 
ATOM     25  C   UNL     1       5.672   5.653   7.712  0.00  0.00    +0.000 A 
ATOM     26  C   UNL     1       5.091   5.929   8.945  0.00  0.00    +0.000 A 
ATOM     27  C   UNL     1       5.839   6.576   9.929  0.00  0.00    +0.000 A 
ATOM     28  C   UNL     1       7.153   6.935   9.655  0.00  0.00    +0.000 A 
ATOM     29  CA  UNL     1       7.671   6.636   8.400  0.00  0.00    +0.000 A 
ATOM     30  N   UNL     1       6.941   6.020   7.437  0.00  0.00    +0.000 NA
ATOM     31  H   UNL     1       4.501   4.158   7.121  0.00  0.00    +0.000 HD
BRANCH  29  32
ATOM     32  C   UNL     1       9.101   6.980   8.061  0.00  0.00    +0.000 C 
BRANCH  32  33
ATOM     33  O   UNL     1       9.335   8.384   8.141  0.00  0.00    +0.000 OA
ATOM     34  H   UNL     1       8.693   8.796   7.534  0.00  0.00    +0.000 HD
ENDBRANCH  32  33
ENDBRANCH  29  32
ENDBRANCH  23  24
ENDBRANCH   4  23
TORSDOF 7
