REMARK  Name = 
REMARK  7 active torsions:
REMARK  status: ('A' for Active; 'I' for Inactive)
REMARK    1  A    between atoms: C_2  and  C_20
REMARK    2  A    between atoms: N_3  and  C_4
REMARK    3  A    between atoms: C_4  and  C_5
REMARK    4  A    between atoms: C_8  and  C_9
REMARK    5  A    between atoms: C_9  and  C_10
REMARK    6  A    between atoms: C_10  and  S_11
REMARK    7  A    between atoms: S_11  and  C_12
REMARK                            x       y       z     vdW  Elec       q    Type
REMARK                         _______ _______ _______ _____ _____    ______ ____
ROOT
ATOM      1  C   UNL     1       2.205   0.326   2.478  0.00  0.00    +0.000 C 
ENDROOT
BRANCH   1   2
ATOM      2  C   UNL     1       3.146   0.608   3.620  0.00  0.00    +0.000 A 
ATOM      3  C   UNL     1       3.425   1.926   4.004  0.00  0.00    +0.000 A 
ATOM      4  C   UNL     1       4.271   2.190   5.087  0.00  0.00    +0.000 A 
ATOM      5  C   UNL     1       4.859   1.143   5.809  0.00  0.00    +0.000 A 
ATOM      6  C   UNL     1       4.611  -0.173   5.397  0.00  0.00    +0.000 A 
ATOM      7  C   UNL     1       3.769  -0.438   4.311  0.00  0.00    +0.000 A 
BRANCH   5   8
ATOM      8  C   UNL     1       5.775   1.419   6.984  0.00  0.00    +0.000 C 
BRANCH   8   9
ATOM      9  C   UNL     1       5.078   2.173   8.123  0.00  0.00    +0.000 C 
BRANCH   9  10
ATOM     10  S   UNL     1       6.247   2.459   9.504  0.00  0.00    +0.000 S 
BRANCH  10  11
ATOM     11  C   UNL     1       5.224   3.283  10.721  0.00  0.00    +0.000 A 
ATOM     12  C   UNL     1       5.538   3.100  12.069  0.00  0.00    +0.000 A 
ATOM     13  C   UNL     1       4.775   3.753  13.025  0.00  0.00    +0.000 A 
ATOM     14  N   UNL     1       3.741   4.567  12.731  0.00  0.00    +0.000 NA
ATOM     15  C   UNL     1       3.465   4.742  11.423  0.00  0.00    +0.000 A 
ATOM     16  C   UNL     1       4.170   4.134  10.395  0.00  0.00    +0.000 A 
ENDBRANCH  10  11
ENDBRANCH   9  10
ENDBRANCH   8   9
ENDBRANCH   5   8
ENDBRANCH   1   2
BRANCH   1  19
ATOM     17  O   UNL     1       1.015  -0.350   0.076  0.00  0.00    +0.000 OA
ATOM     18  C   UNL     1       2.198  -0.020   0.060  0.00  0.00    +0.000 C 
ATOM     19  N   UNL     1       2.891   0.261   1.213  0.00  0.00    +0.000 N 
ATOM     20  H   UNL     1       3.789   0.729   1.151  0.00  0.00    +0.000 HD
BRANCH  18  21
ATOM     21  C   UNL     1       2.953   0.050  -1.196  0.00  0.00    +0.000 A 
ATOM     22  C   UNL     1       2.547  -0.700  -2.291  0.00  0.00    +0.000 A 
ATOM     23  S   UNL     1       3.542  -0.499  -3.662  0.00  0.00    +0.000 S 
ATOM     24  C   UNL     1       4.520   0.635  -2.854  0.00  0.00    +0.000 A 
ATOM     25  N   UNL     1       5.560   1.240  -3.488  0.00  0.00    +0.000 NA
ATOM     26  C   UNL     1       6.193   2.105  -2.767  0.00  0.00    +0.000 A 
ATOM     27  N   UNL     1       5.886   2.413  -1.465  0.00  0.00    +0.000 N 
ATOM     28  C   UNL     1       4.870   1.798  -0.774  0.00  0.00    +0.000 A 
ATOM     29  O   UNL     1       4.660   2.050   0.407  0.00  0.00    +0.000 OA
ATOM     30  C   UNL     1       4.110   0.835  -1.548  0.00  0.00    +0.000 A 
ATOM     31  H   UNL     1       6.431   3.085  -0.951  0.00  0.00    +0.000 HD
ENDBRANCH  18  21
ENDBRANCH   1  19
TORSDOF 7
