REMARK  Name = 
REMARK  9 active torsions:
REMARK  status: ('A' for Active; 'I' for Inactive)
REMARK    1  A    between atoms: C_1  and  O_2
REMARK    2  A    between atoms: O_2  and  C_3
REMARK    3  A    between atoms: C_10  and  C_11
REMARK    4  A    between atoms: N_13  and  C_14
REMARK    5  A    between atoms: C_14  and  C_15
REMARK    6  A    between atoms: C_18  and  C_19
REMARK    7  A    between atoms: C_19  and  N_20
REMARK    8  A    between atoms: N_20  and  C_21
REMARK    9  A    between atoms: C_21  and  C_22
REMARK                            x       y       z     vdW  Elec       q    Type
REMARK                         _______ _______ _______ _____ _____    ______ ____
ROOT
ATOM      1  C   UNL     1       2.869   3.206   0.668  0.00  0.00    +0.000 C 
ENDROOT
BRANCH   1   2
ATOM      2  C   UNL     1       1.710   3.273  -0.296  0.00  0.00    +0.000 A 
ATOM      3  C   UNL     1       1.341   2.144  -1.035  0.00  0.00    +0.000 A 
ATOM      4  C   UNL     1       0.203   2.161  -1.850  0.00  0.00    +0.000 A 
ATOM      5  C   UNL     1      -0.607   3.302  -1.944  0.00  0.00    +0.000 A 
ATOM      6  C   UNL     1      -0.185   4.462  -1.274  0.00  0.00    +0.000 A 
ATOM      7  C   UNL     1       0.961   4.447  -0.460  0.00  0.00    +0.000 A 
BRANCH   5   8
ATOM      8  C   UNL     1      -1.880   3.303  -2.777  0.00  0.00    +0.000 C 
BRANCH   8   9
ATOM      9  N   UNL     1      -2.529   1.985  -2.789  0.00  0.00    +0.000 NA
ATOM     10  H   UNL     1      -2.764   1.737  -1.827  0.00  0.00    +0.000 HD
BRANCH   9  11
ATOM     11  C   UNL     1      -3.735   1.940  -3.618  0.00  0.00    +0.000 C 
BRANCH  11  12
ATOM     12  C   UNL     1      -4.348   0.522  -3.594  0.00  0.00    +0.000 C 
ATOM     13  C   UNL     1      -3.410  -0.541  -4.192  0.00  0.00    +0.000 C 
ATOM     14  C   UNL     1      -4.090  -1.906  -4.219  0.00  0.00    +0.000 C 
ATOM     15  O   UNL     1      -5.319  -1.848  -4.943  0.00  0.00    +0.000 OA
ATOM     16  C   UNL     1      -6.249  -0.943  -4.352  0.00  0.00    +0.000 C 
ATOM     17  C   UNL     1      -5.690   0.476  -4.345  0.00  0.00    +0.000 C 
ENDBRANCH  11  12
ENDBRANCH   9  11
ENDBRANCH   8   9
ENDBRANCH   5   8
ENDBRANCH   1   2
BRANCH   1  20
ATOM     18  C   UNL     1       5.299   3.546   0.761  0.00  0.00    +0.000 C 
ATOM     19  O   UNL     1       5.326   3.211   1.945  0.00  0.00    +0.000 OA
ATOM     20  N   UNL     1       4.121   3.576   0.060  0.00  0.00    +0.000 N 
ATOM     21  H   UNL     1       4.124   3.765  -0.931  0.00  0.00    +0.000 HD
BRANCH  18  29
ATOM     22  C   UNL     1       5.958   4.451  -2.485  0.00  0.00    +0.000 A 
ATOM     23  N   UNL     1       6.454   4.952  -3.634  0.00  0.00    +0.000 NA
ATOM     24  C   UNL     1       7.733   5.340  -3.648  0.00  0.00    +0.000 A 
ATOM     25  N   UNL     1       8.603   5.273  -2.646  0.00  0.00    +0.000 NA
ATOM     26  C   UNL     1       8.065   4.782  -1.518  0.00  0.00    +0.000 A 
ATOM     27  S   UNL     1       9.035   4.600  -0.135  0.00  0.00    +0.000 S 
ATOM     28  C   UNL     1       7.719   4.015   0.769  0.00  0.00    +0.000 A 
ATOM     29  C   UNL     1       6.526   3.960   0.057  0.00  0.00    +0.000 A 
ATOM     30  C   UNL     1       6.750   4.370  -1.326  0.00  0.00    +0.000 A 
BRANCH  22  32
ATOM     31  C   UNL     1       3.974   4.121  -3.713  0.00  0.00    +0.000 C 
ATOM     32  O   UNL     1       4.660   3.984  -2.473  0.00  0.00    +0.000 OA
ENDBRANCH  22  32
ENDBRANCH  18  29
ENDBRANCH   1  20
TORSDOF 8
