REMARK  Name = 
REMARK  6 active torsions:
REMARK  status: ('A' for Active; 'I' for Inactive)
REMARK    1  A    between atoms: C_2  and  C_4
REMARK    2  A    between atoms: C_7  and  O_8
REMARK    3  A    between atoms: O_8  and  C_9
REMARK    4  A    between atoms: C_9  and  C_10
REMARK    5  A    between atoms: C_15  and  N_16
REMARK    6  A    between atoms: C_19  and  N_20
REMARK                            x       y       z     vdW  Elec       q    Type
REMARK                         _______ _______ _______ _____ _____    ______ ____
ROOT
ATOM      1  C   UNL     1       6.198  -5.851   3.698  0.00  0.00    +0.000 A 
ATOM      2  C   UNL     1       7.149  -5.168   4.460  0.00  0.00    +0.000 A 
ATOM      3  C   UNL     1       7.969  -5.877   5.325  0.00  0.00    +0.000 A 
ATOM      4  F   UNL     1       8.849  -5.217   6.091  0.00  0.00    +0.000 F 
ATOM      5  C   UNL     1       7.871  -7.260   5.436  0.00  0.00    +0.000 A 
ATOM      6  C   UNL     1       6.949  -7.986   4.668  0.00  0.00    +0.000 A 
ATOM      7  C   UNL     1       6.123  -7.256   3.797  0.00  0.00    +0.000 A 
ENDROOT
BRANCH   6   8
ATOM      8  N   UNL     1       6.846  -9.362   4.850  0.00  0.00    +0.000 N 
ATOM      9  C   UNL     1       5.611 -10.073   4.513  0.00  0.00    +0.000 C 
ATOM     10  C   UNL     1       5.500 -11.314   5.403  0.00  0.00    +0.000 C 
ATOM     11  C   UNL     1       6.753 -12.201   5.364  0.00  0.00    +0.000 C 
ATOM     12  C   UNL     1       8.022 -11.365   5.574  0.00  0.00    +0.000 C 
ATOM     13  C   UNL     1       8.074 -10.149   4.654  0.00  0.00    +0.000 C 
BRANCH  11  14
ATOM     14  N   UNL     1       6.837 -12.978   4.122  0.00  0.00    +0.000 NA
ATOM     15  H   UNL     1       6.832 -12.365   3.310  0.00  0.00    +0.000 HD
ATOM     16  H   UNL     1       6.014 -13.574   4.035  0.00  0.00    +0.000 HD
ENDBRANCH  11  14
ENDBRANCH   6   8
BRANCH   1  17
ATOM     17  C   UNL     1       5.245  -5.090   2.809  0.00  0.00    +0.000 C 
BRANCH  17  18
ATOM     18  O   UNL     1       5.831  -4.885   1.526  0.00  0.00    +0.000 OA
BRANCH  18  22
ATOM     19  C   UNL     1       3.658  -2.963  -1.484  0.00  0.00    +0.000 A 
ATOM     20  C   UNL     1       3.070  -3.104  -0.223  0.00  0.00    +0.000 A 
ATOM     21  C   UNL     1       3.769  -3.736   0.814  0.00  0.00    +0.000 A 
ATOM     22  C   UNL     1       5.056  -4.237   0.598  0.00  0.00    +0.000 A 
ATOM     23  C   UNL     1       5.639  -4.094  -0.663  0.00  0.00    +0.000 A 
ATOM     24  C   UNL     1       4.943  -3.467  -1.703  0.00  0.00    +0.000 A 
BRANCH  19  26
ATOM     25  N   UNL     1       1.982  -1.398  -2.314  0.00  0.00    +0.000 N 
ATOM     26  C   UNL     1       2.939  -2.325  -2.617  0.00  0.00    +0.000 C 
ATOM     27  O   UNL     1       3.208  -2.593  -3.781  0.00  0.00    +0.000 OA
ATOM     28  H   UNL     1       1.579  -0.902  -3.099  0.00  0.00    +0.000 HD
ATOM     29  H   UNL     1       1.916  -0.965  -1.404  0.00  0.00    +0.000 HD
ENDBRANCH  19  26
ENDBRANCH  18  22
ENDBRANCH  17  18
ENDBRANCH   1  17
TORSDOF 6
