REMARK  Name = 
REMARK  7 active torsions:
REMARK  status: ('A' for Active; 'I' for Inactive)
REMARK    1  A    between atoms: C_2  and  C_4
REMARK    2  A    between atoms: C_7  and  N_8
REMARK    3  A    between atoms: N_8  and  C_9
REMARK    4  A    between atoms: C_9  and  C_10
REMARK    5  A    between atoms: C_10  and  C_13
REMARK    6  A    between atoms: C_17  and  O_18
REMARK    7  A    between atoms: O_18  and  C_19
REMARK                            x       y       z     vdW  Elec       q    Type
REMARK                         _______ _______ _______ _____ _____    ______ ____
ROOT
ATOM      1  C   UNL     1       5.946   6.787   2.185  0.00  0.00    +0.000 C 
ATOM      2  F   UNL     1       7.232   6.337   2.301  0.00  0.00    +0.000 F 
ATOM      3  F   UNL     1       5.905   7.430   0.976  0.00  0.00    +0.000 F 
ENDROOT
BRANCH   1   4
ATOM      4  C   UNL     1       5.575   7.709   3.331  0.00  0.00    +0.000 A 
ATOM      5  C   UNL     1       6.090   7.497   4.619  0.00  0.00    +0.000 A 
ATOM      6  C   UNL     1       5.805   8.395   5.649  0.00  0.00    +0.000 A 
ATOM      7  C   UNL     1       4.990   9.508   5.414  0.00  0.00    +0.000 A 
ATOM      8  C   UNL     1       4.446   9.709   4.148  0.00  0.00    +0.000 A 
ATOM      9  C   UNL     1       4.735   8.812   3.117  0.00  0.00    +0.000 A 
BRANCH   8  10
ATOM     10  O   UNL     1       3.665  10.773   3.783  0.00  0.00    +0.000 OA
BRANCH  10  11
ATOM     11  C   UNL     1       2.955  11.518   4.804  0.00  0.00    +0.000 C 
ATOM     12  C   UNL     1       1.777  10.819   5.510  0.00  0.00    +0.000 C 
ATOM     13  N   UNL     1       0.887  11.940   5.175  0.00  0.00    +0.000 NA
ATOM     14  C   UNL     1       1.895  12.501   4.265  0.00  0.00    +0.000 C 
ATOM     15  H   UNL     1       0.656  12.544   5.963  0.00  0.00    +0.000 HD
ENDBRANCH  10  11
ENDBRANCH   8  10
ENDBRANCH   1   4
BRANCH   1  16
ATOM     16  C   UNL     1       4.996   5.568   2.105  0.00  0.00    +0.000 C 
BRANCH  16  17
ATOM     17  N   UNL     1       5.319   4.657   0.990  0.00  0.00    +0.000 N 
ATOM     18  H   UNL     1       5.673   5.118   0.152  0.00  0.00    +0.000 HD
BRANCH  17  22
ATOM     19  C   UNL     1       3.195   1.082   0.301  0.00  0.00    +0.000 A 
ATOM     20  C   UNL     1       2.805   1.924   1.343  0.00  0.00    +0.000 A 
ATOM     21  C   UNL     1       3.489   3.125   1.564  0.00  0.00    +0.000 A 
ATOM     22  C   UNL     1       4.551   3.524   0.743  0.00  0.00    +0.000 A 
ATOM     23  C   UNL     1       4.940   2.657  -0.288  0.00  0.00    +0.000 A 
ATOM     24  C   UNL     1       4.275   1.443  -0.507  0.00  0.00    +0.000 A 
BRANCH  19  26
ATOM     25  N   UNL     1       1.199  -0.303   0.428  0.00  0.00    +0.000 N 
ATOM     26  C   UNL     1       2.514  -0.216   0.061  0.00  0.00    +0.000 C 
ATOM     27  O   UNL     1       3.087  -1.158  -0.469  0.00  0.00    +0.000 OA
ATOM     28  H   UNL     1       0.717  -1.153   0.170  0.00  0.00    +0.000 HD
ATOM     29  H   UNL     1       0.640   0.514   0.630  0.00  0.00    +0.000 HD
ENDBRANCH  19  26
ENDBRANCH  17  22
ENDBRANCH  16  17
ENDBRANCH   1  16
TORSDOF 7
