REMARK  Name = 
REMARK  6 active torsions:
REMARK  status: ('A' for Active; 'I' for Inactive)
REMARK    1  A    between atoms: C_2  and  C_4
REMARK    2  A    between atoms: C_7  and  N_8
REMARK    3  A    between atoms: N_8  and  C_9
REMARK    4  A    between atoms: C_9  and  C_10
REMARK    5  A    between atoms: C_10  and  C_13
REMARK    6  A    between atoms: C_17  and  C_18
REMARK                            x       y       z     vdW  Elec       q    Type
REMARK                         _______ _______ _______ _____ _____    ______ ____
ROOT
ATOM      1  C   UNL     1       6.022  -5.649  -4.455  0.00  0.00    +0.000 C 
ATOM      2  F   UNL     1       7.315  -5.214  -4.512  0.00  0.00    +0.000 F 
ATOM      3  F   UNL     1       6.012  -6.579  -3.442  0.00  0.00    +0.000 F 
ENDROOT
BRANCH   1   4
ATOM      4  C   UNL     1       5.582  -6.256  -5.771  0.00  0.00    +0.000 A 
ATOM      5  C   UNL     1       5.245  -7.611  -5.861  0.00  0.00    +0.000 A 
ATOM      6  C   UNL     1       4.846  -8.155  -7.079  0.00  0.00    +0.000 A 
ATOM      7  C   UNL     1       4.764  -7.347  -8.217  0.00  0.00    +0.000 A 
ATOM      8  C   UNL     1       5.072  -5.974  -8.170  0.00  0.00    +0.000 A 
ATOM      9  C   UNL     1       5.508  -5.468  -6.930  0.00  0.00    +0.000 A 
ATOM     10  F   UNL     1       5.833  -4.170  -6.827  0.00  0.00    +0.000 F 
BRANCH   8  11
ATOM     11  C   UNL     1       4.891  -5.109  -9.360  0.00  0.00    +0.000 A 
ATOM     12  C   UNL     1       3.855  -5.332 -10.283  0.00  0.00    +0.000 A 
ATOM     13  C   UNL     1       3.671  -4.486 -11.378  0.00  0.00    +0.000 A 
ATOM     14  C   UNL     1       4.533  -3.418 -11.531  0.00  0.00    +0.000 A 
ATOM     15  N   UNL     1       5.549  -3.159 -10.686  0.00  0.00    +0.000 NA
ATOM     16  C   UNL     1       5.703  -4.005  -9.634  0.00  0.00    +0.000 A 
ENDBRANCH   8  11
ENDBRANCH   1   4
BRANCH   1  17
ATOM     17  C   UNL     1       5.103  -4.481  -4.004  0.00  0.00    +0.000 C 
BRANCH  17  18
ATOM     18  N   UNL     1       5.446  -3.941  -2.676  0.00  0.00    +0.000 N 
ATOM     19  H   UNL     1       5.821  -4.623  -2.019  0.00  0.00    +0.000 HD
BRANCH  18  23
ATOM     20  C   UNL     1       3.383  -0.712  -0.911  0.00  0.00    +0.000 A 
ATOM     21  C   UNL     1       2.981  -1.184  -2.162  0.00  0.00    +0.000 A 
ATOM     22  C   UNL     1       3.646  -2.267  -2.749  0.00  0.00    +0.000 A 
ATOM     23  C   UNL     1       4.698  -2.922  -2.097  0.00  0.00    +0.000 A 
ATOM     24  C   UNL     1       5.104  -2.416  -0.854  0.00  0.00    +0.000 A 
ATOM     25  C   UNL     1       4.460  -1.321  -0.265  0.00  0.00    +0.000 A 
BRANCH  20  27
ATOM     26  N   UNL     1       1.401   0.659  -0.568  0.00  0.00    +0.000 N 
ATOM     27  C   UNL     1       2.718   0.446  -0.265  0.00  0.00    +0.000 C 
ATOM     28  O   UNL     1       3.305   1.165   0.536  0.00  0.00    +0.000 OA
ATOM     29  H   UNL     1       0.933   1.382  -0.039  0.00  0.00    +0.000 HD
ATOM     30  H   UNL     1       0.829  -0.045  -1.013  0.00  0.00    +0.000 HD
ENDBRANCH  20  27
ENDBRANCH  18  23
ENDBRANCH  17  18
ENDBRANCH   1  17
TORSDOF 6
