REMARK  Name = 
REMARK  5 active torsions:
REMARK  status: ('A' for Active; 'I' for Inactive)
REMARK    1  A    between atoms: C_2  and  C_4
REMARK    2  A    between atoms: C_7  and  O_8
REMARK    3  A    between atoms: O_8  and  C_9
REMARK    4  A    between atoms: C_9  and  C_10
REMARK    5  A    between atoms: C_12  and  C_13
REMARK                            x       y       z     vdW  Elec       q    Type
REMARK                         _______ _______ _______ _____ _____    ______ ____
ROOT
ATOM      1  C   UNL     1       5.091   2.906   5.112  0.00  0.00    +0.000 C 
ENDROOT
BRANCH   1   2
ATOM      2  C   UNL     1       6.011   3.783   5.931  0.00  0.00    +0.000 A 
ATOM      3  C   UNL     1       6.711   4.836   5.343  0.00  0.00    +0.000 A 
ATOM      4  C   UNL     1       7.505   5.689   6.126  0.00  0.00    +0.000 A 
ATOM      5  C   UNL     1       7.551   5.422   7.500  0.00  0.00    +0.000 A 
ATOM      6  C   UNL     1       6.828   4.356   8.011  0.00  0.00    +0.000 A 
ATOM      7  N   UNL     1       6.056   3.543   7.264  0.00  0.00    +0.000 NA
BRANCH   4   8
ATOM      8  C   UNL     1       8.249   6.815   5.521  0.00  0.00    +0.000 A 
ATOM      9  C   UNL     1       7.769   7.515   4.402  0.00  0.00    +0.000 A 
ATOM     10  C   UNL     1       8.498   8.566   3.848  0.00  0.00    +0.000 A 
ATOM     11  C   UNL     1       9.701   8.910   4.435  0.00  0.00    +0.000 A 
ATOM     12  N   UNL     1      10.211   8.280   5.510  0.00  0.00    +0.000 NA
ATOM     13  C   UNL     1       9.481   7.254   6.017  0.00  0.00    +0.000 A 
ENDBRANCH   4   8
ENDBRANCH   1   2
BRANCH   1  14
ATOM     14  O   UNL     1       5.550   2.797   3.761  0.00  0.00    +0.000 OA
BRANCH  14  18
ATOM     15  C   UNL     1       3.450   0.496   0.990  0.00  0.00    +0.000 A 
ATOM     16  C   UNL     1       2.956   0.585   2.295  0.00  0.00    +0.000 A 
ATOM     17  C   UNL     1       3.625   1.354   3.253  0.00  0.00    +0.000 A 
ATOM     18  C   UNL     1       4.796   2.035   2.914  0.00  0.00    +0.000 A 
ATOM     19  C   UNL     1       5.287   1.947   1.608  0.00  0.00    +0.000 A 
ATOM     20  C   UNL     1       4.622   1.178   0.649  0.00  0.00    +0.000 A 
BRANCH  15  22
ATOM     21  N   UNL     1       1.447  -0.572   0.105  0.00  0.00    +0.000 N 
ATOM     22  C   UNL     1       2.787  -0.345  -0.041  0.00  0.00    +0.000 C 
ATOM     23  O   UNL     1       3.404  -0.796  -0.996  0.00  0.00    +0.000 OA
ATOM     24  H   UNL     1       0.994  -1.078  -0.645  0.00  0.00    +0.000 HD
ATOM     25  H   UNL     1       0.864  -0.028   0.724  0.00  0.00    +0.000 HD
ENDBRANCH  15  22
ENDBRANCH  14  18
ENDBRANCH   1  14
TORSDOF 5
