REMARK  Name = 
REMARK  6 active torsions:
REMARK  status: ('A' for Active; 'I' for Inactive)
REMARK    1  A    between atoms: N_1  and  C_2
REMARK    2  A    between atoms: C_2  and  C_3
REMARK    3  A    between atoms: C_3  and  C_4
REMARK    4  A    between atoms: C_7  and  C_8
REMARK    5  A    between atoms: C_8  and  C_9
REMARK    6  A    between atoms: C_16  and  C_17
REMARK                            x       y       z     vdW  Elec       q    Type
REMARK                         _______ _______ _______ _____ _____    ______ ____
ROOT
ATOM      1  C   UNL     1       9.599   0.745   2.136  0.00  0.00    +0.000 A 
ATOM      2  N   UNL     1       9.878   0.132   3.291  0.00  0.00    +0.000 NA
ATOM      3  S   UNL     1      10.002   1.276   4.474  0.00  0.00    +0.000 S 
ATOM      4  C   UNL     1       9.794   2.633   3.443  0.00  0.00    +0.000 A 
ATOM      5  C   UNL     1       9.640   3.986   3.773  0.00  0.00    +0.000 A 
ATOM      6  C   UNL     1       9.567   4.909   2.733  0.00  0.00    +0.000 A 
ATOM      7  F   UNL     1       9.370   6.196   3.065  0.00  0.00    +0.000 F 
ATOM      8  C   UNL     1       9.696   4.525   1.401  0.00  0.00    +0.000 A 
ATOM      9  C   UNL     1       9.777   3.154   1.088  0.00  0.00    +0.000 A 
ATOM     10  C   UNL     1       9.777   2.183   2.122  0.00  0.00    +0.000 A 
ENDROOT
BRANCH   8  11
ATOM     11  C   UNL     1       9.750   5.511   0.288  0.00  0.00    +0.000 C 
ATOM     12  N   UNL     1       9.558   6.830   0.585  0.00  0.00    +0.000 N 
ATOM     13  O   UNL     1       9.976   5.153  -0.862  0.00  0.00    +0.000 OA
ATOM     14  H   UNL     1       9.395   7.177   1.528  0.00  0.00    +0.000 HD
ATOM     15  H   UNL     1       9.636   7.506  -0.165  0.00  0.00    +0.000 HD
ENDBRANCH   8  11
BRANCH   1  16
ATOM     16  C   UNL     1       8.974  -0.072   1.040  0.00  0.00    +0.000 C 
BRANCH  16  20
ATOM     17  C   UNL     1       4.778   0.695   1.896  0.00  0.00    +0.000 A 
ATOM     18  C   UNL     1       5.429   1.373   0.857  0.00  0.00    +0.000 A 
ATOM     19  C   UNL     1       6.764   1.092   0.545  0.00  0.00    +0.000 A 
ATOM     20  C   UNL     1       7.479   0.124   1.264  0.00  0.00    +0.000 A 
ATOM     21  C   UNL     1       6.808  -0.583   2.277  0.00  0.00    +0.000 A 
ATOM     22  C   UNL     1       5.474  -0.301   2.589  0.00  0.00    +0.000 A 
BRANCH  17  23
ATOM     23  C   UNL     1       3.358   1.047   2.276  0.00  0.00    +0.000 C 
BRANCH  23  24
ATOM     24  C   UNL     1       2.318   0.221   1.514  0.00  0.00    +0.000 C 
BRANCH  24  25
ATOM     25  N   UNL     1       0.959   0.602   1.899  0.00  0.00    +0.000 NA
ATOM     26  H   UNL     1       0.289   0.037   1.377  0.00  0.00    +0.000 HD
ATOM     27  H   UNL     1       0.785   1.569   1.630  0.00  0.00    +0.000 HD
ENDBRANCH  24  25
ENDBRANCH  23  24
ENDBRANCH  17  23
ENDBRANCH  16  20
ENDBRANCH   1  16
TORSDOF 6
