REMARK  Name = 
REMARK  6 active torsions:
REMARK  status: ('A' for Active; 'I' for Inactive)
REMARK    1  A    between atoms: C_2  and  C_3
REMARK    2  A    between atoms: C_6  and  N_7
REMARK    3  A    between atoms: N_7  and  C_8
REMARK    4  A    between atoms: C_8  and  C_9
REMARK    5  A    between atoms: C_13  and  C_14
REMARK    6  A    between atoms: C_18  and  C_19
REMARK                            x       y       z     vdW  Elec       q    Type
REMARK                         _______ _______ _______ _____ _____    ______ ____
ROOT
ATOM      1  C   UNL     1       9.839   0.237  -0.573  0.00  0.00    +0.000 A 
ATOM      2  C   UNL     1       9.856   1.266  -1.527  0.00  0.00    +0.000 A 
ATOM      3  C   UNL     1      10.591   2.429  -1.314  0.00  0.00    +0.000 A 
ATOM      4  C   UNL     1      11.375   2.558  -0.167  0.00  0.00    +0.000 A 
ATOM      5  C   UNL     1      11.478   1.509   0.759  0.00  0.00    +0.000 A 
ATOM      6  C   UNL     1      10.690   0.367   0.533  0.00  0.00    +0.000 A 
ENDROOT
BRANCH   5   7
ATOM      7  C   UNL     1      12.350   1.575   1.947  0.00  0.00    +0.000 A 
ATOM      8  C   UNL     1      13.008   0.425   2.414  0.00  0.00    +0.000 A 
ATOM      9  C   UNL     1      13.796   0.490   3.553  0.00  0.00    +0.000 A 
ATOM     10  N   UNL     1      13.982   1.615   4.260  0.00  0.00    +0.000 NA
ATOM     11  C   UNL     1      13.348   2.726   3.794  0.00  0.00    +0.000 A 
ATOM     12  C   UNL     1      12.540   2.758   2.665  0.00  0.00    +0.000 A 
BRANCH  11  13
ATOM     13  C   UNL     1      13.538   3.977   4.600  0.00  0.00    +0.000 C 
ATOM     14  N   UNL     1      14.331   3.825   5.705  0.00  0.00    +0.000 N 
ATOM     15  O   UNL     1      13.019   5.043   4.304  0.00  0.00    +0.000 OA
ATOM     16  H   UNL     1      14.708   2.915   5.925  0.00  0.00    +0.000 HD
ATOM     17  H   UNL     1      14.471   4.610   6.325  0.00  0.00    +0.000 HD
ENDBRANCH  11  13
ENDBRANCH   5   7
BRANCH   1  18
ATOM     18  C   UNL     1       8.840  -0.904  -0.659  0.00  0.00    +0.000 C 
ATOM     19  C   UNL     1       7.979  -1.219   0.550  0.00  0.00    +0.000 C 
ATOM     20  C   UNL     1       7.384  -0.444  -0.576  0.00  0.00    +0.000 C 
BRANCH  18  21
ATOM     21  N   UNL     1       9.126  -1.895  -1.684  0.00  0.00    +0.000 N 
ATOM     22  H   UNL     1       9.022  -1.641  -2.662  0.00  0.00    +0.000 HD
BRANCH  21  26
ATOM     23  C   UNL     1      11.288  -5.382  -1.659  0.00  0.00    +0.000 A 
ATOM     24  C   UNL     1      10.799  -4.799  -2.815  0.00  0.00    +0.000 A 
ATOM     25  N   UNL     1      10.114  -3.630  -2.808  0.00  0.00    +0.000 NA
ATOM     26  C   UNL     1       9.900  -3.039  -1.610  0.00  0.00    +0.000 A 
ATOM     27  C   UNL     1      10.399  -3.635  -0.450  0.00  0.00    +0.000 A 
ATOM     28  N   UNL     1      11.104  -4.805  -0.444  0.00  0.00    +0.000 NA
BRANCH  23  30
ATOM     29  N   UNL     1      12.574  -7.633  -1.848  0.00  0.00    +0.000 NA
ATOM     30  C   UNL     1      12.003  -6.624  -1.724  0.00  0.00    +0.000 C 
ENDBRANCH  23  30
ENDBRANCH  21  26
ENDBRANCH  18  21
ENDBRANCH   1  18
TORSDOF 6
