REMARK  Name = 
REMARK  6 active torsions:
REMARK  status: ('A' for Active; 'I' for Inactive)
REMARK    1  A    between atoms: C_1  and  C_2
REMARK    2  A    between atoms: C_5  and  C_6
REMARK    3  A    between atoms: C_10  and  C_11
REMARK    4  A    between atoms: C_11  and  C_12
REMARK    5  A    between atoms: C_15  and  O_16
REMARK    6  A    between atoms: O_16  and  C_17
REMARK                            x       y       z     vdW  Elec       q    Type
REMARK                         _______ _______ _______ _____ _____    ______ ____
ROOT
ATOM      1  C   UNL     1       0.880   2.404   0.086  0.00  0.00    +0.000 C 
ATOM      2  C   UNL     1       2.109   2.892  -0.714  0.00  0.00    +0.000 C 
ATOM      3  C   UNL     1       2.257   2.564   0.730  0.00  0.00    +0.000 C 
ENDROOT
BRANCH   1  10
ATOM      4  C   UNL     1       0.234   0.247   2.214  0.00  0.00    +0.000 C 
ATOM      5  C   UNL     1       0.054   0.013   0.741  0.00  0.00    +0.000 A 
ATOM      6  C   UNL     1      -0.466  -1.214   0.306  0.00  0.00    +0.000 A 
ATOM      7  N   UNL     1      -0.696  -1.546  -0.986  0.00  0.00    +0.000 NA
ATOM      8  C   UNL     1      -0.373  -0.599  -1.904  0.00  0.00    +0.000 A 
ATOM      9  C   UNL     1       0.149   0.642  -1.569  0.00  0.00    +0.000 A 
ATOM     10  C   UNL     1       0.362   0.995  -0.225  0.00  0.00    +0.000 A 
BRANCH   8  11
ATOM     11  C   UNL     1      -0.636  -0.901  -3.345  0.00  0.00    +0.000 C 
ATOM     12  N   UNL     1      -1.258  -2.089  -3.608  0.00  0.00    +0.000 N 
ATOM     13  O   UNL     1      -0.335  -0.129  -4.246  0.00  0.00    +0.000 OA
ATOM     14  H   UNL     1      -1.544  -2.692  -2.846  0.00  0.00    +0.000 HD
ATOM     15  H   UNL     1      -1.506  -2.305  -4.563  0.00  0.00    +0.000 HD
ENDBRANCH   8  11
ENDBRANCH   1  10
BRANCH   1  16
ATOM     16  C   UNL     1      -0.152   3.530   0.243  0.00  0.00    +0.000 A 
ATOM     17  C   UNL     1      -0.279   4.244   1.444  0.00  0.00    +0.000 A 
ATOM     18  C   UNL     1      -0.835   5.525   1.459  0.00  0.00    +0.000 A 
ATOM     19  C   UNL     1      -1.272   6.105   0.272  0.00  0.00    +0.000 A 
ATOM     20  C   UNL     1      -1.365   5.325  -0.877  0.00  0.00    +0.000 A 
ATOM     21  C   UNL     1      -0.818   4.042  -0.886  0.00  0.00    +0.000 A 
BRANCH  19  22
ATOM     22  O   UNL     1      -1.647   7.408   0.152  0.00  0.00    +0.000 OA
BRANCH  22  23
ATOM     23  C   UNL     1      -0.787   8.379   0.750  0.00  0.00    +0.000 C 
ATOM     24  F   UNL     1       0.273   7.866   1.413  0.00  0.00    +0.000 F 
ATOM     25  F   UNL     1      -0.311   9.204  -0.210  0.00  0.00    +0.000 F 
ATOM     26  F   UNL     1      -1.511   9.120   1.618  0.00  0.00    +0.000 F 
ENDBRANCH  22  23
ENDBRANCH  19  22
ENDBRANCH   1  16
TORSDOF 5
