REMARK  Name = 
REMARK  7 active torsions:
REMARK  status: ('A' for Active; 'I' for Inactive)
REMARK    1  A    between atoms: C_1  and  N_2
REMARK    2  A    between atoms: N_2  and  C_3
REMARK    3  A    between atoms: C_3  and  C_4
REMARK    4  A    between atoms: C_7  and  C_8
REMARK    5  A    between atoms: C_8  and  N_9
REMARK    6  A    between atoms: N_9  and  C_10
REMARK    7  A    between atoms: C_17  and  C_19
REMARK                            x       y       z     vdW  Elec       q    Type
REMARK                         _______ _______ _______ _____ _____    ______ ____
ROOT
ATOM      1  C   UNL     1       3.079  -0.624   1.007  0.00  0.00    +0.000 C 
ENDROOT
BRANCH   1   2
ATOM      2  C   UNL     1       2.247  -1.619   1.770  0.00  0.00    +0.000 A 
ATOM      3  C   UNL     1       2.403  -2.998   1.561  0.00  0.00    +0.000 A 
ATOM      4  C   UNL     1       1.637  -3.914   2.285  0.00  0.00    +0.000 A 
ATOM      5  C   UNL     1       0.709  -3.463   3.237  0.00  0.00    +0.000 A 
ATOM      6  C   UNL     1       0.556  -2.088   3.442  0.00  0.00    +0.000 A 
ATOM      7  C   UNL     1       1.314  -1.172   2.712  0.00  0.00    +0.000 A 
BRANCH   5   8
ATOM      8  C   UNL     1      -0.162  -4.440   3.988  0.00  0.00    +0.000 C 
BRANCH   8   9
ATOM      9  N   UNL     1       0.630  -5.410   4.744  0.00  0.00    +0.000 NA
ATOM     10  H   UNL     1       1.242  -4.899   5.382  0.00  0.00    +0.000 HD
BRANCH   9  11
ATOM     11  C   UNL     1      -0.227  -6.330   5.509  0.00  0.00    +0.000 C 
ATOM     12  C   UNL     1       0.615  -7.288   6.347  0.00  0.00    +0.000 C 
ATOM     13  C   UNL     1       0.741  -8.511   5.463  0.00  0.00    +0.000 C 
ATOM     14  N   UNL     1      -0.606  -8.663   4.899  0.00  0.00    +0.000 NA
ATOM     15  C   UNL     1      -1.052  -7.288   4.616  0.00  0.00    +0.000 C 
ATOM     16  H   UNL     1      -1.214  -9.062   5.612  0.00  0.00    +0.000 HD
ENDBRANCH   9  11
ENDBRANCH   8   9
ENDBRANCH   5   8
ENDBRANCH   1   2
BRANCH   1  18
ATOM     17  C   UNL     1       1.252  -0.572  -0.740  0.00  0.00    +0.000 C 
ATOM     18  N   UNL     1       2.490  -0.025  -0.194  0.00  0.00    +0.000 N 
ATOM     19  C   UNL     1       2.938   1.185  -0.751  0.00  0.00    +0.000 C 
ATOM     20  O   UNL     1       2.312   1.749  -1.646  0.00  0.00    +0.000 OA
BRANCH  19  21
ATOM     21  C   UNL     1       4.204   1.767  -0.281  0.00  0.00    +0.000 A 
ATOM     22  C   UNL     1       5.375   1.049  -0.093  0.00  0.00    +0.000 A 
ATOM     23  S   UNL     1       6.696   2.014   0.392  0.00  0.00    +0.000 S 
ATOM     24  C   UNL     1       5.783   3.438   0.225  0.00  0.00    +0.000 A 
ATOM     25  N   UNL     1       6.356   4.660   0.391  0.00  0.00    +0.000 NA
ATOM     26  C   UNL     1       5.559   5.651   0.164  0.00  0.00    +0.000 A 
ATOM     27  N   UNL     1       4.235   5.531  -0.171  0.00  0.00    +0.000 N 
ATOM     28  C   UNL     1       3.579   4.318  -0.214  0.00  0.00    +0.000 A 
ATOM     29  O   UNL     1       2.355   4.262  -0.270  0.00  0.00    +0.000 OA
ATOM     30  C   UNL     1       4.464   3.174  -0.092  0.00  0.00    +0.000 A 
ATOM     31  H   UNL     1       3.650   6.348  -0.269  0.00  0.00    +0.000 HD
ENDBRANCH  19  21
ENDBRANCH   1  18
TORSDOF 6
