REMARK  Name = 
REMARK  6 active torsions:
REMARK  status: ('A' for Active; 'I' for Inactive)
REMARK    1  A    between atoms: N_1  and  C_2
REMARK    2  A    between atoms: C_2  and  C_3
REMARK    3  A    between atoms: C_7  and  C_8
REMARK    4  A    between atoms: C_8  and  O_9
REMARK    5  A    between atoms: O_9  and  C_10
REMARK    6  A    between atoms: C_13  and  C_14
REMARK                            x       y       z     vdW  Elec       q    Type
REMARK                         _______ _______ _______ _____ _____    ______ ____
ROOT
ATOM      1  O   UNL     1       4.259  -2.456   4.184  0.00  0.00    +0.000 OA
ENDROOT
BRANCH   1   2
ATOM      2  C   UNL     1       4.329  -2.603   5.540  0.00  0.00    +0.000 A 
ATOM      3  C   UNL     1       3.750  -3.633   6.279  0.00  0.00    +0.000 A 
ATOM      4  C   UNL     1       3.906  -3.675   7.668  0.00  0.00    +0.000 A 
ATOM      5  C   UNL     1       4.662  -2.700   8.332  0.00  0.00    +0.000 A 
ATOM      6  C   UNL     1       5.268  -1.683   7.585  0.00  0.00    +0.000 A 
ATOM      7  C   UNL     1       5.081  -1.628   6.201  0.00  0.00    +0.000 A 
BRANCH   5   8
ATOM      8  C   UNL     1       4.750  -2.765   9.815  0.00  0.00    +0.000 C 
ATOM      9  N   UNL     1       5.872  -2.279  10.419  0.00  0.00    +0.000 N 
ATOM     10  O   UNL     1       3.843  -3.257  10.489  0.00  0.00    +0.000 OA
ATOM     11  H   UNL     1       6.654  -1.863   9.933  0.00  0.00    +0.000 HD
ATOM     12  H   UNL     1       5.901  -2.319  11.431  0.00  0.00    +0.000 HD
ENDBRANCH   5   8
ENDBRANCH   1   2
BRANCH   1  13
ATOM     13  C   UNL     1       3.537  -3.454   3.460  0.00  0.00    +0.000 C 
BRANCH  13  18
ATOM     14  C   UNL     1       2.986  -1.336   0.233  0.00  0.00    +0.000 C 
ATOM     15  C   UNL     1       2.234  -2.409  -0.572  0.00  0.00    +0.000 C 
ATOM     16  C   UNL     1       2.830  -3.797  -0.346  0.00  0.00    +0.000 C 
ATOM     17  C   UNL     1       2.848  -4.158   1.137  0.00  0.00    +0.000 C 
ATOM     18  C   UNL     1       3.589  -3.105   1.967  0.00  0.00    +0.000 C 
ATOM     19  C   UNL     1       3.014  -1.701   1.724  0.00  0.00    +0.000 C 
BRANCH  14  20
ATOM     20  C   UNL     1       2.417   0.079   0.012  0.00  0.00    +0.000 C 
BRANCH  20  21
ATOM     21  N   UNL     1       1.014   0.208   0.393  0.00  0.00    +0.000 NA
ATOM     22  H   UNL     1       0.727   1.182   0.302  0.00  0.00    +0.000 HD
ATOM     23  H   UNL     1       0.894  -0.027   1.376  0.00  0.00    +0.000 HD
ENDBRANCH  20  21
ENDBRANCH  14  20
ENDBRANCH  13  18
ENDBRANCH   1  13
TORSDOF 6
