REMARK  Name = 
REMARK  5 active torsions:
REMARK  status: ('A' for Active; 'I' for Inactive)
REMARK    1  A    between atoms: C_2  and  C_4
REMARK    2  A    between atoms: C_7  and  N_8
REMARK    3  A    between atoms: N_8  and  C_9
REMARK    4  A    between atoms: C_9  and  C_10
REMARK    5  A    between atoms: C_14  and  C_15
REMARK                            x       y       z     vdW  Elec       q    Type
REMARK                         _______ _______ _______ _____ _____    ______ ____
ROOT
ATOM      1  N   UNL     1       5.198  -4.658  -1.600  0.00  0.00    +0.000 N 
ATOM      2  H   UNL     1       4.951  -5.055  -0.700  0.00  0.00    +0.000 HD
ENDROOT
BRANCH   1   6
ATOM      3  C   UNL     1       4.823  -0.571  -1.756  0.00  0.00    +0.000 A 
ATOM      4  C   UNL     1       4.259  -1.371  -2.736  0.00  0.00    +0.000 A 
ATOM      5  N   UNL     1       4.318  -2.730  -2.696  0.00  0.00    +0.000 NA
ATOM      6  C   UNL     1       4.961  -3.281  -1.645  0.00  0.00    +0.000 A 
ATOM      7  C   UNL     1       5.508  -2.451  -0.654  0.00  0.00    +0.000 A 
ATOM      8  N   UNL     1       5.459  -1.092  -0.672  0.00  0.00    +0.000 NA
BRANCH   3  10
ATOM      9  N   UNL     1       5.414   1.627  -0.918  0.00  0.00    +0.000 N 
ATOM     10  C   UNL     1       4.783   0.909  -1.896  0.00  0.00    +0.000 C 
ATOM     11  O   UNL     1       4.230   1.460  -2.843  0.00  0.00    +0.000 OA
ATOM     12  H   UNL     1       5.471   2.632  -1.007  0.00  0.00    +0.000 HD
ATOM     13  H   UNL     1       5.949   1.149  -0.203  0.00  0.00    +0.000 HD
ENDBRANCH   3  10
ENDBRANCH   1   6
BRANCH   1  14
ATOM     14  C   UNL     1       4.692  -5.445  -2.719  0.00  0.00    +0.000 C 
BRANCH  14  15
ATOM     15  C   UNL     1       5.579  -6.656  -2.892  0.00  0.00    +0.000 A 
ATOM     16  C   UNL     1       5.088  -7.957  -2.815  0.00  0.00    +0.000 A 
ATOM     17  C   UNL     1       5.970  -9.004  -3.028  0.00  0.00    +0.000 A 
ATOM     18  N   UNL     1       7.285  -8.845  -3.298  0.00  0.00    +0.000 NA
ATOM     19  C   UNL     1       7.771  -7.581  -3.360  0.00  0.00    +0.000 A 
ATOM     20  C   UNL     1       6.939  -6.477  -3.179  0.00  0.00    +0.000 A 
BRANCH  19  21
ATOM     21  C   UNL     1       9.211  -7.446  -3.625  0.00  0.00    +0.000 A 
ATOM     22  C   UNL     1       9.972  -6.372  -3.137  0.00  0.00    +0.000 A 
ATOM     23  C   UNL     1      11.331  -6.272  -3.427  0.00  0.00    +0.000 A 
ATOM     24  C   UNL     1      11.909  -7.258  -4.203  0.00  0.00    +0.000 A 
ATOM     25  N   UNL     1      11.231  -8.318  -4.688  0.00  0.00    +0.000 NA
ATOM     26  C   UNL     1       9.909  -8.388  -4.383  0.00  0.00    +0.000 A 
ENDBRANCH  19  21
ENDBRANCH  14  15
ENDBRANCH   1  14
TORSDOF 5
