REMARK  Name = 
REMARK  9 active torsions:
REMARK  status: ('A' for Active; 'I' for Inactive)
REMARK    1  A    between atoms: C_1  and  C_2
REMARK    2  A    between atoms: C_2  and  C_3
REMARK    3  A    between atoms: C_2  and  C_4
REMARK    4  A    between atoms: C_4  and  N_5
REMARK    5  A    between atoms: C_6  and  C_8
REMARK    6  A    between atoms: C_11  and  O_12
REMARK    7  A    between atoms: O_12  and  C_13
REMARK    8  A    between atoms: C_13  and  C_14
REMARK    9  A    between atoms: C_14  and  C_17
REMARK                            x       y       z     vdW  Elec       q    Type
REMARK                         _______ _______ _______ _____ _____    ______ ____
ROOT
ATOM      1  C   UNL     1       6.721  -0.394  -2.734  0.00  0.00    +0.000 A 
ATOM      2  C   UNL     1       7.390  -1.105  -1.732  0.00  0.00    +0.000 A 
ATOM      3  C   UNL     1       8.787  -1.203  -1.751  0.00  0.00    +0.000 A 
ATOM      4  C   UNL     1       9.524  -0.595  -2.768  0.00  0.00    +0.000 A 
ATOM      5  C   UNL     1       8.854   0.106  -3.773  0.00  0.00    +0.000 A 
ATOM      6  C   UNL     1       7.460   0.208  -3.759  0.00  0.00    +0.000 A 
ENDROOT
BRANCH   1   8
ATOM      7  N   UNL     1       4.569  -0.375  -1.574  0.00  0.00    +0.000 N 
ATOM      8  C   UNL     1       5.236  -0.310  -2.779  0.00  0.00    +0.000 C 
ATOM      9  O   UNL     1       4.666  -0.173  -3.859  0.00  0.00    +0.000 OA
ATOM     10  H   UNL     1       5.087  -0.376  -0.708  0.00  0.00    +0.000 HD
BRANCH   7  11
ATOM     11  C   UNL     1       3.120  -0.323  -1.503  0.00  0.00    +0.000 C 
BRANCH  11  13
ATOM     12  C   UNL     1       2.917  -2.628  -0.471  0.00  0.00    +0.000 C 
ATOM     13  C   UNL     1       2.468  -1.712  -1.612  0.00  0.00    +0.000 C 
ATOM     14  C   UNL     1       0.942  -1.593  -1.600  0.00  0.00    +0.000 C 
ENDBRANCH  11  13
ENDBRANCH   7  11
ENDBRANCH   1   8
BRANCH   4  15
ATOM     15  O   UNL     1      10.886  -0.619  -2.889  0.00  0.00    +0.000 OA
BRANCH  15  16
ATOM     16  C   UNL     1      11.610  -1.346  -1.887  0.00  0.00    +0.000 C 
BRANCH  16  17
ATOM     17  C   UNL     1      13.124  -1.311  -2.154  0.00  0.00    +0.000 C 
ATOM     18  F   UNL     1      13.548  -0.013  -2.105  0.00  0.00    +0.000 F 
ATOM     19  F   UNL     1      13.735  -1.917  -1.088  0.00  0.00    +0.000 F 
BRANCH  17  20
ATOM     20  C   UNL     1      13.465  -1.986  -3.453  0.00  0.00    +0.000 A 
ATOM     21  C   UNL     1      13.734  -3.357  -3.535  0.00  0.00    +0.000 A 
ATOM     22  C   UNL     1      13.949  -3.940  -4.780  0.00  0.00    +0.000 A 
ATOM     23  C   UNL     1      13.889  -3.131  -5.902  0.00  0.00    +0.000 A 
ATOM     24  N   UNL     1      13.655  -1.803  -5.859  0.00  0.00    +0.000 NA
ATOM     25  C   UNL     1      13.453  -1.260  -4.637  0.00  0.00    +0.000 A 
ENDBRANCH  17  20
ENDBRANCH  16  17
ENDBRANCH  15  16
ENDBRANCH   4  15
TORSDOF 7
