REMARK  Name = 
REMARK  6 active torsions:
REMARK  status: ('A' for Active; 'I' for Inactive)
REMARK    1  A    between atoms: C_1  and  S_2
REMARK    2  A    between atoms: S_2  and  C_5
REMARK    3  A    between atoms: N_11  and  C_12
REMARK    4  A    between atoms: C_12  and  C_13
REMARK    5  A    between atoms: C_16  and  C_17
REMARK    6  A    between atoms: C_17  and  N_18
REMARK                            x       y       z     vdW  Elec       q    Type
REMARK                         _______ _______ _______ _____ _____    ______ ____
ROOT
ATOM      1  C   UNL     1       3.323   1.261   1.123  0.00  0.00    +0.000 A 
ATOM      2  C   UNL     1       3.906   0.991   2.347  0.00  0.00    +0.000 A 
ATOM      3  N   UNL     1       4.192   1.921   3.280  0.00  0.00    +0.000 NA
ATOM      4  C   UNL     1       3.859   3.193   2.946  0.00  0.00    +0.000 A 
ATOM      5  C   UNL     1       4.018   4.372   3.709  0.00  0.00    +0.000 A 
ATOM      6  C   UNL     1       3.517   5.415   2.966  0.00  0.00    +0.000 A 
ATOM      7  N   UNL     1       3.037   4.907   1.779  0.00  0.00    +0.000 N 
ATOM      8  C   UNL     1       3.277   3.546   1.726  0.00  0.00    +0.000 A 
ATOM      9  C   UNL     1       3.025   2.574   0.752  0.00  0.00    +0.000 A 
ENDROOT
BRANCH   1  11
ATOM     10  C   UNL     1       1.240  -0.429   0.461  0.00  0.00    +0.000 C 
ATOM     11  S   UNL     1       2.927  -0.073   0.044  0.00  0.00    +0.000 S 
ATOM     12  O   UNL     1       3.739  -1.212   0.426  0.00  0.00    +0.000 OA
ATOM     13  O   UNL     1       2.959   0.442  -1.313  0.00  0.00    +0.000 OA
ENDBRANCH   1  11
BRANCH   7  14
ATOM     14  C   UNL     1       2.359   5.710   0.763  0.00  0.00    +0.000 C 
BRANCH  14  15
ATOM     15  C   UNL     1       0.864   5.720   0.982  0.00  0.00    +0.000 A 
ATOM     16  C   UNL     1       0.268   6.661   1.834  0.00  0.00    +0.000 A 
ATOM     17  C   UNL     1      -1.103   6.605   2.115  0.00  0.00    +0.000 A 
ATOM     18  C   UNL     1      -1.906   5.604   1.555  0.00  0.00    +0.000 A 
ATOM     19  C   UNL     1      -1.317   4.692   0.669  0.00  0.00    +0.000 A 
ATOM     20  C   UNL     1       0.049   4.751   0.382  0.00  0.00    +0.000 A 
BRANCH  18  21
ATOM     21  C   UNL     1      -3.352   5.451   1.955  0.00  0.00    +0.000 C 
BRANCH  21  22
ATOM     22  N   UNL     1      -4.254   5.513   0.812  0.00  0.00    +0.000 NA
ATOM     23  H   UNL     1      -4.240   6.460   0.437  0.00  0.00    +0.000 HD
ATOM     24  H   UNL     1      -5.206   5.347   1.133  0.00  0.00    +0.000 HD
ENDBRANCH  21  22
ENDBRANCH  18  21
ENDBRANCH  14  15
ENDBRANCH   7  14
TORSDOF 5
