REMARK  Name = 
REMARK  7 active torsions:
REMARK  status: ('A' for Active; 'I' for Inactive)
REMARK    1  A    between atoms: C_1  and  C_2
REMARK    2  A    between atoms: C_2  and  C_3
REMARK    3  A    between atoms: C_7  and  C_8
REMARK    4  A    between atoms: C_8  and  C_9
REMARK    5  A    between atoms: C_9  and  N_10
REMARK    6  A    between atoms: N_10  and  C_11
REMARK    7  A    between atoms: C_14  and  C_15
REMARK                            x       y       z     vdW  Elec       q    Type
REMARK                         _______ _______ _______ _____ _____    ______ ____
ROOT
ATOM      1  C   UNL     1       3.303   3.563  -4.188  0.00  0.00    +0.000 C 
ENDROOT
BRANCH   1   2
ATOM      2  N   UNL     1       3.810   4.846  -4.700  0.00  0.00    +0.000 N 
ATOM      3  H   UNL     1       4.477   4.730  -5.458  0.00  0.00    +0.000 HD
BRANCH   2   4
ATOM      4  C   UNL     1       2.839   5.819  -5.013  0.00  0.00    +0.000 A 
ATOM      5  C   UNL     1       1.629   5.926  -4.316  0.00  0.00    +0.000 A 
ATOM      6  C   UNL     1       0.699   6.928  -4.608  0.00  0.00    +0.000 A 
ATOM      7  C   UNL     1       0.985   7.885  -5.580  0.00  0.00    +0.000 A 
ATOM      8  C   UNL     1       2.201   7.828  -6.262  0.00  0.00    +0.000 A 
ATOM      9  C   UNL     1       3.128   6.808  -5.965  0.00  0.00    +0.000 A 
BRANCH   7  10
ATOM     10  C   UNL     1      -0.049   8.922  -5.841  0.00  0.00    +0.000 C 
ATOM     11  N   UNL     1       0.371  10.130  -6.324  0.00  0.00    +0.000 N 
ATOM     12  O   UNL     1      -1.231   8.723  -5.601  0.00  0.00    +0.000 OA
ATOM     13  H   UNL     1       1.340  10.403  -6.382  0.00  0.00    +0.000 HD
ATOM     14  H   UNL     1      -0.336  10.852  -6.396  0.00  0.00    +0.000 HD
ENDBRANCH   7  10
ENDBRANCH   2   4
ENDBRANCH   1   2
BRANCH   1  15
ATOM     15  C   UNL     1       4.439   2.577  -3.889  0.00  0.00    +0.000 C 
BRANCH  15  20
ATOM     16  C   UNL     1       3.003   0.014  -1.429  0.00  0.00    +0.000 A 
ATOM     17  C   UNL     1       2.690  -1.032  -2.320  0.00  0.00    +0.000 A 
ATOM     18  C   UNL     1       2.973  -0.938  -3.683  0.00  0.00    +0.000 A 
ATOM     19  C   UNL     1       3.561   0.217  -4.196  0.00  0.00    +0.000 A 
ATOM     20  C   UNL     1       3.893   1.273  -3.342  0.00  0.00    +0.000 A 
ATOM     21  C   UNL     1       3.633   1.149  -1.964  0.00  0.00    +0.000 A 
BRANCH  16  23
ATOM     22  C   UNL     1       1.024  -0.161   0.075  0.00  0.00    +0.000 C 
ATOM     23  C   UNL     1       2.562  -0.087   0.041  0.00  0.00    +0.000 C 
ATOM     24  C   UNL     1       3.217  -1.284   0.740  0.00  0.00    +0.000 C 
ATOM     25  C   UNL     1       4.440  -0.708   1.440  0.00  0.00    +0.000 C 
ATOM     26  O   UNL     1       4.356   0.720   1.375  0.00  0.00    +0.000 OA
ATOM     27  C   UNL     1       3.022   1.046   0.973  0.00  0.00    +0.000 C 
ENDBRANCH  16  23
ENDBRANCH  15  20
ENDBRANCH   1  15
TORSDOF 6
