REMARK  Name = 
REMARK  3 active torsions:
REMARK  status: ('A' for Active; 'I' for Inactive)
REMARK    1  A    between atoms: C_2  and  C_4
REMARK    2  A    between atoms: N_8  and  C_9
REMARK    3  A    between atoms: C_9  and  C_10
REMARK                            x       y       z     vdW  Elec       q    Type
REMARK                         _______ _______ _______ _____ _____    ______ ____
ROOT
ATOM      1  C   UNL     1       3.275  -1.042  -0.847  0.00  0.00    +0.000 A 
ATOM      2  C   UNL     1       2.639  -1.551  -1.974  0.00  0.00    +0.000 A 
ATOM      3  C   UNL     1       3.291  -2.515  -2.742  0.00  0.00    +0.000 A 
ATOM      4  C   UNL     1       4.569  -2.935  -2.386  0.00  0.00    +0.000 A 
ATOM      5  N   UNL     1       5.239  -3.944  -3.031  0.00  0.00    +0.000 N 
ATOM      6  N   UNL     1       5.202  -2.430  -1.309  0.00  0.00    +0.000 NA
ATOM      7  C   UNL     1       4.555  -1.493  -0.569  0.00  0.00    +0.000 A 
ATOM      8  H   UNL     1       6.170  -4.050  -2.641  0.00  0.00    +0.000 HD
ENDROOT
BRANCH   1  10
ATOM      9  N   UNL     1       1.279  -0.062   0.120  0.00  0.00    +0.000 N 
ATOM     10  C   UNL     1       2.646  -0.059   0.054  0.00  0.00    +0.000 C 
ATOM     11  O   UNL     1       3.314   0.699   0.745  0.00  0.00    +0.000 OA
ATOM     12  H   UNL     1       0.863   0.535   0.825  0.00  0.00    +0.000 HD
ATOM     13  H   UNL     1       0.722  -0.831  -0.224  0.00  0.00    +0.000 HD
ENDBRANCH   1  10
BRANCH   5  14
ATOM     14  C   UNL     1       5.113  -4.195  -4.451  0.00  0.00    +0.000 C 
BRANCH  14  15
ATOM     15  C   UNL     1       4.653  -5.617  -4.704  0.00  0.00    +0.000 A 
ATOM     16  C   UNL     1       3.808  -6.293  -3.805  0.00  0.00    +0.000 A 
ATOM     17  C   UNL     1       3.392  -7.601  -4.059  0.00  0.00    +0.000 A 
ATOM     18  C   UNL     1       3.804  -8.232  -5.223  0.00  0.00    +0.000 A 
ATOM     19  F   UNL     1       3.413  -9.490  -5.464  0.00  0.00    +0.000 F 
ATOM     20  C   UNL     1       4.613  -7.578  -6.144  0.00  0.00    +0.000 A 
ATOM     21  C   UNL     1       5.033  -6.270  -5.889  0.00  0.00    +0.000 A 
ENDBRANCH  14  15
ENDBRANCH   5  14
TORSDOF 3
