REMARK  Name = 
REMARK  9 active torsions:
REMARK  status: ('A' for Active; 'I' for Inactive)
REMARK    1  A    between atoms: C_1  and  C_2
REMARK    2  A    between atoms: C_2  and  C_3
REMARK    3  A    between atoms: C_2  and  C_4
REMARK    4  A    between atoms: C_2  and  C_5
REMARK    5  A    between atoms: C_7  and  C_8
REMARK    6  A    between atoms: C_8  and  N_9
REMARK    7  A    between atoms: C_14  and  C_15
REMARK    8  A    between atoms: C_23  and  C_24
REMARK    9  A    between atoms: C_24  and  O_26
REMARK                            x       y       z     vdW  Elec       q    Type
REMARK                         _______ _______ _______ _____ _____    ______ ____
ROOT
ATOM      1  C   UNL     1       4.165   2.174  -4.265  0.00  0.00    +0.000 C 
ENDROOT
BRANCH   1   2
ATOM      2  N   UNL     1       3.463   2.282  -5.536  0.00  0.00    +0.000 N 
ATOM      3  C   UNL     1       4.024   1.839  -6.712  0.00  0.00    +0.000 A 
ATOM      4  C   UNL     1       3.073   1.920  -7.696  0.00  0.00    +0.000 A 
ATOM      5  C   UNL     1       1.903   2.473  -7.115  0.00  0.00    +0.000 A 
ATOM      6  C   UNL     1       0.622   2.749  -7.642  0.00  0.00    +0.000 A 
ATOM      7  C   UNL     1      -0.364   3.305  -6.824  0.00  0.00    +0.000 A 
ATOM      8  C   UNL     1      -0.061   3.629  -5.501  0.00  0.00    +0.000 A 
ATOM      9  C   UNL     1       1.204   3.376  -4.958  0.00  0.00    +0.000 A 
ATOM     10 CL   UNL     1       1.467   3.869  -3.332  0.00  0.00    +0.000 Cl
ATOM     11  C   UNL     1       2.179   2.757  -5.766  0.00  0.00    +0.000 A 
BRANCH   7  12
ATOM     12  C   UNL     1      -1.756   3.576  -7.294  0.00  0.00    +0.000 C 
ATOM     13  N   UNL     1      -2.086   3.271  -8.583  0.00  0.00    +0.000 N 
ATOM     14  O   UNL     1      -2.598   4.057  -6.547  0.00  0.00    +0.000 OA
ATOM     15  H   UNL     1      -1.469   2.873  -9.271  0.00  0.00    +0.000 HD
ATOM     16  H   UNL     1      -3.042   3.457  -8.861  0.00  0.00    +0.000 HD
ENDBRANCH   7  12
ENDBRANCH   1   2
BRANCH   1  19
ATOM     17  C   UNL     1       3.025  -0.124  -1.500  0.00  0.00    +0.000 A 
ATOM     18  C   UNL     1       3.239   1.035  -2.233  0.00  0.00    +0.000 A 
ATOM     19  C   UNL     1       3.767   0.928  -3.507  0.00  0.00    +0.000 A 
ATOM     20  N   UNL     1       4.027  -0.271  -4.064  0.00  0.00    +0.000 NA
ATOM     21  C   UNL     1       3.720  -1.350  -3.323  0.00  0.00    +0.000 A 
ATOM     22  N   UNL     1       3.240  -1.342  -2.051  0.00  0.00    +0.000 NA
BRANCH  17  24
ATOM     23  C   UNL     1       0.999  -0.153  -0.038  0.00  0.00    +0.000 C 
ATOM     24  C   UNL     1       2.534  -0.055  -0.046  0.00  0.00    +0.000 C 
ATOM     25  C   UNL     1       2.954   1.255   0.661  0.00  0.00    +0.000 C 
ATOM     26  C   UNL     1       3.126  -1.215   0.782  0.00  0.00    +0.000 C 
ENDBRANCH  17  24
BRANCH  21  27
ATOM     27  C   UNL     1       3.927  -2.712  -3.938  0.00  0.00    +0.000 C 
ATOM     28  O   UNL     1       4.331  -2.939  -5.064  0.00  0.00    +0.000 OA
BRANCH  27  29
ATOM     29  O   UNL     1       3.596  -3.695  -3.054  0.00  0.00    +0.000 OA
ATOM     30  H   UNL     1       3.288  -3.285  -2.211  0.00  0.00    +0.000 HD
ENDBRANCH  27  29
ENDBRANCH  21  27
ENDBRANCH   1  19
TORSDOF 6
