REMARK  Name = 
REMARK  6 active torsions:
REMARK  status: ('A' for Active; 'I' for Inactive)
REMARK    1  A    between atoms: C_1  and  C_2
REMARK    2  A    between atoms: C_2  and  C_3
REMARK    3  A    between atoms: C_2  and  C_14
REMARK    4  A    between atoms: C_3  and  O_4
REMARK    5  A    between atoms: O_4  and  C_5
REMARK    6  A    between atoms: C_8  and  C_9
REMARK                            x       y       z     vdW  Elec       q    Type
REMARK                         _______ _______ _______ _____ _____    ______ ____
ROOT
ATOM      1  C   UNL     1       3.138   1.752   3.300  0.00  0.00    +0.000 A 
ATOM      2  C   UNL     1       4.130   1.091   4.019  0.00  0.00    +0.000 A 
ATOM      3  C   UNL     1       4.609   1.649   5.205  0.00  0.00    +0.000 A 
ATOM      4  C   UNL     1       4.071   2.857   5.633  0.00  0.00    +0.000 A 
ATOM      5  N   UNL     1       3.094   3.531   4.966  0.00  0.00    +0.000 NA
ATOM      6  C   UNL     1       2.657   2.953   3.819  0.00  0.00    +0.000 A 
ENDROOT
BRANCH   4   7
ATOM      7  C   UNL     1       4.587   3.484   6.891  0.00  0.00    +0.000 C 
ATOM      8  N   UNL     1       4.011   4.676   7.235  0.00  0.00    +0.000 N 
ATOM      9  O   UNL     1       5.471   2.975   7.567  0.00  0.00    +0.000 OA
ATOM     10  H   UNL     1       3.290   5.073   6.643  0.00  0.00    +0.000 HD
ATOM     11  H   UNL     1       4.327   5.161   8.061  0.00  0.00    +0.000 HD
ENDBRANCH   4   7
BRANCH   1  12
ATOM     12  O   UNL     1       2.586   1.341   2.124  0.00  0.00    +0.000 OA
BRANCH  12  13
ATOM     13  C   UNL     1       3.077   0.119   1.564  0.00  0.00    +0.000 C 
BRANCH  13  15
ATOM     14  C   UNL     1       2.589   0.800  -0.869  0.00  0.00    +0.000 C 
ATOM     15  C   UNL     1       2.332  -0.105   0.289  0.00  0.00    +0.000 C 
BRANCH  15  16
ATOM     16  C   UNL     1       1.086  -0.863   0.362  0.00  0.00    +0.000 A 
ATOM     17  C   UNL     1      -0.125  -0.349  -0.093  0.00  0.00    +0.000 A 
ATOM     18  N   UNL     1      -1.290  -1.042  -0.044  0.00  0.00    +0.000 NA
ATOM     19  C   UNL     1      -1.191  -2.283   0.476  0.00  0.00    +0.000 A 
ATOM     20  C   UNL     1       0.010  -2.805   0.927  0.00  0.00    +0.000 A 
ATOM     21  N   UNL     1       1.172  -2.108   0.886  0.00  0.00    +0.000 NA
ENDBRANCH  15  16
ENDBRANCH  13  15
ENDBRANCH  12  13
ENDBRANCH   1  12
TORSDOF 5
