REMARK  Name = 
REMARK  8 active torsions:
REMARK  status: ('A' for Active; 'I' for Inactive)
REMARK    1  A    between atoms: N_1  and  C_2
REMARK    2  A    between atoms: C_2  and  C_3
REMARK    3  A    between atoms: C_2  and  C_17
REMARK    4  A    between atoms: C_3  and  N_4
REMARK    5  A    between atoms: C_5  and  C_7
REMARK    6  A    between atoms: C_20  and  C_21
REMARK    7  A    between atoms: C_21  and  N_22
REMARK    8  A    between atoms: C_23  and  C_25
REMARK                            x       y       z     vdW  Elec       q    Type
REMARK                         _______ _______ _______ _____ _____    ______ ____
ROOT
ATOM      1  C   UNL     1       2.428   0.094   0.028  0.00  0.00    +0.000 C 
ENDROOT
BRANCH   1   2
ATOM      2  C   UNL     1       2.840  -0.940   1.079  0.00  0.00    +0.000 A 
ATOM      3  C   UNL     1       3.213  -0.548   2.382  0.00  0.00    +0.000 A 
ATOM      4  C   UNL     1       3.486  -1.482   3.385  0.00  0.00    +0.000 A 
ATOM      5  C   UNL     1       3.389  -2.852   3.120  0.00  0.00    +0.000 A 
ATOM      6  C   UNL     1       3.020  -3.254   1.834  0.00  0.00    +0.000 A 
ATOM      7  C   UNL     1       2.754  -2.317   0.830  0.00  0.00    +0.000 A 
BRANCH   5   8
ATOM      8  C   UNL     1       3.616  -3.876   4.194  0.00  0.00    +0.000 C 
BRANCH   8   9
ATOM      9  N   UNL     1       2.383  -4.227   4.861  0.00  0.00    +0.000 N 
ATOM     10  C   UNL     1       2.363  -5.121   5.904  0.00  0.00    +0.000 C 
ATOM     11  O   UNL     1       3.375  -5.698   6.294  0.00  0.00    +0.000 OA
ATOM     12  H   UNL     1       1.511  -3.881   4.473  0.00  0.00    +0.000 HD
BRANCH  10  13
ATOM     13  C   UNL     1       0.998  -5.434   6.512  0.00  0.00    +0.000 C 
ATOM     14  C   UNL     1       0.296  -6.558   5.785  0.00  0.00    +0.000 C 
ATOM     15  C   UNL     1      -0.464  -5.843   4.688  0.00  0.00    +0.000 C 
ATOM     16  O   UNL     1      -0.645  -4.481   5.110  0.00  0.00    +0.000 OA
ATOM     17  C   UNL     1      -0.006  -4.307   6.387  0.00  0.00    +0.000 C 
ENDBRANCH  10  13
ENDBRANCH   8   9
ENDBRANCH   5   8
ENDBRANCH   1   2
BRANCH   1  18
ATOM     18  N   UNL     1       2.676  -0.339  -1.364  0.00  0.00    +0.000 NA
ATOM     19  H   UNL     1       2.209  -1.225  -1.536  0.00  0.00    +0.000 HD
ATOM     20  H   UNL     1       3.673  -0.490  -1.498  0.00  0.00    +0.000 HD
ENDBRANCH   1  18
BRANCH   1  21
ATOM     21  C   UNL     1       3.113   1.468   0.244  0.00  0.00    +0.000 C 
BRANCH  21  22
ATOM     22  N   UNL     1       2.719   2.469  -0.719  0.00  0.00    +0.000 N 
ATOM     23  C   UNL     1       2.755   3.802  -0.411  0.00  0.00    +0.000 C 
ATOM     24  O   UNL     1       3.083   4.214   0.700  0.00  0.00    +0.000 OA
ATOM     25  H   UNL     1       2.413   2.132  -1.627  0.00  0.00    +0.000 HD
BRANCH  23  26
ATOM     26  C   UNL     1       2.446   4.722  -1.499  0.00  0.00    +0.000 A 
ATOM     27  C   UNL     1       2.977   6.004  -1.490  0.00  0.00    +0.000 A 
ATOM     28  S   UNL     1       2.553   6.920  -2.862  0.00  0.00    +0.000 S 
ATOM     29  C   UNL     1       1.598   5.656  -3.482  0.00  0.00    +0.000 A 
ATOM     30  N   UNL     1       0.917   5.800  -4.649  0.00  0.00    +0.000 NA
ATOM     31  C   UNL     1       0.202   4.779  -4.975  0.00  0.00    +0.000 A 
ATOM     32  N   UNL     1       0.108   3.620  -4.251  0.00  0.00    +0.000 N 
ATOM     33  C   UNL     1       0.804   3.411  -3.082  0.00  0.00    +0.000 A 
ATOM     34  O   UNL     1       0.730   2.344  -2.494  0.00  0.00    +0.000 OA
ATOM     35  C   UNL     1       1.616   4.540  -2.662  0.00  0.00    +0.000 A 
ATOM     36  H   UNL     1      -0.464   2.853  -4.565  0.00  0.00    +0.000 HD
ENDBRANCH  23  26
ENDBRANCH  21  22
ENDBRANCH   1  21
TORSDOF 8
