REMARK  Name = 
REMARK  7 active torsions:
REMARK  status: ('A' for Active; 'I' for Inactive)
REMARK    1  A    between atoms: C_1  and  N_2
REMARK    2  A    between atoms: N_2  and  C_3
REMARK    3  A    between atoms: C_3  and  C_4
REMARK    4  A    between atoms: C_7  and  C_8
REMARK    5  A    between atoms: C_8  and  O_9
REMARK    6  A    between atoms: O_9  and  C_10
REMARK    7  A    between atoms: C_18  and  C_20
REMARK                            x       y       z     vdW  Elec       q    Type
REMARK                         _______ _______ _______ _____ _____    ______ ____
ROOT
ATOM      1  C   UNL     1       1.113  -0.328  -0.179  0.00  0.00    +0.000 C 
ATOM      2  N   UNL     1       2.479   0.118   0.074  0.00  0.00    +0.000 N 
ATOM      3  C   UNL     1       3.005   1.046  -0.843  0.00  0.00    +0.000 C 
ATOM      4  O   UNL     1       2.343   1.435  -1.804  0.00  0.00    +0.000 OA
ENDROOT
BRANCH   3   5
ATOM      5  C   UNL     1       4.383   1.528  -0.673  0.00  0.00    +0.000 A 
ATOM      6  C   UNL     1       5.467   0.717  -0.379  0.00  0.00    +0.000 A 
ATOM      7  S   UNL     1       6.951   1.558  -0.317  0.00  0.00    +0.000 S 
ATOM      8  C   UNL     1       6.212   3.004  -0.822  0.00  0.00    +0.000 A 
ATOM      9  N   UNL     1       6.950   4.115  -1.080  0.00  0.00    +0.000 NA
ATOM     10  C   UNL     1       6.263   5.114  -1.523  0.00  0.00    +0.000 A 
ATOM     11  N   UNL     1       4.901   5.115  -1.693  0.00  0.00    +0.000 N 
ATOM     12  C   UNL     1       4.098   4.061  -1.312  0.00  0.00    +0.000 A 
ATOM     13  O   UNL     1       2.883   4.187  -1.241  0.00  0.00    +0.000 OA
ATOM     14  C   UNL     1       4.841   2.871  -0.934  0.00  0.00    +0.000 A 
ATOM     15  H   UNL     1       4.418   5.954  -1.974  0.00  0.00    +0.000 HD
ENDBRANCH   3   5
BRANCH   2  16
ATOM     16  C   UNL     1       3.132  -0.204   1.347  0.00  0.00    +0.000 C 
BRANCH  16  17
ATOM     17  C   UNL     1       2.285  -0.842   2.415  0.00  0.00    +0.000 A 
ATOM     18  C   UNL     1       2.244  -2.239   2.551  0.00  0.00    +0.000 A 
ATOM     19  C   UNL     1       1.443  -2.828   3.529  0.00  0.00    +0.000 A 
ATOM     20  C   UNL     1       0.668  -2.030   4.378  0.00  0.00    +0.000 A 
ATOM     21  C   UNL     1       0.736  -0.635   4.262  0.00  0.00    +0.000 A 
ATOM     22  C   UNL     1       1.529  -0.046   3.282  0.00  0.00    +0.000 A 
BRANCH  20  23
ATOM     23  C   UNL     1      -0.249  -2.661   5.390  0.00  0.00    +0.000 C 
BRANCH  23  24
ATOM     24  O   UNL     1       0.446  -2.862   6.618  0.00  0.00    +0.000 OA
BRANCH  24  25
ATOM     25  C   UNL     1      -0.290  -3.427   7.626  0.00  0.00    +0.000 A 
ATOM     26  C   UNL     1      -1.639  -3.762   7.554  0.00  0.00    +0.000 A 
ATOM     27  C   UNL     1      -2.237  -4.331   8.665  0.00  0.00    +0.000 A 
ATOM     28  N   UNL     1      -1.584  -4.581   9.821  0.00  0.00    +0.000 NA
ATOM     29  C   UNL     1      -0.277  -4.244   9.865  0.00  0.00    +0.000 A 
ATOM     30  C   UNL     1       0.406  -3.670   8.805  0.00  0.00    +0.000 A 
ENDBRANCH  24  25
ENDBRANCH  23  24
ENDBRANCH  20  23
ENDBRANCH  16  17
ENDBRANCH   2  16
TORSDOF 6
