REMARK  Name = 
REMARK  6 active torsions:
REMARK  status: ('A' for Active; 'I' for Inactive)
REMARK    1  A    between atoms: C_1  and  C_2
REMARK    2  A    between atoms: C_5  and  C_6
REMARK    3  A    between atoms: C_6  and  O_7
REMARK    4  A    between atoms: O_7  and  C_8
REMARK    5  A    between atoms: C_11  and  C_12
REMARK    6  A    between atoms: C_12  and  N_13
REMARK                            x       y       z     vdW  Elec       q    Type
REMARK                         _______ _______ _______ _____ _____    ______ ____
ROOT
ATOM      1  C   UNL     1      -5.017   1.737  -0.066  0.00  0.00    +0.000 A 
ATOM      2  C   UNL     1      -5.977   0.783   0.269  0.00  0.00    +0.000 A 
ATOM      3  C   UNL     1      -7.317   1.158   0.425  0.00  0.00    +0.000 A 
ATOM      4  C   UNL     1      -7.715   2.491   0.248  0.00  0.00    +0.000 A 
ATOM      5  C   UNL     1      -6.741   3.442  -0.079  0.00  0.00    +0.000 A 
ATOM      6  C   UNL     1      -5.406   3.066  -0.234  0.00  0.00    +0.000 A 
ENDROOT
BRANCH   1   7
ATOM      7  O   UNL     1      -3.685   1.506  -0.264  0.00  0.00    +0.000 OA
BRANCH   7   8
ATOM      8  C   UNL     1      -3.213   0.171  -0.062  0.00  0.00    +0.000 C 
BRANCH   8  13
ATOM      9  C   UNL     1       2.478  -0.329  -0.880  0.00  0.00    +0.000 C 
ATOM     10  C   UNL     1       1.012  -0.146  -0.653  0.00  0.00    +0.000 A 
ATOM     11  C   UNL     1       0.483   1.064  -0.211  0.00  0.00    +0.000 A 
ATOM     12  C   UNL     1      -0.891   1.186  -0.017  0.00  0.00    +0.000 A 
ATOM     13  C   UNL     1      -1.716   0.095  -0.284  0.00  0.00    +0.000 A 
ATOM     14  N   UNL     1      -1.217  -1.099  -0.695  0.00  0.00    +0.000 NA
ATOM     15  C   UNL     1       0.121  -1.189  -0.873  0.00  0.00    +0.000 A 
ENDBRANCH   8  13
ENDBRANCH   7   8
ENDBRANCH   1   7
BRANCH   4  16
ATOM     16  C   UNL     1      -9.164   2.890   0.365  0.00  0.00    +0.000 C 
BRANCH  16  17
ATOM     17  N   UNL     1      -9.367   3.903   1.394  0.00  0.00    +0.000 NA
ATOM     18  H   UNL     1      -9.075   3.521   2.292  0.00  0.00    +0.000 HD
ATOM     19  H   UNL     1     -10.362   4.102   1.473  0.00  0.00    +0.000 HD
ENDBRANCH  16  17
ENDBRANCH   4  16
TORSDOF 5
