REMARK  Name = 
REMARK  5 active torsions:
REMARK  status: ('A' for Active; 'I' for Inactive)
REMARK    1  A    between atoms: C_1  and  C_2
REMARK    2  A    between atoms: C_2  and  C_3
REMARK    3  A    between atoms: C_2  and  C_14
REMARK    4  A    between atoms: C_3  and  N_4
REMARK    5  A    between atoms: C_8  and  C_9
REMARK                            x       y       z     vdW  Elec       q    Type
REMARK                         _______ _______ _______ _____ _____    ______ ____
ROOT
ATOM      1  N   UNL     1       2.732   2.175   1.129  0.00  0.00    +0.000 N 
ATOM      2  C   UNL     1       3.271   3.024   2.106  0.00  0.00    +0.000 A 
ATOM      3  C   UNL     1       3.024   4.391   2.018  0.00  0.00    +0.000 A 
ATOM      4  C   UNL     1       3.551   5.251   2.986  0.00  0.00    +0.000 A 
ATOM      5  C   UNL     1       4.313   4.729   4.030  0.00  0.00    +0.000 A 
ATOM      6  C   UNL     1       4.527   3.362   4.029  0.00  0.00    +0.000 A 
ATOM      7  N   UNL     1       4.032   2.513   3.097  0.00  0.00    +0.000 NA
ATOM      8  H   UNL     1       1.726   2.318   1.091  0.00  0.00    +0.000 HD
ENDROOT
BRANCH   5   9
ATOM      9  C   UNL     1       4.853   5.636   5.072  0.00  0.00    +0.000 C 
ATOM     10  N   UNL     1       5.562   5.107   6.113  0.00  0.00    +0.000 N 
ATOM     11  O   UNL     1       4.661   6.845   5.017  0.00  0.00    +0.000 OA
ATOM     12  H   UNL     1       5.756   4.131   6.271  0.00  0.00    +0.000 HD
ATOM     13  H   UNL     1       5.897   5.764   6.810  0.00  0.00    +0.000 HD
ENDBRANCH   5   9
BRANCH   1  14
ATOM     14  C   UNL     1       3.053   0.767   1.344  0.00  0.00    +0.000 C 
BRANCH  14  16
ATOM     15  C   UNL     1       2.772   0.101  -1.123  0.00  0.00    +0.000 C 
ATOM     16  C   UNL     1       2.326  -0.027   0.298  0.00  0.00    +0.000 C 
BRANCH  16  17
ATOM     17  C   UNL     1       1.001  -0.573   0.627  0.00  0.00    +0.000 A 
ATOM     18  C   UNL     1       0.815  -1.352   1.778  0.00  0.00    +0.000 A 
ATOM     19  C   UNL     1      -0.464  -1.768   2.156  0.00  0.00    +0.000 A 
ATOM     20  C   UNL     1      -1.568  -1.412   1.386  0.00  0.00    +0.000 A 
ATOM     21  C   UNL     1      -1.390  -0.672   0.219  0.00  0.00    +0.000 A 
ATOM     22  C   UNL     1      -0.110  -0.266  -0.165  0.00  0.00    +0.000 A 
ENDBRANCH  16  17
ENDBRANCH  14  16
ENDBRANCH   1  14
TORSDOF 4
