REMARK  Name = 
REMARK  7 active torsions:
REMARK  status: ('A' for Active; 'I' for Inactive)
REMARK    1  A    between atoms: C_1  and  C_2
REMARK    2  A    between atoms: C_3  and  C_4
REMARK    3  A    between atoms: C_4  and  C_5
REMARK    4  A    between atoms: C_5  and  C_6
REMARK    5  A    between atoms: C_10  and  C_11
REMARK    6  A    between atoms: C_18  and  O_19
REMARK    7  A    between atoms: O_19  and  C_20
REMARK                            x       y       z     vdW  Elec       q    Type
REMARK                         _______ _______ _______ _____ _____    ______ ____
ROOT
ATOM      1  C   UNL     1       0.874   2.695  -0.058  0.00  0.00    +0.000 C 
ENDROOT
BRANCH   1   4
ATOM      2  C   UNL     1       2.457   0.056   0.233  0.00  0.00    +0.000 C 
ATOM      3  C   UNL     1       0.963   0.096   0.040  0.00  0.00    +0.000 A 
ATOM      4  C   UNL     1       0.244   1.313  -0.067  0.00  0.00    +0.000 A 
ATOM      5  C   UNL     1      -1.162   1.260  -0.117  0.00  0.00    +0.000 A 
ATOM      6  C   UNL     1      -1.846   0.050  -0.089  0.00  0.00    +0.000 A 
ATOM      7  C   UNL     1      -1.138  -1.145  -0.052  0.00  0.00    +0.000 A 
ATOM      8  C   UNL     1       0.259  -1.131  -0.025  0.00  0.00    +0.000 A 
BRANCH   8   9
ATOM      9  O   UNL     1       1.011  -2.289  -0.051  0.00  0.00    +0.000 OA
BRANCH   9  10
ATOM     10  C   UNL     1       0.368  -3.528  -0.444  0.00  0.00    +0.000 C 
ATOM     11  C   UNL     1       1.304  -4.674  -0.855  0.00  0.00    +0.000 C 
ATOM     12  O   UNL     1       0.859  -4.622  -2.231  0.00  0.00    +0.000 OA
ATOM     13  C   UNL     1      -0.157  -3.655  -1.884  0.00  0.00    +0.000 C 
ENDBRANCH   9  10
ENDBRANCH   8   9
ENDBRANCH   1   4
BRANCH   1  14
ATOM     14  C   UNL     1       1.874   3.040  -1.169  0.00  0.00    +0.000 C 
BRANCH  14  15
ATOM     15  C   UNL     1       1.347   2.963  -2.579  0.00  0.00    +0.000 A 
ATOM     16  C   UNL     1       1.539   1.822  -3.337  0.00  0.00    +0.000 A 
ATOM     17  C   UNL     1       1.134   1.875  -4.653  0.00  0.00    +0.000 A 
ATOM     18  N   UNL     1       0.567   2.955  -5.215  0.00  0.00    +0.000 NA
ATOM     19  C   UNL     1       0.407   4.016  -4.387  0.00  0.00    +0.000 A 
ATOM     20  N   UNL     1       0.770   4.072  -3.088  0.00  0.00    +0.000 NA
BRANCH  19  21
ATOM     21  C   UNL     1      -0.211   5.253  -5.002  0.00  0.00    +0.000 C 
ATOM     22  N   UNL     1      -0.565   5.149  -6.329  0.00  0.00    +0.000 N 
ATOM     23  O   UNL     1      -0.398   6.300  -4.393  0.00  0.00    +0.000 OA
ATOM     24  H   UNL     1      -0.401   4.285  -6.832  0.00  0.00    +0.000 HD
ATOM     25  H   UNL     1      -0.974   5.948  -6.793  0.00  0.00    +0.000 HD
ENDBRANCH  19  21
ENDBRANCH  14  15
ENDBRANCH   1  14
TORSDOF 6
