REMARK  Name = 
REMARK  7 active torsions:
REMARK  status: ('A' for Active; 'I' for Inactive)
REMARK    1  A    between atoms: C_1  and  C_2
REMARK    2  A    between atoms: C_2  and  C_3
REMARK    3  A    between atoms: C_2  and  C_4
REMARK    4  A    between atoms: C_2  and  C_5
REMARK    5  A    between atoms: N_7  and  C_8
REMARK    6  A    between atoms: C_8  and  C_9
REMARK    7  A    between atoms: C_18  and  C_19
REMARK                            x       y       z     vdW  Elec       q    Type
REMARK                         _______ _______ _______ _____ _____    ______ ____
ROOT
ATOM      1  C   UNL     1       2.902   1.207   0.653  0.00  0.00    +0.000 A 
ATOM      2  C   UNL     1       3.760   1.401   1.721  0.00  0.00    +0.000 A 
ATOM      3  N   UNL     1       3.883   2.745   1.969  0.00  0.00    +0.000 N 
ATOM      4  C   UNL     1       3.133   3.461   1.055  0.00  0.00    +0.000 A 
ATOM      5  C   UNL     1       2.945   4.845   0.883  0.00  0.00    +0.000 A 
ATOM      6  C   UNL     1       2.072   5.282  -0.123  0.00  0.00    +0.000 A 
ATOM      7  C   UNL     1       1.414   4.371  -0.948  0.00  0.00    +0.000 A 
ATOM      8  C   UNL     1       1.640   3.000  -0.789  0.00  0.00    +0.000 A 
ATOM      9  C   UNL     1       2.503   2.524   0.227  0.00  0.00    +0.000 A 
ENDROOT
BRANCH   1  11
ATOM     10  C   UNL     1       3.074  -1.324   0.829  0.00  0.00    +0.000 C 
ATOM     11  C   UNL     1       2.451  -0.132   0.068  0.00  0.00    +0.000 C 
ATOM     12  C   UNL     1       2.885  -0.256  -1.407  0.00  0.00    +0.000 C 
ATOM     13  C   UNL     1       0.917  -0.274   0.163  0.00  0.00    +0.000 C 
ENDBRANCH   1  11
BRANCH   7  14
ATOM     14  C   UNL     1       0.496   4.828  -1.957  0.00  0.00    +0.000 C 
ATOM     15  N   UNL     1      -0.252   5.188  -2.763  0.00  0.00    +0.000 NA
ENDBRANCH   7  14
BRANCH   3  16
ATOM     16  C   UNL     1       4.575   3.282   3.141  0.00  0.00    +0.000 C 
BRANCH  16  17
ATOM     17  C   UNL     1       6.033   3.590   2.933  0.00  0.00    +0.000 A 
ATOM     18  C   UNL     1       6.937   3.476   4.000  0.00  0.00    +0.000 A 
ATOM     19  C   UNL     1       8.242   3.945   3.864  0.00  0.00    +0.000 A 
ATOM     20  C   UNL     1       8.610   4.515   2.659  0.00  0.00    +0.000 A 
ATOM     21  N   UNL     1       7.786   4.605   1.596  0.00  0.00    +0.000 NA
ATOM     22  C   UNL     1       6.525   4.140   1.754  0.00  0.00    +0.000 A 
ENDBRANCH  16  17
ENDBRANCH   3  16
TORSDOF 4
