REMARK  Name = 
REMARK  8 active torsions:
REMARK  status: ('A' for Active; 'I' for Inactive)
REMARK    1  A    between atoms: C_1  and  N_2
REMARK    2  A    between atoms: N_2  and  C_3
REMARK    3  A    between atoms: N_2  and  C_4
REMARK    4  A    between atoms: C_4  and  C_5
REMARK    5  A    between atoms: C_5  and  N_6
REMARK    6  A    between atoms: C_7  and  C_9
REMARK    7  A    between atoms: C_12  and  C_13
REMARK    8  A    between atoms: C_13  and  N_14
REMARK                            x       y       z     vdW  Elec       q    Type
REMARK                         _______ _______ _______ _____ _____    ______ ____
ROOT
ATOM      1  C   UNL     1       6.914   3.040   3.058  0.00  0.00    +0.000 A 
ATOM      2  C   UNL     1       6.226   3.160   4.270  0.00  0.00    +0.000 A 
ATOM      3  C   UNL     1       6.762   3.933   5.307  0.00  0.00    +0.000 A 
ATOM      4  C   UNL     1       7.993   4.589   5.152  0.00  0.00    +0.000 A 
ATOM      5  C   UNL     1       8.667   4.479   3.927  0.00  0.00    +0.000 A 
ATOM      6  C   UNL     1       8.133   3.709   2.891  0.00  0.00    +0.000 A 
ENDROOT
BRANCH   1   8
ATOM      7  N   UNL     1       5.100   1.851   1.920  0.00  0.00    +0.000 N 
ATOM      8  C   UNL     1       6.443   2.155   1.957  0.00  0.00    +0.000 C 
ATOM      9  O   UNL     1       7.247   1.729   1.131  0.00  0.00    +0.000 OA
ATOM     10  H   UNL     1       4.430   2.408   2.435  0.00  0.00    +0.000 HD
BRANCH   7  11
ATOM     11  C   UNL     1       4.563   1.016   0.862  0.00  0.00    +0.000 C 
BRANCH  11  12
ATOM     12  C   UNL     1       3.218   0.380   1.255  0.00  0.00    +0.000 C 
BRANCH  12  14
ATOM     13  C   UNL     1       1.779   2.171   0.446  0.00  0.00    +0.000 C 
ATOM     14  N   UNL     1       2.154   1.350   1.603  0.00  0.00    +0.000 NA
ATOM     15  C   UNL     1       0.971   0.620   2.077  0.00  0.00    +0.000 C 
ENDBRANCH  12  14
ENDBRANCH  11  12
ENDBRANCH   7  11
ENDBRANCH   1   8
BRANCH   4  16
ATOM     16  C   UNL     1       8.599   5.378   6.286  0.00  0.00    +0.000 C 
BRANCH  16  17
ATOM     17  N   UNL     1       9.481   4.568   7.121  0.00  0.00    +0.000 N 
ATOM     18  C   UNL     1      10.826   4.396   6.884  0.00  0.00    +0.000 A 
ATOM     19  C   UNL     1      11.363   3.696   7.939  0.00  0.00    +0.000 A 
ATOM     20  C   UNL     1      10.315   3.431   8.861  0.00  0.00    +0.000 A 
ATOM     21  C   UNL     1      10.256   2.791  10.108  0.00  0.00    +0.000 A 
ATOM     22  N   UNL     1       9.082   2.690  10.779  0.00  0.00    +0.000 NA
ATOM     23  C   UNL     1       7.972   3.211  10.221  0.00  0.00    +0.000 A 
ATOM     24  C   UNL     1       7.923   3.862   8.996  0.00  0.00    +0.000 A 
ATOM     25  C   UNL     1       9.142   3.970   8.321  0.00  0.00    +0.000 A 
ENDBRANCH  16  17
ENDBRANCH   4  16
TORSDOF 6
