REMARK  Name = 
REMARK  4 active torsions:
REMARK  status: ('A' for Active; 'I' for Inactive)
REMARK    1  A    between atoms: C_2  and  C_4
REMARK    2  A    between atoms: N_8  and  C_9
REMARK    3  A    between atoms: C_9  and  C_10
REMARK    4  A    between atoms: C_14  and  C_15
REMARK                            x       y       z     vdW  Elec       q    Type
REMARK                         _______ _______ _______ _____ _____    ______ ____
ROOT
ATOM      1  C   UNL     1       4.961  -3.145  -5.113  0.00  0.00    +0.000 C 
ATOM      2  C   UNL     1       5.077  -2.022  -6.141  0.00  0.00    +0.000 C 
ATOM      3  C   UNL     1       3.766  -2.701  -5.939  0.00  0.00    +0.000 C 
ENDROOT
BRANCH   1   8
ATOM      4  C   UNL     1       3.090  -3.579  -0.271  0.00  0.00    +0.000 A 
ATOM      5  C   UNL     1       2.390  -3.458  -1.467  0.00  0.00    +0.000 A 
ATOM      6  C   UNL     1       3.090  -3.193  -2.645  0.00  0.00    +0.000 A 
ATOM      7  C   UNL     1       4.470  -3.063  -2.611  0.00  0.00    +0.000 A 
ATOM      8  N   UNL     1       5.232  -2.699  -3.726  0.00  0.00    +0.000 N 
ATOM      9  N   UNL     1       5.161  -3.166  -1.451  0.00  0.00    +0.000 NA
ATOM     10  C   UNL     1       4.463  -3.413  -0.309  0.00  0.00    +0.000 A 
ATOM     11  H   UNL     1       6.199  -2.791  -3.418  0.00  0.00    +0.000 HD
BRANCH   4  13
ATOM     12  N   UNL     1       1.231  -4.533   0.955  0.00  0.00    +0.000 N 
ATOM     13  C   UNL     1       2.405  -3.834   1.010  0.00  0.00    +0.000 C 
ATOM     14  O   UNL     1       2.880  -3.464   2.081  0.00  0.00    +0.000 OA
ATOM     15  H   UNL     1       0.790  -4.764   1.836  0.00  0.00    +0.000 HD
ATOM     16  H   UNL     1       0.925  -5.035   0.132  0.00  0.00    +0.000 HD
ENDBRANCH   4  13
ENDBRANCH   1   8
BRANCH   1  17
ATOM     17  C   UNL     1       5.558  -4.521  -5.438  0.00  0.00    +0.000 A 
ATOM     18  C   UNL     1       6.850  -4.638  -5.953  0.00  0.00    +0.000 A 
ATOM     19  C   UNL     1       7.419  -5.894  -6.111  0.00  0.00    +0.000 A 
ATOM     20  C   UNL     1       6.687  -7.017  -5.750  0.00  0.00    +0.000 A 
ATOM     21  C   UNL     1       5.391  -6.858  -5.266  0.00  0.00    +0.000 A 
ATOM     22  N   UNL     1       4.832  -5.627  -5.125  0.00  0.00    +0.000 NA
BRANCH  21  23
ATOM     23  C   UNL     1       4.555  -7.995  -4.823  0.00  0.00    +0.000 A 
ATOM     24  C   UNL     1       3.568  -7.816  -3.835  0.00  0.00    +0.000 A 
ATOM     25  C   UNL     1       2.779  -8.879  -3.387  0.00  0.00    +0.000 A 
ATOM     26  C   UNL     1       2.959 -10.151  -3.922  0.00  0.00    +0.000 A 
ATOM     27  C   UNL     1       3.924 -10.358  -4.903  0.00  0.00    +0.000 A 
ATOM     28  C   UNL     1       4.711  -9.291  -5.349  0.00  0.00    +0.000 A 
ENDBRANCH  21  23
ENDBRANCH   1  17
TORSDOF 4
