REMARK  Name = 
REMARK  7 active torsions:
REMARK  status: ('A' for Active; 'I' for Inactive)
REMARK    1  A    between atoms: N_1  and  C_2
REMARK    2  A    between atoms: C_2  and  C_3
REMARK    3  A    between atoms: C_3  and  C_4
REMARK    4  A    between atoms: C_9  and  C_10
REMARK    5  A    between atoms: C_10  and  N_11
REMARK    6  A    between atoms: C_16  and  C_17
REMARK    7  A    between atoms: C_17  and  O_19
REMARK                            x       y       z     vdW  Elec       q    Type
REMARK                         _______ _______ _______ _____ _____    ______ ____
ROOT
ATOM      1  N   UNL     1       2.783   1.337   1.417  0.00  0.00    +0.000 N 
ATOM      2  C   UNL     1       2.140   0.166   1.757  0.00  0.00    +0.000 A 
ATOM      3  C   UNL     1       0.798   0.418   1.890  0.00  0.00    +0.000 A 
ATOM      4  C   UNL     1       0.618   1.816   1.760  0.00  0.00    +0.000 A 
ATOM      5  C   UNL     1      -0.492   2.655   1.967  0.00  0.00    +0.000 A 
ATOM      6  C   UNL     1      -0.330   4.038   1.852  0.00  0.00    +0.000 A 
ATOM      7  C   UNL     1       0.882   4.575   1.404  0.00  0.00    +0.000 A 
ATOM      8  C   UNL     1       1.993   3.752   1.169  0.00  0.00    +0.000 A 
ATOM      9  C   UNL     1       1.855   2.374   1.409  0.00  0.00    +0.000 A 
ENDROOT
BRANCH   6  10
ATOM     10  C   UNL     1      -1.468   4.897   2.261  0.00  0.00    +0.000 C 
ATOM     11  O   UNL     1      -2.636   4.582   2.119  0.00  0.00    +0.000 OA
BRANCH  10  12
ATOM     12  O   UNL     1      -1.078   6.025   2.896  0.00  0.00    +0.000 OA
ATOM     13  H   UNL     1      -0.133   6.047   3.134  0.00  0.00    +0.000 HD
ENDBRANCH  10  12
ENDBRANCH   6  10
BRANCH   1  14
ATOM     14  C   UNL     1       4.238   1.499   1.492  0.00  0.00    +0.000 C 
BRANCH  14  20
ATOM     15  C   UNL     1       5.216   0.328  -0.595  0.00  0.00    +0.000 A 
ATOM     16  C   UNL     1       6.122   0.415  -1.668  0.00  0.00    +0.000 A 
ATOM     17  C   UNL     1       6.807   1.592  -1.923  0.00  0.00    +0.000 A 
ATOM     18  C   UNL     1       6.546   2.670  -1.107  0.00  0.00    +0.000 A 
ATOM     19  N   UNL     1       5.673   2.638  -0.075  0.00  0.00    +0.000 NA
ATOM     20  C   UNL     1       5.009   1.474   0.191  0.00  0.00    +0.000 A 
BRANCH  15  21
ATOM     21  C   UNL     1       4.545  -1.005  -0.383  0.00  0.00    +0.000 C 
BRANCH  21  22
ATOM     22  C   UNL     1       3.294  -1.149  -1.261  0.00  0.00    +0.000 C 
BRANCH  22  23
ATOM     23  N   UNL     1       2.663  -2.457  -1.111  0.00  0.00    +0.000 NA
ATOM     24  H   UNL     1       3.315  -3.195  -1.372  0.00  0.00    +0.000 HD
ATOM     25  H   UNL     1       2.411  -2.616  -0.137  0.00  0.00    +0.000 HD
ENDBRANCH  22  23
ENDBRANCH  21  22
ENDBRANCH  15  21
ENDBRANCH  14  20
ENDBRANCH   1  14
TORSDOF 7
