REMARK  Name = 
REMARK  7 active torsions:
REMARK  status: ('A' for Active; 'I' for Inactive)
REMARK    1  A    between atoms: C_1  and  O_2
REMARK    2  A    between atoms: O_2  and  C_3
REMARK    3  A    between atoms: C_8  and  C_9
REMARK    4  A    between atoms: C_9  and  C_10
REMARK    5  A    between atoms: C_13  and  C_14
REMARK    6  A    between atoms: C_14  and  N_15
REMARK    7  A    between atoms: C_16  and  C_18
REMARK                            x       y       z     vdW  Elec       q    Type
REMARK                         _______ _______ _______ _____ _____    ______ ____
ROOT
ATOM      1  C   UNL     1       0.549   4.159   1.199  0.00  0.00    +0.000 C 
ENDROOT
BRANCH   1   5
ATOM      2  C   UNL     1       3.572   1.243   1.955  0.00  0.00    +0.000 A 
ATOM      3  C   UNL     1       2.290   1.010   2.449  0.00  0.00    +0.000 A 
ATOM      4  C   UNL     1       1.298   1.974   2.249  0.00  0.00    +0.000 A 
ATOM      5  C   UNL     1       1.601   3.153   1.567  0.00  0.00    +0.000 A 
ATOM      6  C   UNL     1       2.929   3.343   1.201  0.00  0.00    +0.000 A 
ATOM      7  N   UNL     1       3.909   2.421   1.368  0.00  0.00    +0.000 NA
BRANCH   2   8
ATOM      8  C   UNL     1       4.598   0.126   1.925  0.00  0.00    +0.000 C 
BRANCH   8  14
ATOM      9  C   UNL     1       5.235  -0.760   4.242  0.00  0.00    +0.000 A 
ATOM     10  C   UNL     1       6.135  -0.789   5.316  0.00  0.00    +0.000 A 
ATOM     11  C   UNL     1       7.314  -0.043   5.279  0.00  0.00    +0.000 A 
ATOM     12  C   UNL     1       7.614   0.730   4.164  0.00  0.00    +0.000 A 
ATOM     13  C   UNL     1       6.723   0.773   3.093  0.00  0.00    +0.000 A 
ATOM     14  C   UNL     1       5.524   0.037   3.118  0.00  0.00    +0.000 A 
BRANCH   9  16
ATOM     15  C   UNL     1       3.607  -2.029   5.422  0.00  0.00    +0.000 C 
ATOM     16  O   UNL     1       4.085  -1.506   4.187  0.00  0.00    +0.000 OA
ENDBRANCH   9  16
ENDBRANCH   8  14
ENDBRANCH   2   8
ENDBRANCH   1   5
BRANCH   1  17
ATOM     17  N   UNL     1       0.360   5.164   2.212  0.00  0.00    +0.000 N 
ATOM     18  C   UNL     1      -0.609   6.130   2.074  0.00  0.00    +0.000 C 
ATOM     19  O   UNL     1      -1.384   6.138   1.120  0.00  0.00    +0.000 OA
ATOM     20  H   UNL     1       1.124   5.321   2.863  0.00  0.00    +0.000 HD
BRANCH  18  21
ATOM     21  C   UNL     1      -0.716   7.114   3.155  0.00  0.00    +0.000 A 
ATOM     22  C   UNL     1      -1.918   7.777   3.372  0.00  0.00    +0.000 A 
ATOM     23  S   UNL     1      -1.881   8.844   4.703  0.00  0.00    +0.000 S 
ATOM     24  C   UNL     1      -0.239   8.503   5.003  0.00  0.00    +0.000 A 
ATOM     25  N   UNL     1       0.431   9.115   6.012  0.00  0.00    +0.000 NA
ATOM     26  C   UNL     1       1.677   8.785   6.103  0.00  0.00    +0.000 A 
ATOM     27  N   UNL     1       2.310   7.893   5.278  0.00  0.00    +0.000 N 
ATOM     28  C   UNL     1       1.664   7.225   4.266  0.00  0.00    +0.000 A 
ATOM     29  O   UNL     1       2.245   6.397   3.571  0.00  0.00    +0.000 OA
ATOM     30  C   UNL     1       0.265   7.570   4.110  0.00  0.00    +0.000 A 
ATOM     31  H   UNL     1       3.289   7.669   5.406  0.00  0.00    +0.000 HD
ENDBRANCH  18  21
ENDBRANCH   1  17
TORSDOF 6
