REMARK  Name = 
REMARK  11 active torsions:
REMARK  status: ('A' for Active; 'I' for Inactive)
REMARK    1  A    between atoms: C_1  and  O_2
REMARK    2  A    between atoms: O_2  and  C_3
REMARK    3  A    between atoms: C_10  and  C_11
REMARK    4  A    between atoms: N_13  and  C_14
REMARK    5  A    between atoms: C_14  and  C_15
REMARK    6  A    between atoms: C_18  and  N_19
REMARK    7  A    between atoms: N_19  and  C_20
REMARK    8  A    between atoms: C_20  and  C_21
REMARK    9  A    between atoms: C_25  and  C_26
REMARK   10  A    between atoms: C_29  and  C_30
REMARK   11  A    between atoms: C_30  and  O_31
REMARK                            x       y       z     vdW  Elec       q    Type
REMARK                         _______ _______ _______ _____ _____    ______ ____
ROOT
ATOM      1  C   UNL     1      -4.962 -10.350   2.286  0.00  0.00    +0.000 A 
ATOM      2  C   UNL     1      -4.003  -9.343   2.458  0.00  0.00    +0.000 A 
ATOM      3  C   UNL     1      -3.744  -8.409   1.438  0.00  0.00    +0.000 A 
ATOM      4  C   UNL     1      -4.421  -8.468   0.217  0.00  0.00    +0.000 A 
ATOM      5  C   UNL     1      -5.431  -9.433   0.089  0.00  0.00    +0.000 A 
ATOM      6  C   UNL     1      -5.696 -10.365   1.098  0.00  0.00    +0.000 A 
ENDROOT
BRANCH   4   7
ATOM      7  N   UNL     1      -4.256  -7.556  -0.831  0.00  0.00    +0.000 N 
ATOM      8  H   UNL     1      -4.620  -7.951  -1.693  0.00  0.00    +0.000 HD
BRANCH   7   9
ATOM      9  C   UNL     1      -3.002  -6.833  -1.016  0.00  0.00    +0.000 C 
BRANCH   9  10
ATOM     10  C   UNL     1      -3.066  -5.850  -2.213  0.00  0.00    +0.000 C 
ATOM     11  C   UNL     1      -3.416  -6.542  -3.553  0.00  0.00    +0.000 C 
ATOM     12  C   UNL     1      -3.451  -5.553  -4.719  0.00  0.00    +0.000 C 
ATOM     13  N   UNL     1      -4.331  -4.436  -4.396  0.00  0.00    +0.000 N 
ATOM     14  C   UNL     1      -5.567  -4.154  -4.955  0.00  0.00    +0.000 C 
ATOM     15  C   UNL     1      -6.112  -5.021  -6.064  0.00  0.00    +0.000 C 
ATOM     16  O   UNL     1      -6.254  -3.209  -4.555  0.00  0.00    +0.000 OA
ATOM     17  C   UNL     1      -3.905  -3.679  -3.217  0.00  0.00    +0.000 C 
ATOM     18  C   UNL     1      -3.921  -4.570  -1.957  0.00  0.00    +0.000 C 
BRANCH  18  19
ATOM     19  C   UNL     1      -5.358  -4.830  -1.478  0.00  0.00    +0.000 C 
BRANCH  19  20
ATOM     20  O   UNL     1      -6.003  -3.603  -1.145  0.00  0.00    +0.000 OA
ATOM     21  H   UNL     1      -6.322  -3.206  -1.974  0.00  0.00    +0.000 HD
ENDBRANCH  19  20
ENDBRANCH  18  19
ENDBRANCH   9  10
ENDBRANCH   7   9
ENDBRANCH   4   7
BRANCH   1  22
ATOM     22  C   UNL     1      -5.226 -11.375   3.360  0.00  0.00    +0.000 C 
BRANCH  22  25
ATOM     23  C   UNL     1      -6.607 -11.672   5.374  0.00  0.00    +0.000 C 
ATOM     24  O   UNL     1      -6.123 -12.777   5.585  0.00  0.00    +0.000 OA
ATOM     25  N   UNL     1      -6.223 -10.921   4.296  0.00  0.00    +0.000 N 
ATOM     26  H   UNL     1      -6.690 -10.046   4.094  0.00  0.00    +0.000 HD
BRANCH  23  34
ATOM     27  C   UNL     1      -8.305  -8.670   5.420  0.00  0.00    +0.000 A 
ATOM     28  N   UNL     1      -9.021  -7.570   5.733  0.00  0.00    +0.000 NA
ATOM     29  C   UNL     1      -9.746  -7.583   6.852  0.00  0.00    +0.000 A 
ATOM     30  N   UNL     1      -9.855  -8.584   7.719  0.00  0.00    +0.000 NA
ATOM     31  C   UNL     1      -9.114  -9.654   7.384  0.00  0.00    +0.000 A 
ATOM     32  S   UNL     1      -9.143 -11.030   8.377  0.00  0.00    +0.000 S 
ATOM     33  C   UNL     1      -8.034 -11.838   7.373  0.00  0.00    +0.000 A 
ATOM     34  C   UNL     1      -7.616 -11.089   6.278  0.00  0.00    +0.000 A 
ATOM     35  C   UNL     1      -8.291  -9.792   6.269  0.00  0.00    +0.000 A 
BRANCH  27  37
ATOM     36  C   UNL     1      -7.816  -7.497   3.450  0.00  0.00    +0.000 C 
ATOM     37  O   UNL     1      -7.610  -8.676   4.228  0.00  0.00    +0.000 OA
ENDBRANCH  27  37
ENDBRANCH  23  34
ENDBRANCH  22  25
ENDBRANCH   1  22
TORSDOF 9
