REMARK  Name = 
REMARK  10 active torsions:
REMARK  status: ('A' for Active; 'I' for Inactive)
REMARK    1  A    between atoms: C_2  and  C_23
REMARK    2  A    between atoms: N_3  and  C_4
REMARK    3  A    between atoms: C_4  and  C_5
REMARK    4  A    between atoms: C_8  and  C_9
REMARK    5  A    between atoms: C_9  and  N_10
REMARK    6  A    between atoms: N_10  and  CA_11
REMARK    7  A    between atoms: CA_11  and  C_12
REMARK    8  A    between atoms: CA_11  and  C_14
REMARK    9  A    between atoms: C_12  and  O_13
REMARK   10  A    between atoms: C_14  and  C_15
REMARK                            x       y       z     vdW  Elec       q    Type
REMARK                         _______ _______ _______ _____ _____    ______ ____
ROOT
ATOM      1  C   UNL     1       3.962  -5.422 -11.913  0.00  0.00    +0.000 A 
ATOM      2  C   UNL     1       4.787  -4.321 -12.179  0.00  0.00    +0.000 A 
ATOM      3  C   UNL     1       5.464  -3.676 -11.144  0.00  0.00    +0.000 A 
ATOM      4  C   UNL     1       5.335  -4.124  -9.822  0.00  0.00    +0.000 A 
ATOM      5  C   UNL     1       4.533  -5.243  -9.560  0.00  0.00    +0.000 A 
ATOM      6  C   UNL     1       3.859  -5.892 -10.596  0.00  0.00    +0.000 A 
ENDROOT
BRANCH   1   7
ATOM      7  C   UNL     1       3.232  -6.111 -13.033  0.00  0.00    +0.000 C 
BRANCH   7  10
ATOM      8  O   UNL     1       4.854  -5.939 -15.325  0.00  0.00    +0.000 OA
ATOM      9  C   UNL     1       4.846  -6.982 -14.676  0.00  0.00    +0.000 C 
ATOM     10  N   UNL     1       4.029  -7.171 -13.592  0.00  0.00    +0.000 N 
ATOM     11  H   UNL     1       4.197  -7.963 -12.982  0.00  0.00    +0.000 HD
BRANCH   9  12
ATOM     12  C   UNL     1       5.682  -8.127 -15.062  0.00  0.00    +0.000 A 
ATOM     13  C   UNL     1       6.149  -8.228 -16.364  0.00  0.00    +0.000 A 
ATOM     14  S   UNL     1       7.088  -9.622 -16.647  0.00  0.00    +0.000 S 
ATOM     15  C   UNL     1       6.943 -10.114 -15.024  0.00  0.00    +0.000 A 
ATOM     16  N   UNL     1       7.556 -11.245 -14.583  0.00  0.00    +0.000 NA
ATOM     17  C   UNL     1       7.398 -11.479 -13.324  0.00  0.00    +0.000 A 
ATOM     18  N   UNL     1       6.674 -10.690 -12.469  0.00  0.00    +0.000 N 
ATOM     19  C   UNL     1       5.974  -9.585 -12.884  0.00  0.00    +0.000 A 
ATOM     20  O   UNL     1       5.229  -8.982 -12.119  0.00  0.00    +0.000 OA
ATOM     21  C   UNL     1       6.164  -9.245 -14.284  0.00  0.00    +0.000 A 
ATOM     22  H   UNL     1       6.565 -10.945 -11.496  0.00  0.00    +0.000 HD
ENDBRANCH   9  12
ENDBRANCH   7  10
ENDBRANCH   1   7
BRANCH   4  23
ATOM     23  C   UNL     1       6.054  -3.413  -8.701  0.00  0.00    +0.000 C 
BRANCH  23  24
ATOM     24  N   UNL     1       5.565  -2.045  -8.551  0.00  0.00    +0.000 NA
ATOM     25  H   UNL     1       4.570  -2.086  -8.319  0.00  0.00    +0.000 HD
BRANCH  24  26
ATOM     26  CA  UNL     1       6.248  -1.288  -7.475  0.00  0.00    +0.000 C 
BRANCH  26  27
ATOM     27  C   UNL     1       5.974  -1.915  -6.086  0.00  0.00    +0.000 C 
BRANCH  27  28
ATOM     28  O   UNL     1       4.565  -2.051  -5.886  0.00  0.00    +0.000 OA
ATOM     29  H   UNL     1       4.437  -2.654  -5.134  0.00  0.00    +0.000 HD
ENDBRANCH  27  28
ENDBRANCH  26  27
BRANCH  26  30
ATOM     30  C   UNL     1       5.755   0.180  -7.446  0.00  0.00    +0.000 C 
BRANCH  30  31
ATOM     31  C   UNL     1       5.998   0.945  -8.723  0.00  0.00    +0.000 A 
ATOM     32  C   UNL     1       5.022   0.964  -9.717  0.00  0.00    +0.000 A 
ATOM     33  C   UNL     1       5.261   1.678 -10.887  0.00  0.00    +0.000 A 
ATOM     34  C   UNL     1       6.464   2.354 -11.031  0.00  0.00    +0.000 A 
ATOM     35  C   UNL     1       7.379   2.290  -9.993  0.00  0.00    +0.000 A 
ATOM     36  N   UNL     1       7.176   1.606  -8.844  0.00  0.00    +0.000 NA
ENDBRANCH  30  31
ENDBRANCH  26  30
ENDBRANCH  24  26
ENDBRANCH  23  24
ENDBRANCH   4  23
TORSDOF 10
