REMARK  Name = 
REMARK  7 active torsions:
REMARK  status: ('A' for Active; 'I' for Inactive)
REMARK    1  A    between atoms: C_1  and  C_2
REMARK    2  A    between atoms: C_2  and  C_3
REMARK    3  A    between atoms: C_2  and  C_15
REMARK    4  A    between atoms: C_3  and  N_4
REMARK    5  A    between atoms: N_4  and  C_5
REMARK    6  A    between atoms: C_8  and  C_9
REMARK    7  A    between atoms: C_19  and  C_20
REMARK                            x       y       z     vdW  Elec       q    Type
REMARK                         _______ _______ _______ _____ _____    ______ ____
ROOT
ATOM      1  N   UNL     1       2.568   0.849   2.374  0.00  0.00    +0.000 N 
ATOM      2  H   UNL     1       2.064   1.604   1.928  0.00  0.00    +0.000 HD
ENDROOT
BRANCH   1   3
ATOM      3  C   UNL     1       3.043   1.027   3.673  0.00  0.00    +0.000 A 
ATOM      4  C   UNL     1       2.509   2.063   4.452  0.00  0.00    +0.000 A 
ATOM      5  C   UNL     1       2.872   2.231   5.800  0.00  0.00    +0.000 A 
ATOM      6  C   UNL     1       3.784   1.357   6.402  0.00  0.00    +0.000 A 
ATOM      7  C   UNL     1       4.328   0.324   5.642  0.00  0.00    +0.000 A 
ATOM      8  C   UNL     1       3.958   0.166   4.310  0.00  0.00    +0.000 A 
ATOM      9  F   UNL     1       4.517  -0.858   3.647  0.00  0.00    +0.000 F 
BRANCH   6  10
ATOM     10  C   UNL     1       4.212   1.452   7.830  0.00  0.00    +0.000 C 
ATOM     11  N   UNL     1       3.687   2.446   8.607  0.00  0.00    +0.000 N 
ATOM     12  O   UNL     1       5.010   0.662   8.310  0.00  0.00    +0.000 OA
ATOM     13  H   UNL     1       3.019   3.136   8.310  0.00  0.00    +0.000 HD
ATOM     14  H   UNL     1       3.998   2.472   9.571  0.00  0.00    +0.000 HD
ENDBRANCH   6  10
ENDBRANCH   1   3
BRANCH   1  15
ATOM     15  C   UNL     1       3.102  -0.214   1.547  0.00  0.00    +0.000 C 
BRANCH  15  17
ATOM     16  C   UNL     1       0.981  -0.317   0.062  0.00  0.00    +0.000 C 
ATOM     17  C   UNL     1       2.471  -0.233   0.184  0.00  0.00    +0.000 C 
BRANCH  17  18
ATOM     18  C   UNL     1       3.227  -0.975  -0.843  0.00  0.00    +0.000 A 
ATOM     19  C   UNL     1       3.664  -2.286  -0.601  0.00  0.00    +0.000 A 
ATOM     20  C   UNL     1       4.423  -2.972  -1.547  0.00  0.00    +0.000 A 
ATOM     21  C   UNL     1       4.748  -2.353  -2.752  0.00  0.00    +0.000 A 
ATOM     22  C   UNL     1       4.297  -1.053  -3.015  0.00  0.00    +0.000 A 
ATOM     23  C   UNL     1       3.534  -0.366  -2.060  0.00  0.00    +0.000 A 
BRANCH  22  24
ATOM     24  C   UNL     1       4.623  -0.421  -4.254  0.00  0.00    +0.000 C 
ATOM     25  N   UNL     1       4.885   0.095  -5.261  0.00  0.00    +0.000 NA
ENDBRANCH  22  24
ENDBRANCH  17  18
ENDBRANCH  15  17
ENDBRANCH   1  15
TORSDOF 6
