REMARK  Name = 
REMARK  8 active torsions:
REMARK  status: ('A' for Active; 'I' for Inactive)
REMARK    1  A    between atoms: C_1  and  C_2
REMARK    2  A    between atoms: C_2  and  C_3
REMARK    3  A    between atoms: C_2  and  C_4
REMARK    4  A    between atoms: C_2  and  C_5
REMARK    5  A    between atoms: N_7  and  C_8
REMARK    6  A    between atoms: C_8  and  C_9
REMARK    7  A    between atoms: C_13  and  C_14
REMARK    8  A    between atoms: C_14  and  N_15
REMARK                            x       y       z     vdW  Elec       q    Type
REMARK                         _______ _______ _______ _____ _____    ______ ____
ROOT
ATOM      1  C   UNL     1       3.044  -0.983   1.009  0.00  0.00    +0.000 A 
ATOM      2  C   UNL     1       3.715  -0.649   2.173  0.00  0.00    +0.000 A 
ATOM      3  N   UNL     1       3.830  -1.765   2.962  0.00  0.00    +0.000 N 
ATOM      4  C   UNL     1       3.320  -2.861   2.308  0.00  0.00    +0.000 A 
ATOM      5  C   UNL     1       3.249  -4.208   2.692  0.00  0.00    +0.000 A 
ATOM      6  C   UNL     1       2.660  -5.121   1.813  0.00  0.00    +0.000 A 
ATOM      7  C   UNL     1       2.155  -4.700   0.587  0.00  0.00    +0.000 A 
ATOM      8  C   UNL     1       2.226  -3.354   0.216  0.00  0.00    +0.000 A 
ATOM      9  C   UNL     1       2.822  -2.406   1.079  0.00  0.00    +0.000 A 
ENDROOT
BRANCH   1  11
ATOM     10  C   UNL     1       3.039   1.435   0.247  0.00  0.00    +0.000 C 
ATOM     11  C   UNL     1       2.610  -0.013  -0.092  0.00  0.00    +0.000 C 
ATOM     12  C   UNL     1       1.073  -0.027  -0.239  0.00  0.00    +0.000 C 
ATOM     13  C   UNL     1       3.241  -0.370  -1.452  0.00  0.00    +0.000 C 
ENDBRANCH   1  11
BRANCH   3  14
ATOM     14  C   UNL     1       4.347  -1.743   4.336  0.00  0.00    +0.000 C 
BRANCH  14  15
ATOM     15  C   UNL     1       5.820  -2.064   4.386  0.00  0.00    +0.000 A 
ATOM     16  C   UNL     1       6.760  -1.214   3.787  0.00  0.00    +0.000 A 
ATOM     17  C   UNL     1       8.104  -1.575   3.731  0.00  0.00    +0.000 A 
ATOM     18  C   UNL     1       8.527  -2.779   4.293  0.00  0.00    +0.000 A 
ATOM     19  C   UNL     1       7.621  -3.620   4.955  0.00  0.00    +0.000 A 
ATOM     20  C   UNL     1       6.267  -3.249   4.993  0.00  0.00    +0.000 A 
BRANCH  19  21
ATOM     21  C   UNL     1       8.097  -4.950   5.486  0.00  0.00    +0.000 C 
BRANCH  21  22
ATOM     22  N   UNL     1       7.404  -5.381   6.696  0.00  0.00    +0.000 NA
ATOM     23  H   UNL     1       7.606  -4.716   7.440  0.00  0.00    +0.000 HD
ATOM     24  H   UNL     1       7.797  -6.272   6.996  0.00  0.00    +0.000 HD
ENDBRANCH  21  22
ENDBRANCH  19  21
ENDBRANCH  14  15
ENDBRANCH   3  14
TORSDOF 5
