REMARK  Name = 
REMARK  5 active torsions:
REMARK  status: ('A' for Active; 'I' for Inactive)
REMARK    1  A    between atoms: C_2  and  C_4
REMARK    2  A    between atoms: N_8  and  C_9
REMARK    3  A    between atoms: C_9  and  C_10
REMARK    4  A    between atoms: C_10  and  C_11
REMARK    5  A    between atoms: C_15  and  C_16
REMARK                            x       y       z     vdW  Elec       q    Type
REMARK                         _______ _______ _______ _____ _____    ______ ____
ROOT
ATOM      1  C   UNL     1       6.536  -5.233   4.235  0.00  0.00    +0.000 C 
ENDROOT
BRANCH   1   2
ATOM      2  C   UNL     1       6.310  -6.714   4.432  0.00  0.00    +0.000 A 
ATOM      3  C   UNL     1       5.605  -7.186   5.542  0.00  0.00    +0.000 A 
ATOM      4  C   UNL     1       5.363  -8.550   5.685  0.00  0.00    +0.000 A 
ATOM      5  C   UNL     1       5.802  -9.443   4.707  0.00  0.00    +0.000 A 
ATOM      6  C   UNL     1       6.476  -9.003   3.553  0.00  0.00    +0.000 A 
ATOM      7  C   UNL     1       6.740  -7.624   3.454  0.00  0.00    +0.000 A 
BRANCH   6   8
ATOM      8  C   UNL     1       6.877  -9.946   2.482  0.00  0.00    +0.000 A 
ATOM      9  C   UNL     1       8.047  -9.736   1.723  0.00  0.00    +0.000 A 
ATOM     10  C   UNL     1       8.445 -10.629   0.719  0.00  0.00    +0.000 A 
ATOM     11  C   UNL     1       7.685 -11.763   0.456  0.00  0.00    +0.000 A 
ATOM     12  C   UNL     1       6.521 -11.979   1.178  0.00  0.00    +0.000 A 
ATOM     13  F   UNL     1       5.782 -13.067   0.917  0.00  0.00    +0.000 F 
ATOM     14  C   UNL     1       6.113 -11.084   2.164  0.00  0.00    +0.000 A 
ATOM     15  F   UNL     1       4.954 -11.331   2.796  0.00  0.00    +0.000 F 
ENDBRANCH   6   8
ENDBRANCH   1   2
BRANCH   1  16
ATOM     16  C   UNL     1       5.402  -4.613   3.412  0.00  0.00    +0.000 C 
BRANCH  16  21
ATOM     17  C   UNL     1       3.037  -0.783   1.056  0.00  0.00    +0.000 A 
ATOM     18  C   UNL     1       2.500  -1.898   1.689  0.00  0.00    +0.000 A 
ATOM     19  C   UNL     1       3.341  -2.731   2.430  0.00  0.00    +0.000 A 
ATOM     20  C   UNL     1       4.700  -2.443   2.519  0.00  0.00    +0.000 A 
ATOM     21  N   UNL     1       5.577  -3.172   3.308  0.00  0.00    +0.000 N 
ATOM     22  N   UNL     1       5.234  -1.377   1.890  0.00  0.00    +0.000 NA
ATOM     23  C   UNL     1       4.403  -0.577   1.168  0.00  0.00    +0.000 A 
ATOM     24  H   UNL     1       6.517  -2.847   3.092  0.00  0.00    +0.000 HD
BRANCH  17  26
ATOM     25  N   UNL     1       0.901   0.283   0.607  0.00  0.00    +0.000 N 
ATOM     26  C   UNL     1       2.220   0.161   0.266  0.00  0.00    +0.000 C 
ATOM     27  O   UNL     1       2.709   0.832  -0.633  0.00  0.00    +0.000 OA
ATOM     28  H   UNL     1       0.379   1.007   0.128  0.00  0.00    +0.000 HD
ATOM     29  H   UNL     1       0.536  -0.045   1.491  0.00  0.00    +0.000 HD
ENDBRANCH  17  26
ENDBRANCH  16  21
ENDBRANCH   1  16
TORSDOF 5
