REMARK  Name = 
REMARK  4 active torsions:
REMARK  status: ('A' for Active; 'I' for Inactive)
REMARK    1  A    between atoms: C_2  and  C_4
REMARK    2  A    between atoms: C_7  and  C_8
REMARK    3  A    between atoms: C_8  and  C_9
REMARK    4  A    between atoms: C_14  and  O_15
REMARK                            x       y       z     vdW  Elec       q    Type
REMARK                         _______ _______ _______ _____ _____    ______ ____
ROOT
ATOM      1  C   UNL     1       3.071   0.374  -1.125  0.00  0.00    +0.000 A 
ATOM      2  C   UNL     1       2.585   1.544  -1.725  0.00  0.00    +0.000 A 
ATOM      3  C   UNL     1       3.241   2.088  -2.833  0.00  0.00    +0.000 A 
ATOM      4  C   UNL     1       4.388   1.476  -3.355  0.00  0.00    +0.000 A 
ATOM      5  C   UNL     1       4.873   0.317  -2.737  0.00  0.00    +0.000 A 
ATOM      6  C   UNL     1       4.223  -0.233  -1.626  0.00  0.00    +0.000 A 
ENDROOT
BRANCH   1   8
ATOM      7  N   UNL     1       1.041  -0.047   0.144  0.00  0.00    +0.000 N 
ATOM      8  C   UNL     1       2.392  -0.233   0.049  0.00  0.00    +0.000 C 
ATOM      9  O   UNL     1       3.001  -0.904   0.873  0.00  0.00    +0.000 OA
ATOM     10  H   UNL     1       0.569  -0.557   0.879  0.00  0.00    +0.000 HD
ATOM     11  H   UNL     1       0.489   0.268  -0.641  0.00  0.00    +0.000 HD
ENDBRANCH   1   8
BRANCH   4  12
ATOM     12  C   UNL     1       5.130   2.092  -4.528  0.00  0.00    +0.000 C 
BRANCH  12  13
ATOM     13  C   UNL     1       6.188   3.087  -4.102  0.00  0.00    +0.000 A 
ATOM     14  N   UNL     1       5.811   4.394  -4.037  0.00  0.00    +0.000 NA
ATOM     15  C   UNL     1       6.705   5.274  -3.535  0.00  0.00    +0.000 A 
ATOM     16  C   UNL     1       7.966   4.922  -3.084  0.00  0.00    +0.000 A 
ATOM     17  C   UNL     1       8.355   3.591  -3.186  0.00  0.00    +0.000 A 
ATOM     18  C   UNL     1       7.460   2.663  -3.710  0.00  0.00    +0.000 A 
BRANCH  18  19
ATOM     19  O   UNL     1       7.821   1.352  -3.827  0.00  0.00    +0.000 OA
ATOM     20  H   UNL     1       8.657   1.214  -3.353  0.00  0.00    +0.000 HD
ENDBRANCH  18  19
ENDBRANCH  12  13
ENDBRANCH   4  12
TORSDOF 4
