REMARK  Name = 
REMARK  5 active torsions:
REMARK  status: ('A' for Active; 'I' for Inactive)
REMARK    1  A    between atoms: N_1  and  C_2
REMARK    2  A    between atoms: C_2  and  C_3
REMARK    3  A    between atoms: C_3  and  C_4
REMARK    4  A    between atoms: C_7  and  C_8
REMARK    5  A    between atoms: C_8  and  N_9
REMARK                            x       y       z     vdW  Elec       q    Type
REMARK                         _______ _______ _______ _____ _____    ______ ____
ROOT
ATOM      1  C   UNL     1       4.485   1.241  -0.479  0.00  0.00    +0.000 A 
ATOM      2  C   UNL     1       5.191   0.180   0.100  0.00  0.00    +0.000 A 
ATOM      3  C   UNL     1       6.589   0.140   0.046  0.00  0.00    +0.000 A 
ATOM      4  C   UNL     1       7.310   1.165  -0.583  0.00  0.00    +0.000 A 
ATOM      5  C   UNL     1       6.601   2.239  -1.137  0.00  0.00    +0.000 A 
ATOM      6  C   UNL     1       5.204   2.279  -1.082  0.00  0.00    +0.000 A 
ENDROOT
BRANCH   1   7
ATOM      7  C   UNL     1       2.973   1.261  -0.470  0.00  0.00    +0.000 C 
BRANCH   7   8
ATOM      8  C   UNL     1       2.392   1.984   0.749  0.00  0.00    +0.000 C 
BRANCH   8   9
ATOM      9  N   UNL     1       0.929   1.992   0.707  0.00  0.00    +0.000 NA
ATOM     10  H   UNL     1       0.569   2.477   1.529  0.00  0.00    +0.000 HD
ATOM     11  H   UNL     1       0.577   1.037   0.764  0.00  0.00    +0.000 HD
ENDBRANCH   8   9
ENDBRANCH   7   8
ENDBRANCH   1   7
BRANCH   4  12
ATOM     12  C   UNL     1       8.815   1.124  -0.649  0.00  0.00    +0.000 C 
BRANCH  12  13
ATOM     13  N   UNL     1       9.315   0.441  -1.832  0.00  0.00    +0.000 N 
ATOM     14  C   UNL     1       9.532   1.034  -3.050  0.00  0.00    +0.000 A 
ATOM     15  N   UNL     1      10.189   0.250  -3.873  0.00  0.00    +0.000 NA
ATOM     16  C   UNL     1      10.415  -0.894  -3.158  0.00  0.00    +0.000 A 
ATOM     17  N   UNL     1      11.115  -1.960  -3.605  0.00  0.00    +0.000 NA
ATOM     18  C   UNL     1      11.232  -2.963  -2.711  0.00  0.00    +0.000 A 
ATOM     19  C   UNL     1      10.686  -2.979  -1.432  0.00  0.00    +0.000 A 
ATOM     20  C   UNL     1       9.961  -1.877  -0.981  0.00  0.00    +0.000 A 
ATOM     21  C   UNL     1       9.858  -0.819  -1.884  0.00  0.00    +0.000 A 
ENDBRANCH  12  13
ENDBRANCH   4  12
TORSDOF 5
