REMARK  Name = 
REMARK  3 active torsions:
REMARK  status: ('A' for Active; 'I' for Inactive)
REMARK    1  A    between atoms: C_2  and  C_4
REMARK    2  A    between atoms: N_8  and  C_9
REMARK    3  A    between atoms: C_9  and  C_10
REMARK                            x       y       z     vdW  Elec       q    Type
REMARK                         _______ _______ _______ _____ _____    ______ ____
ROOT
ATOM      1  C   UNL     1       2.859  -1.204   0.003  0.00  0.00    +0.000 A 
ATOM      2  C   UNL     1       4.236  -1.022   0.048  0.00  0.00    +0.000 A 
ATOM      3  C   UNL     1       5.062  -2.141  -0.026  0.00  0.00    +0.000 A 
ATOM      4  C   UNL     1       4.509  -3.418  -0.162  0.00  0.00    +0.000 A 
ATOM      5  N   UNL     1       5.419  -4.471  -0.348  0.00  0.00    +0.000 N 
ATOM      6  N   UNL     1       3.175  -3.601  -0.186  0.00  0.00    +0.000 NA
ATOM      7  C   UNL     1       2.380  -2.503  -0.083  0.00  0.00    +0.000 A 
ATOM      8  H   UNL     1       6.111  -4.490   0.398  0.00  0.00    +0.000 HD
ENDROOT
BRANCH   1  10
ATOM      9  N   UNL     1       2.337   1.132  -0.412  0.00  0.00    +0.000 N 
ATOM     10  C   UNL     1       1.904  -0.077   0.059  0.00  0.00    +0.000 C 
ATOM     11  O   UNL     1       0.769  -0.227   0.480  0.00  0.00    +0.000 OA
ATOM     12  H   UNL     1       1.646   1.870  -0.454  0.00  0.00    +0.000 HD
ATOM     13  H   UNL     1       3.155   1.226  -0.997  0.00  0.00    +0.000 HD
ENDBRANCH   1  10
BRANCH   5  14
ATOM     14  C   UNL     1       5.089  -5.822  -0.874  0.00  0.00    +0.000 C 
ATOM     15  C   UNL     1       5.142  -5.893  -2.403  0.00  0.00    +0.000 C 
ATOM     16  C   UNL     1       3.868  -6.196  -1.694  0.00  0.00    +0.000 C 
BRANCH  14  17
ATOM     17  C   UNL     1       5.783  -6.953  -0.073  0.00  0.00    +0.000 A 
ATOM     18  N   UNL     1       5.051  -7.983   0.407  0.00  0.00    +0.000 NA
ATOM     19  C   UNL     1       5.680  -8.886   1.181  0.00  0.00    +0.000 A 
ATOM     20  C   UNL     1       7.012  -8.815   1.499  0.00  0.00    +0.000 A 
ATOM     21  C   UNL     1       7.688  -7.748   0.964  0.00  0.00    +0.000 A 
ATOM     22  N   UNL     1       7.106  -6.811   0.194  0.00  0.00    +0.000 NA
ENDBRANCH  14  17
ENDBRANCH   5  14
TORSDOF 3
