REMARK  Name = 
REMARK  6 active torsions:
REMARK  status: ('A' for Active; 'I' for Inactive)
REMARK    1  A    between atoms: C_2  and  C_25
REMARK    2  A    between atoms: N_3  and  C_4
REMARK    3  A    between atoms: C_4  and  C_5
REMARK    4  A    between atoms: C_8  and  C_9
REMARK    5  A    between atoms: C_9  and  N_10
REMARK    6  A    between atoms: C_11  and  C_13
REMARK                            x       y       z     vdW  Elec       q    Type
REMARK                         _______ _______ _______ _____ _____    ______ ____
ROOT
ATOM      1  C   UNL     1       3.134  -1.842   3.096  0.00  0.00    +0.000 A 
ATOM      2  C   UNL     1       3.919  -0.987   3.883  0.00  0.00    +0.000 A 
ATOM      3  C   UNL     1       4.747  -1.501   4.888  0.00  0.00    +0.000 A 
ATOM      4  C   UNL     1       4.823  -2.882   5.114  0.00  0.00    +0.000 A 
ATOM      5  C   UNL     1       4.035  -3.735   4.330  0.00  0.00    +0.000 A 
ATOM      6  C   UNL     1       3.209  -3.222   3.325  0.00  0.00    +0.000 A 
ENDROOT
BRANCH   1   7
ATOM      7  C   UNL     1       2.196  -1.288   2.058  0.00  0.00    +0.000 C 
BRANCH   7  10
ATOM      8  O   UNL     1       0.864  -0.326  -0.217  0.00  0.00    +0.000 OA
ATOM      9  C   UNL     1       2.046  -0.632  -0.283  0.00  0.00    +0.000 C 
ATOM     10  N   UNL     1       2.803  -1.117   0.761  0.00  0.00    +0.000 N 
ATOM     11  H   UNL     1       3.780  -1.327   0.598  0.00  0.00    +0.000 HD
BRANCH   9  12
ATOM     12  C   UNL     1       2.774  -0.478  -1.590  0.00  0.00    +0.000 C 
ATOM     13  C   UNL     1       2.109   0.028  -2.801  0.00  0.00    +0.000 C 
ATOM     14  C   UNL     1       3.157   0.037  -3.771  0.00  0.00    +0.000 C 
ATOM     15  C   UNL     1       4.242  -0.418  -3.127  0.00  0.00    +0.000 C 
ATOM     16  N   UNL     1       4.043  -0.746  -1.792  0.00  0.00    +0.000 NA
ENDBRANCH   9  12
ENDBRANCH   7  10
ENDBRANCH   1   7
BRANCH   4  17
ATOM     17  C   UNL     1       5.698  -3.445   6.206  0.00  0.00    +0.000 C 
BRANCH  17  18
ATOM     18  N   UNL     1       4.974  -3.568   7.446  0.00  0.00    +0.000 N 
ATOM     19  C   UNL     1       5.593  -3.983   8.598  0.00  0.00    +0.000 C 
ATOM     20  O   UNL     1       6.798  -4.218   8.641  0.00  0.00    +0.000 OA
ATOM     21  H   UNL     1       3.962  -3.607   7.384  0.00  0.00    +0.000 HD
BRANCH  19  22
ATOM     22  C   UNL     1       4.753  -4.076   9.799  0.00  0.00    +0.000 A 
ATOM     23  C   UNL     1       5.338  -4.011  11.057  0.00  0.00    +0.000 A 
ATOM     24  S   UNL     1       4.216  -4.079  12.340  0.00  0.00    +0.000 S 
ATOM     25  C   UNL     1       2.911  -4.249  11.262  0.00  0.00    +0.000 A 
ATOM     26  N   UNL     1       1.638  -4.383  11.722  0.00  0.00    +0.000 NA
ATOM     27  C   UNL     1       0.750  -4.533  10.797  0.00  0.00    +0.000 A 
ATOM     28  N   UNL     1       1.019  -4.558   9.453  0.00  0.00    +0.000 N 
ATOM     29  C   UNL     1       2.286  -4.403   8.942  0.00  0.00    +0.000 A 
ATOM     30  O   UNL     1       2.487  -4.399   7.732  0.00  0.00    +0.000 OA
ATOM     31  C   UNL     1       3.325  -4.237   9.941  0.00  0.00    +0.000 A 
ATOM     32  H   UNL     1       0.275  -4.673   8.779  0.00  0.00    +0.000 HD
ENDBRANCH  19  22
ENDBRANCH  17  18
ENDBRANCH   4  17
TORSDOF 6
