REMARK  Name = 
REMARK  6 active torsions:
REMARK  status: ('A' for Active; 'I' for Inactive)
REMARK    1  A    between atoms: C_2  and  C_3
REMARK    2  A    between atoms: C_5  and  C_6
REMARK    3  A    between atoms: C_6  and  N_7
REMARK    4  A    between atoms: C_8  and  C_10
REMARK    5  A    between atoms: C_22  and  O_23
REMARK    6  A    between atoms: O_23  and  C_24
REMARK                            x       y       z     vdW  Elec       q    Type
REMARK                         _______ _______ _______ _____ _____    ______ ____
ROOT
ATOM      1  C   UNL     1      -0.579  -0.136  -0.227  0.00  0.00    +0.000 A 
ATOM      2  C   UNL     1       0.169  -1.322  -0.144  0.00  0.00    +0.000 A 
ATOM      3  C   UNL     1       1.563  -1.295  -0.001  0.00  0.00    +0.000 A 
ATOM      4  C   UNL     1       2.202  -0.055   0.110  0.00  0.00    +0.000 A 
ATOM      5  C   UNL     1       1.460   1.132   0.063  0.00  0.00    +0.000 A 
ATOM      6  C   UNL     1       0.067   1.101  -0.089  0.00  0.00    +0.000 A 
ENDROOT
BRANCH   1   8
ATOM      7  N   UNL     1      -3.099  -0.400  -0.782  0.00  0.00    +0.000 NA
ATOM      8  C   UNL     1      -1.977  -0.261  -0.521  0.00  0.00    +0.000 C 
ENDBRANCH   1   8
BRANCH   3   9
ATOM      9  C   UNL     1       2.334  -2.588   0.056  0.00  0.00    +0.000 C 
BRANCH   9  10
ATOM     10  N   UNL     1       2.437  -3.066   1.409  0.00  0.00    +0.000 N 
ATOM     11  C   UNL     1       3.160  -4.191   1.713  0.00  0.00    +0.000 C 
ATOM     12  O   UNL     1       3.782  -4.814   0.856  0.00  0.00    +0.000 OA
ATOM     13  H   UNL     1       1.755  -2.720   2.077  0.00  0.00    +0.000 HD
BRANCH  11  14
ATOM     14  C   UNL     1       3.206  -4.577   3.128  0.00  0.00    +0.000 A 
ATOM     15  C   UNL     1       4.252  -5.364   3.591  0.00  0.00    +0.000 A 
ATOM     16  S   UNL     1       4.187  -5.672   5.267  0.00  0.00    +0.000 S 
ATOM     17  C   UNL     1       2.730  -4.808   5.425  0.00  0.00    +0.000 A 
ATOM     18  N   UNL     1       2.109  -4.701   6.630  0.00  0.00    +0.000 NA
ATOM     19  C   UNL     1       0.998  -4.044   6.601  0.00  0.00    +0.000 A 
ATOM     20  N   UNL     1       0.454  -3.479   5.476  0.00  0.00    +0.000 N 
ATOM     21  C   UNL     1       1.060  -3.537   4.244  0.00  0.00    +0.000 A 
ATOM     22  O   UNL     1       0.570  -2.985   3.264  0.00  0.00    +0.000 OA
ATOM     23  C   UNL     1       2.308  -4.277   4.219  0.00  0.00    +0.000 A 
ATOM     24  H   UNL     1      -0.416  -2.969   5.522  0.00  0.00    +0.000 HD
ENDBRANCH  11  14
ENDBRANCH   9  10
ENDBRANCH   3   9
BRANCH   6  25
ATOM     25  O   UNL     1      -0.534   2.336  -0.220  0.00  0.00    +0.000 OA
BRANCH  25  26
ATOM     26  C   UNL     1      -1.703   2.597   0.489  0.00  0.00    +0.000 A 
ATOM     27  C   UNL     1      -2.475   3.648   0.027  0.00  0.00    +0.000 A 
ATOM     28  C   UNL     1      -3.680   3.889   0.671  0.00  0.00    +0.000 A 
ATOM     29 CL   UNL     1      -4.690   5.181   0.149  0.00  0.00    +0.000 Cl
ATOM     30  C   UNL     1      -4.086   3.089   1.732  0.00  0.00    +0.000 A 
ATOM     31  C   UNL     1      -3.232   2.078   2.132  0.00  0.00    +0.000 A 
ATOM     32  N   UNL     1      -2.036   1.831   1.553  0.00  0.00    +0.000 NA
ENDBRANCH  25  26
ENDBRANCH   6  25
TORSDOF 6
