REMARK  Name = 
REMARK  4 active torsions:
REMARK  status: ('A' for Active; 'I' for Inactive)
REMARK    1  A    between atoms: C_2  and  C_4
REMARK    2  A    between atoms: C_7  and  O_8
REMARK    3  A    between atoms: O_8  and  C_9
REMARK    4  A    between atoms: C_9  and  C_10
REMARK                            x       y       z     vdW  Elec       q    Type
REMARK                         _______ _______ _______ _____ _____    ______ ____
ROOT
ATOM      1  C   UNL     1       3.199   0.495  -1.282  0.00  0.00    +0.000 A 
ATOM      2  C   UNL     1       2.551   0.880  -2.449  0.00  0.00    +0.000 A 
ATOM      3  N   UNL     1       3.204   1.040  -3.634  0.00  0.00    +0.000 NA
ATOM      4  C   UNL     1       4.530   0.777  -3.593  0.00  0.00    +0.000 A 
ATOM      5  C   UNL     1       5.171   0.362  -2.431  0.00  0.00    +0.000 A 
ATOM      6  N   UNL     1       4.536   0.225  -1.240  0.00  0.00    +0.000 NA
ENDROOT
BRANCH   1   8
ATOM      7  N   UNL     1       3.184   0.101   1.107  0.00  0.00    +0.000 N 
ATOM      8  C   UNL     1       2.438   0.386  -0.008  0.00  0.00    +0.000 C 
ATOM      9  O   UNL     1       1.227   0.557   0.051  0.00  0.00    +0.000 OA
ATOM     10  H   UNL     1       2.733   0.039   2.008  0.00  0.00    +0.000 HD
ATOM     11  H   UNL     1       4.190  -0.011   1.028  0.00  0.00    +0.000 HD
ENDBRANCH   1   8
BRANCH   4  12
ATOM     12  O   UNL     1       5.288   0.851  -4.740  0.00  0.00    +0.000 OA
BRANCH  12  13
ATOM     13  C   UNL     1       4.796   1.805  -5.686  0.00  0.00    +0.000 C 
BRANCH  13  14
ATOM     14  C   UNL     1       5.774   1.856  -6.876  0.00  0.00    +0.000 C 
ATOM     15  C   UNL     1       7.197   2.234  -6.426  0.00  0.00    +0.000 C 
ATOM     16  C   UNL     1       8.161   2.336  -7.607  0.00  0.00    +0.000 C 
ATOM     17  C   UNL     1       7.648   3.303  -8.668  0.00  0.00    +0.000 C 
ATOM     18  C   UNL     1       6.246   2.924  -9.132  0.00  0.00    +0.000 C 
ATOM     19  C   UNL     1       5.271   2.822  -7.959  0.00  0.00    +0.000 C 
ENDBRANCH  13  14
ENDBRANCH  12  13
ENDBRANCH   4  12
TORSDOF 4
