REMARK  Name = 
REMARK  12 active torsions:
REMARK  status: ('A' for Active; 'I' for Inactive)
REMARK    1  A    between atoms: N_1  and  C_2
REMARK    2  A    between atoms: C_2  and  C_3
REMARK    3  A    between atoms: C_3  and  N_4
REMARK    4  A    between atoms: C_3  and  C_22
REMARK    5  A    between atoms: N_4  and  C_5
REMARK    6  A    between atoms: C_5  and  C_6
REMARK    7  A    between atoms: C_9  and  C_10
REMARK    8  A    between atoms: C_10  and  N_11
REMARK    9  A    between atoms: N_11  and  CA_12
REMARK   10  A    between atoms: CA_12  and  C_13
REMARK   11  A    between atoms: CA_12  and  C_15
REMARK   12  A    between atoms: C_13  and  O_14
REMARK                            x       y       z     vdW  Elec       q    Type
REMARK                         _______ _______ _______ _____ _____    ______ ____
ROOT
ATOM      1  C   UNL     1       0.950  -2.440  -0.124  0.00  0.00    +0.000 C 
ENDROOT
BRANCH   1   2
ATOM      2  C   UNL     1       0.498  -3.730  -0.765  0.00  0.00    +0.000 A 
ATOM      3  C   UNL     1       1.101  -4.953  -0.451  0.00  0.00    +0.000 A 
ATOM      4  C   UNL     1       0.702  -6.120  -1.103  0.00  0.00    +0.000 A 
ATOM      5  C   UNL     1      -0.327  -6.093  -2.057  0.00  0.00    +0.000 A 
ATOM      6  C   UNL     1      -0.972  -4.881  -2.324  0.00  0.00    +0.000 A 
ATOM      7  C   UNL     1      -0.560  -3.712  -1.687  0.00  0.00    +0.000 A 
BRANCH   5   8
ATOM      8  C   UNL     1      -0.674  -7.328  -2.852  0.00  0.00    +0.000 C 
BRANCH   8   9
ATOM      9  N   UNL     1      -1.013  -8.446  -1.975  0.00  0.00    +0.000 NA
ATOM     10  H   UNL     1      -1.800  -8.152  -1.388  0.00  0.00    +0.000 HD
BRANCH   9  11
ATOM     11  CA  UNL     1      -1.468  -9.640  -2.731  0.00  0.00    +0.000 C 
BRANCH  11  12
ATOM     12  C   UNL     1      -1.899 -10.681  -1.688  0.00  0.00    +0.000 C 
ATOM     13  N   UNL     1      -2.782 -11.612  -1.948  0.00  0.00    +0.000 NA
ATOM     14  C   UNL     1      -2.862 -12.378  -0.663  0.00  0.00    +0.000 C 
ATOM     15  C   UNL     1      -1.630 -11.977   0.156  0.00  0.00    +0.000 C 
ATOM     16  N   UNL     1      -1.354 -10.691  -0.420  0.00  0.00    +0.000 N 
ATOM     17  H   UNL     1      -0.428 -10.282  -0.321  0.00  0.00    +0.000 HD
ENDBRANCH  11  12
BRANCH  11  18
ATOM     18  C   UNL     1      -0.367 -10.253  -3.619  0.00  0.00    +0.000 C 
BRANCH  18  19
ATOM     19  O   UNL     1       0.802 -10.587  -2.863  0.00  0.00    +0.000 OA
ATOM     20  H   UNL     1       0.857  -9.918  -2.156  0.00  0.00    +0.000 HD
ENDBRANCH  18  19
ENDBRANCH  11  18
ENDBRANCH   9  11
ENDBRANCH   8   9
ENDBRANCH   5   8
ENDBRANCH   1   2
BRANCH   1  21
ATOM     21  N   UNL     1       2.352  -2.126  -0.419  0.00  0.00    +0.000 NA
ATOM     22  H   UNL     1       2.935  -2.875  -0.050  0.00  0.00    +0.000 HD
BRANCH  21  23
ATOM     23  C   UNL     1       2.786  -0.862   0.218  0.00  0.00    +0.000 C 
BRANCH  23  24
ATOM     24  C   UNL     1       4.297  -0.722  -0.023  0.00  0.00    +0.000 A 
ATOM     25  C   UNL     1       4.854  -0.564  -1.282  0.00  0.00    +0.000 A 
ATOM     26  S   UNL     1       6.551  -0.405  -1.286  0.00  0.00    +0.000 S 
ATOM     27  C   UNL     1       6.625  -0.557   0.411  0.00  0.00    +0.000 A 
ATOM     28  N   UNL     1       7.819  -0.497   1.064  0.00  0.00    +0.000 NA
ATOM     29  C   UNL     1       7.734  -0.586   2.341  0.00  0.00    +0.000 A 
ATOM     30  N   UNL     1       6.566  -0.768   3.025  0.00  0.00    +0.000 N 
ATOM     31  C   UNL     1       5.335  -0.918   2.408  0.00  0.00    +0.000 A 
ATOM     32  O   UNL     1       4.325  -1.184   3.050  0.00  0.00    +0.000 OA
ATOM     33  C   UNL     1       5.369  -0.744   0.968  0.00  0.00    +0.000 A 
ATOM     34  H   UNL     1       6.573  -0.873   4.039  0.00  0.00    +0.000 HD
ENDBRANCH  23  24
BRANCH  23  35
ATOM     35  C   UNL     1       1.957   0.383  -0.272  0.00  0.00    +0.000 C 
BRANCH  35  36
ATOM     36  N   UNL     1       1.951   0.665  -1.725  0.00  0.00    +0.000 NA
ATOM     37  H   UNL     1       1.291   1.412  -1.930  0.00  0.00    +0.000 HD
ATOM     38  H   UNL     1       1.630  -0.168  -2.221  0.00  0.00    +0.000 HD
ENDBRANCH  35  36
ENDBRANCH  23  35
ENDBRANCH  21  23
ENDBRANCH   1  21
TORSDOF 12
