REMARK  Name = 
REMARK  9 active torsions:
REMARK  status: ('A' for Active; 'I' for Inactive)
REMARK    1  A    between atoms: C_1  and  O_2
REMARK    2  A    between atoms: O_2  and  C_3
REMARK    3  A    between atoms: C_10  and  C_11
REMARK    4  A    between atoms: N_13  and  C_14
REMARK    5  A    between atoms: C_14  and  C_15
REMARK    6  A    between atoms: C_18  and  C_19
REMARK    7  A    between atoms: C_19  and  N_20
REMARK    8  A    between atoms: N_20  and  C_21
REMARK    9  A    between atoms: C_21  and  C_22
REMARK                            x       y       z     vdW  Elec       q    Type
REMARK                         _______ _______ _______ _____ _____    ______ ____
ROOT
ATOM      1  C   UNL     1       3.268  -3.237   1.010  0.00  0.00    +0.000 C 
ENDROOT
BRANCH   1   2
ATOM      2  C   UNL     1       2.277  -2.841   2.078  0.00  0.00    +0.000 A 
ATOM      3  C   UNL     1       1.410  -3.793   2.630  0.00  0.00    +0.000 A 
ATOM      4  C   UNL     1       0.465  -3.422   3.592  0.00  0.00    +0.000 A 
ATOM      5  C   UNL     1       0.361  -2.091   4.023  0.00  0.00    +0.000 A 
ATOM      6  C   UNL     1       1.219  -1.137   3.460  0.00  0.00    +0.000 A 
ATOM      7  C   UNL     1       2.164  -1.508   2.495  0.00  0.00    +0.000 A 
BRANCH   5   8
ATOM      8  C   UNL     1      -0.672  -1.697   5.056  0.00  0.00    +0.000 C 
BRANCH   8   9
ATOM      9  N   UNL     1      -0.462  -2.416   6.310  0.00  0.00    +0.000 NA
ATOM     10  H   UNL     1       0.476  -2.212   6.654  0.00  0.00    +0.000 HD
BRANCH   9  11
ATOM     11  C   UNL     1      -1.438  -2.030   7.326  0.00  0.00    +0.000 C 
BRANCH  11  12
ATOM     12  C   UNL     1      -1.180  -2.761   8.622  0.00  0.00    +0.000 A 
ATOM     13  C   UNL     1      -0.895  -2.067   9.801  0.00  0.00    +0.000 A 
ATOM     14  C   UNL     1      -0.658  -2.792  10.960  0.00  0.00    +0.000 A 
ATOM     15  N   UNL     1      -0.687  -4.140  11.025  0.00  0.00    +0.000 NA
ATOM     16  C   UNL     1      -0.966  -4.793   9.877  0.00  0.00    +0.000 A 
ATOM     17  C   UNL     1      -1.221  -4.159   8.672  0.00  0.00    +0.000 A 
ENDBRANCH  11  12
ENDBRANCH   9  11
ENDBRANCH   8   9
ENDBRANCH   5   8
ENDBRANCH   1   2
BRANCH   1  20
ATOM     18  C   UNL     1       3.351  -3.452  -1.443  0.00  0.00    +0.000 C 
ATOM     19  O   UNL     1       4.505  -3.874  -1.403  0.00  0.00    +0.000 OA
ATOM     20  N   UNL     1       2.675  -3.127  -0.300  0.00  0.00    +0.000 N 
ATOM     21  H   UNL     1       1.730  -2.774  -0.352  0.00  0.00    +0.000 HD
BRANCH  18  29
ATOM     22  C   UNL     1       0.166  -2.432  -2.271  0.00  0.00    +0.000 A 
ATOM     23  N   UNL     1      -0.966  -2.004  -2.864  0.00  0.00    +0.000 NA
ATOM     24  C   UNL     1      -0.999  -1.968  -4.199  0.00  0.00    +0.000 A 
ATOM     25  N   UNL     1      -0.029  -2.328  -5.034  0.00  0.00    +0.000 NA
ATOM     26  C   UNL     1       1.085  -2.736  -4.402  0.00  0.00    +0.000 A 
ATOM     27  S   UNL     1       2.424  -3.246  -5.310  0.00  0.00    +0.000 S 
ATOM     28  C   UNL     1       3.328  -3.546  -3.903  0.00  0.00    +0.000 A 
ATOM     29  C   UNL     1       2.647  -3.262  -2.724  0.00  0.00    +0.000 A 
ATOM     30  C   UNL     1       1.291  -2.805  -3.027  0.00  0.00    +0.000 A 
BRANCH  22  32
ATOM     31  C   UNL     1      -1.082  -2.591  -0.298  0.00  0.00    +0.000 C 
ATOM     32  O   UNL     1       0.206  -2.455  -0.893  0.00  0.00    +0.000 OA
ENDBRANCH  22  32
ENDBRANCH  18  29
ENDBRANCH   1  20
TORSDOF 8
