REMARK  Name = 
REMARK  8 active torsions:
REMARK  status: ('A' for Active; 'I' for Inactive)
REMARK    1  A    between atoms: C_2  and  C_3
REMARK    2  A    between atoms: C_5  and  C_6
REMARK    3  A    between atoms: C_6  and  N_7
REMARK    4  A    between atoms: C_8  and  C_10
REMARK    5  A    between atoms: C_22  and  C_23
REMARK    6  A    between atoms: C_23  and  N_24
REMARK    7  A    between atoms: N_24  and  C_25
REMARK    8  A    between atoms: C_25  and  C_26
REMARK                            x       y       z     vdW  Elec       q    Type
REMARK                         _______ _______ _______ _____ _____    ______ ____
ROOT
ATOM      1  C   UNL     1       0.531   0.113  -0.097  0.00  0.00    +0.000 A 
ATOM      2  C   UNL     1      -0.162   1.333  -0.075  0.00  0.00    +0.000 A 
ATOM      3  C   UNL     1      -1.556   1.359   0.003  0.00  0.00    +0.000 A 
ATOM      4  C   UNL     1      -2.200   0.134   0.087  0.00  0.00    +0.000 A 
ATOM      5  N   UNL     1      -1.560  -1.060   0.098  0.00  0.00    +0.000 NA
ATOM      6  C   UNL     1      -0.198  -1.075  -0.004  0.00  0.00    +0.000 A 
ENDROOT
BRANCH   1   8
ATOM      7  N   UNL     1       3.109   0.210  -0.331  0.00  0.00    +0.000 NA
ATOM      8  C   UNL     1       1.955   0.148  -0.223  0.00  0.00    +0.000 C 
ENDBRANCH   1   8
BRANCH   3   9
ATOM      9  C   UNL     1      -2.311   2.655   0.042  0.00  0.00    +0.000 C 
BRANCH   9  10
ATOM     10  N   UNL     1      -2.464   3.132   1.392  0.00  0.00    +0.000 N 
ATOM     11  C   UNL     1      -3.196   4.260   1.671  0.00  0.00    +0.000 C 
ATOM     12  O   UNL     1      -3.779   4.886   0.791  0.00  0.00    +0.000 OA
ATOM     13  H   UNL     1      -1.813   2.786   2.092  0.00  0.00    +0.000 HD
BRANCH  11  14
ATOM     14  C   UNL     1      -3.299   4.643   3.085  0.00  0.00    +0.000 A 
ATOM     15  C   UNL     1      -4.369   5.420   3.511  0.00  0.00    +0.000 A 
ATOM     16  S   UNL     1      -4.364   5.734   5.187  0.00  0.00    +0.000 S 
ATOM     17  C   UNL     1      -2.902   4.888   5.396  0.00  0.00    +0.000 A 
ATOM     18  N   UNL     1      -2.317   4.798   6.621  0.00  0.00    +0.000 NA
ATOM     19  C   UNL     1      -1.197   4.156   6.631  0.00  0.00    +0.000 A 
ATOM     20  N   UNL     1      -0.613   3.587   5.527  0.00  0.00    +0.000 N 
ATOM     21  C   UNL     1      -1.186   3.618   4.279  0.00  0.00    +0.000 A 
ATOM     22  O   UNL     1      -0.671   3.053   3.324  0.00  0.00    +0.000 OA
ATOM     23  C   UNL     1      -2.438   4.352   4.208  0.00  0.00    +0.000 A 
ATOM     24  H   UNL     1       0.260   3.088   5.608  0.00  0.00    +0.000 HD
ENDBRANCH  11  14
ENDBRANCH   9  10
ENDBRANCH   3   9
BRANCH   6  25
ATOM     25  C   UNL     1       0.460  -2.455   0.040  0.00  0.00    +0.000 C 
BRANCH  25  26
ATOM     26  N   UNL     1      -0.010  -3.336  -1.035  0.00  0.00    +0.000 NA
ATOM     27  H   UNL     1       0.235  -2.938  -1.940  0.00  0.00    +0.000 HD
BRANCH  26  28
ATOM     28  C   UNL     1       0.571  -4.681  -0.945  0.00  0.00    +0.000 C 
BRANCH  28  29
ATOM     29  C   UNL     1       0.089  -5.585  -2.069  0.00  0.00    +0.000 A 
ATOM     30  C   UNL     1      -1.270  -5.874  -2.203  0.00  0.00    +0.000 A 
ATOM     31  C   UNL     1      -1.689  -6.693  -3.248  0.00  0.00    +0.000 A 
ATOM     32  C   UNL     1      -0.746  -7.207  -4.129  0.00  0.00    +0.000 A 
ATOM     33  C   UNL     1       0.583  -6.875  -3.927  0.00  0.00    +0.000 A 
ATOM     34  N   UNL     1       1.021  -6.079  -2.924  0.00  0.00    +0.000 NA
ENDBRANCH  28  29
ENDBRANCH  26  28
ENDBRANCH  25  26
ENDBRANCH   6  25
TORSDOF 8
