REMARK  Name = 
REMARK  5 active torsions:
REMARK  status: ('A' for Active; 'I' for Inactive)
REMARK    1  A    between atoms: C_2  and  C_4
REMARK    2  A    between atoms: C_7  and  N_8
REMARK    3  A    between atoms: N_8  and  C_9
REMARK    4  A    between atoms: C_9  and  C_10
REMARK    5  A    between atoms: C_15  and  C_16
REMARK                            x       y       z     vdW  Elec       q    Type
REMARK                         _______ _______ _______ _____ _____    ______ ____
ROOT
ATOM      1  C   UNL     1       4.830   3.505   4.826  0.00  0.00    +0.000 C 
ENDROOT
BRANCH   1   2
ATOM      2  C   UNL     1       5.591   4.615   5.516  0.00  0.00    +0.000 A 
ATOM      3  C   UNL     1       5.239   5.954   5.342  0.00  0.00    +0.000 A 
ATOM      4  C   UNL     1       5.971   6.944   5.986  0.00  0.00    +0.000 A 
ATOM      5  F   UNL     1       5.626   8.228   5.815  0.00  0.00    +0.000 F 
ATOM      6  C   UNL     1       7.055   6.634   6.801  0.00  0.00    +0.000 A 
ATOM      7  C   UNL     1       7.444   5.303   6.988  0.00  0.00    +0.000 A 
ATOM      8  C   UNL     1       6.696   4.305   6.337  0.00  0.00    +0.000 A 
BRANCH   7   9
ATOM      9  C   UNL     1       8.591   4.963   7.862  0.00  0.00    +0.000 C 
ATOM     10  C   UNL     1       9.376   3.891   7.638  0.00  0.00    +0.000 C 
ATOM     11  C   UNL     1      10.569   3.552   8.482  0.00  0.00    +0.000 C 
ATOM     12  O   UNL     1      10.975   4.637   9.317  0.00  0.00    +0.000 OA
ATOM     13  C   UNL     1       9.868   5.205  10.016  0.00  0.00    +0.000 C 
ATOM     14  C   UNL     1       8.907   5.870   9.030  0.00  0.00    +0.000 C 
ENDBRANCH   7   9
ENDBRANCH   1   2
BRANCH   1  15
ATOM     15  N   UNL     1       4.280   2.621   5.844  0.00  0.00    +0.000 N 
ATOM     16  H   UNL     1       3.459   3.015   6.293  0.00  0.00    +0.000 HD
BRANCH  15  20
ATOM     17  C   UNL     1       3.868  -1.369   4.974  0.00  0.00    +0.000 A 
ATOM     18  C   UNL     1       4.281  -0.472   4.000  0.00  0.00    +0.000 A 
ATOM     19  N   UNL     1       4.388   0.863   4.233  0.00  0.00    +0.000 NA
ATOM     20  C   UNL     1       4.076   1.290   5.474  0.00  0.00    +0.000 A 
ATOM     21  C   UNL     1       3.645   0.365   6.440  0.00  0.00    +0.000 A 
ATOM     22  N   UNL     1       3.519  -0.971   6.226  0.00  0.00    +0.000 NA
BRANCH  17  24
ATOM     23  N   UNL     1       3.371  -3.639   5.667  0.00  0.00    +0.000 N 
ATOM     24  C   UNL     1       3.822  -2.823   4.664  0.00  0.00    +0.000 C 
ATOM     25  O   UNL     1       4.161  -3.269   3.578  0.00  0.00    +0.000 OA
ATOM     26  H   UNL     1       3.279  -4.628   5.486  0.00  0.00    +0.000 HD
ATOM     27  H   UNL     1       3.016  -3.243   6.529  0.00  0.00    +0.000 HD
ENDBRANCH  17  24
ENDBRANCH  15  20
ENDBRANCH   1  15
TORSDOF 5
