REMARK  Name = 
REMARK  7 active torsions:
REMARK  status: ('A' for Active; 'I' for Inactive)
REMARK    1  A    between atoms: C_2  and  C_4
REMARK    2  A    between atoms: C_7  and  N_8
REMARK    3  A    between atoms: N_8  and  C_9
REMARK    4  A    between atoms: C_9  and  C_10
REMARK    5  A    between atoms: C_10  and  C_13
REMARK    6  A    between atoms: C_17  and  O_18
REMARK    7  A    between atoms: O_18  and  C_19
REMARK                            x       y       z     vdW  Elec       q    Type
REMARK                         _______ _______ _______ _____ _____    ______ ____
ROOT
ATOM      1  C   UNL     1       6.313   5.114  -1.481  0.00  0.00    +0.000 C 
ENDROOT
BRANCH   1   2
ATOM      2  C   UNL     1       6.934   6.536  -1.492  0.00  0.00    +0.000 C 
ATOM      3  F   UNL     1       5.928   7.416  -1.799  0.00  0.00    +0.000 F 
ATOM      4  F   UNL     1       7.277   6.839  -0.201  0.00  0.00    +0.000 F 
BRANCH   2   5
ATOM      5  C   UNL     1       8.107   6.666  -2.438  0.00  0.00    +0.000 A 
ATOM      6  C   UNL     1       7.889   7.037  -3.773  0.00  0.00    +0.000 A 
ATOM      7  C   UNL     1       8.959   7.166  -4.658  0.00  0.00    +0.000 A 
ATOM      8  C   UNL     1      10.265   6.929  -4.226  0.00  0.00    +0.000 A 
ATOM      9  C   UNL     1      10.500   6.558  -2.905  0.00  0.00    +0.000 A 
ATOM     10  C   UNL     1       9.426   6.433  -2.015  0.00  0.00    +0.000 A 
BRANCH   9  11
ATOM     11  O   UNL     1      11.742   6.342  -2.359  0.00  0.00    +0.000 OA
BRANCH  11  12
ATOM     12  C   UNL     1      12.831   5.948  -3.209  0.00  0.00    +0.000 C 
ATOM     13  C   UNL     1      12.777   4.549  -3.856  0.00  0.00    +0.000 C 
ATOM     14  C   UNL     1      14.208   4.371  -3.338  0.00  0.00    +0.000 C 
ATOM     15  N   UNL     1      13.967   5.467  -2.391  0.00  0.00    +0.000 NA
ATOM     16  H   UNL     1      14.726   6.137  -2.296  0.00  0.00    +0.000 HD
ENDBRANCH  11  12
ENDBRANCH   9  11
ENDBRANCH   2   5
ENDBRANCH   1   2
BRANCH   1  17
ATOM     17  N   UNL     1       5.731   4.690  -2.774  0.00  0.00    +0.000 N 
ATOM     18  H   UNL     1       5.188   5.419  -3.234  0.00  0.00    +0.000 HD
BRANCH  17  22
ATOM     19  C   UNL     1       4.133   0.816  -3.328  0.00  0.00    +0.000 A 
ATOM     20  C   UNL     1       4.080   1.776  -4.343  0.00  0.00    +0.000 A 
ATOM     21  C   UNL     1       4.579   3.065  -4.115  0.00  0.00    +0.000 A 
ATOM     22  C   UNL     1       5.133   3.426  -2.875  0.00  0.00    +0.000 A 
ATOM     23  C   UNL     1       5.160   2.436  -1.874  0.00  0.00    +0.000 A 
ATOM     24  F   UNL     1       5.673   2.696  -0.662  0.00  0.00    +0.000 F 
ATOM     25  C   UNL     1       4.653   1.157  -2.082  0.00  0.00    +0.000 A 
BRANCH  19  27
ATOM     26  N   UNL     1       3.772  -1.083  -4.797  0.00  0.00    +0.000 N 
ATOM     27  C   UNL     1       3.662  -0.576  -3.533  0.00  0.00    +0.000 C 
ATOM     28  O   UNL     1       3.246  -1.257  -2.606  0.00  0.00    +0.000 OA
ATOM     29  H   UNL     1       3.583  -2.073  -4.892  0.00  0.00    +0.000 HD
ATOM     30  H   UNL     1       4.359  -0.652  -5.498  0.00  0.00    +0.000 HD
ENDBRANCH  19  27
ENDBRANCH  17  22
ENDBRANCH   1  17
TORSDOF 7
