REMARK  Name = 
REMARK  3 active torsions:
REMARK  status: ('A' for Active; 'I' for Inactive)
REMARK    1  A    between atoms: C_2  and  C_4
REMARK    2  A    between atoms: N_8  and  C_9
REMARK    3  A    between atoms: C_9  and  C_10
REMARK                            x       y       z     vdW  Elec       q    Type
REMARK                         _______ _______ _______ _____ _____    ______ ____
ROOT
ATOM      1  C   UNL     1       3.181  -0.604   1.246  0.00  0.00    +0.000 A 
ATOM      2  C   UNL     1       3.602   0.563   1.872  0.00  0.00    +0.000 A 
ATOM      3  C   UNL     1       4.293   0.469   3.080  0.00  0.00    +0.000 A 
ATOM      4  C   UNL     1       4.523  -0.782   3.653  0.00  0.00    +0.000 A 
ATOM      5  N   UNL     1       5.153  -0.807   4.897  0.00  0.00    +0.000 N 
ATOM      6  N   UNL     1       4.111  -1.920   3.062  0.00  0.00    +0.000 NA
ATOM      7  C   UNL     1       3.452  -1.810   1.877  0.00  0.00    +0.000 A 
ATOM      8  H   UNL     1       6.089  -0.419   4.830  0.00  0.00    +0.000 HD
ENDROOT
BRANCH   1  10
ATOM      9  N   UNL     1       2.573   0.478  -0.845  0.00  0.00    +0.000 N 
ATOM     10  C   UNL     1       2.433  -0.610  -0.027  0.00  0.00    +0.000 C 
ATOM     11  O   UNL     1       1.738  -1.561  -0.357  0.00  0.00    +0.000 OA
ATOM     12  H   UNL     1       2.124   0.421  -1.751  0.00  0.00    +0.000 HD
ATOM     13  H   UNL     1       3.298   1.171  -0.725  0.00  0.00    +0.000 HD
ENDBRANCH   1  10
BRANCH   5  14
ATOM     14  C   UNL     1       5.113  -2.063   5.624  0.00  0.00    +0.000 C 
BRANCH  14  15
ATOM     15  C   UNL     1       5.424  -1.758   7.065  0.00  0.00    +0.000 A 
ATOM     16  C   UNL     1       6.698  -1.931   7.610  0.00  0.00    +0.000 A 
ATOM     17  C   UNL     1       6.933  -1.574   8.935  0.00  0.00    +0.000 A 
ATOM     18  C   UNL     1       5.883  -1.051   9.673  0.00  0.00    +0.000 A 
ATOM     19  N   UNL     1       4.640  -0.864   9.182  0.00  0.00    +0.000 NA
ATOM     20  C   UNL     1       4.442  -1.214   7.891  0.00  0.00    +0.000 A 
ENDBRANCH  14  15
ENDBRANCH   5  14
TORSDOF 3
