REMARK  Name = 
REMARK  5 active torsions:
REMARK  status: ('A' for Active; 'I' for Inactive)
REMARK    1  A    between atoms: C_2  and  C_5
REMARK    2  A    between atoms: C_7  and  C_8
REMARK    3  A    between atoms: N_13  and  C_14
REMARK    4  A    between atoms: C_14  and  C_15
REMARK    5  A    between atoms: C_24  and  C_25
REMARK                            x       y       z     vdW  Elec       q    Type
REMARK                         _______ _______ _______ _____ _____    ______ ____
ROOT
ATOM      1  C   UNL     1       5.073  -0.528  -4.120  0.00  0.00    +0.000 A 
ATOM      2  C   UNL     1       6.321  -0.060  -3.756  0.00  0.00    +0.000 A 
ATOM      3  C   UNL     1       7.141   0.339  -4.778  0.00  0.00    +0.000 A 
ATOM      4  N   UNL     1       6.785   0.276  -6.068  0.00  0.00    +0.000 NA
ATOM      5  C   UNL     1       5.539  -0.126  -6.339  0.00  0.00    +0.000 A 
ATOM      6  N   UNL     1       5.183  -0.068  -7.669  0.00  0.00    +0.000 N 
ATOM      7  N   UNL     1       4.668  -0.544  -5.409  0.00  0.00    +0.000 NA
ATOM      8  H   UNL     1       5.774  -0.713  -8.184  0.00  0.00    +0.000 HD
ENDROOT
BRANCH   1  11
ATOM      9  C   UNL     1       3.259  -1.174  -0.830  0.00  0.00    +0.000 A 
ATOM     10  C   UNL     1       4.061  -0.580  -1.818  0.00  0.00    +0.000 A 
ATOM     11  C   UNL     1       4.133  -1.089  -3.126  0.00  0.00    +0.000 A 
ATOM     12  C   UNL     1       3.328  -2.201  -3.437  0.00  0.00    +0.000 A 
ATOM     13  C   UNL     1       2.516  -2.821  -2.470  0.00  0.00    +0.000 A 
ATOM     14  C   UNL     1       2.488  -2.295  -1.168  0.00  0.00    +0.000 A 
BRANCH   9  16
ATOM     15  F   UNL     1       4.102   0.412   0.765  0.00  0.00    +0.000 F 
ATOM     16  C   UNL     1       3.255  -0.639   0.583  0.00  0.00    +0.000 C 
ATOM     17  F   UNL     1       3.631  -1.581   1.490  0.00  0.00    +0.000 F 
ATOM     18  F   UNL     1       2.027  -0.206   0.974  0.00  0.00    +0.000 F 
ENDBRANCH   9  16
BRANCH  13  19
ATOM     19  C   UNL     1       1.719  -4.063  -2.794  0.00  0.00    +0.000 C 
ATOM     20  F   UNL     1       1.868  -4.491  -4.078  0.00  0.00    +0.000 F 
ATOM     21  F   UNL     1       2.071  -5.117  -2.006  0.00  0.00    +0.000 F 
ATOM     22  F   UNL     1       0.382  -3.888  -2.608  0.00  0.00    +0.000 F 
ENDBRANCH  13  19
ENDBRANCH   1  11
BRANCH   6  23
ATOM     23  C   UNL     1       3.777  -0.114  -7.983  0.00  0.00    +0.000 C 
BRANCH  23  24
ATOM     24  C   UNL     1       3.586   0.458  -9.365  0.00  0.00    +0.000 A 
ATOM     25  C   UNL     1       4.050   1.742  -9.694  0.00  0.00    +0.000 A 
ATOM     26  C   UNL     1       3.851   2.249 -10.974  0.00  0.00    +0.000 A 
ATOM     27  C   UNL     1       3.188   1.447 -11.882  0.00  0.00    +0.000 A 
ATOM     28 CL   UNL     1       2.898   1.987 -13.486  0.00  0.00    +0.000 Cl
ATOM     29  N   UNL     1       2.712   0.205 -11.611  0.00  0.00    +0.000 NA
ATOM     30  C   UNL     1       2.926  -0.254 -10.359  0.00  0.00    +0.000 A 
ENDBRANCH  23  24
ENDBRANCH   6  23
TORSDOF 5
