REMARK  Name = 
REMARK  5 active torsions:
REMARK  status: ('A' for Active; 'I' for Inactive)
REMARK    1  A    between atoms: C_2  and  C_4
REMARK    2  A    between atoms: C_7  and  N_8
REMARK    3  A    between atoms: N_8  and  C_9
REMARK    4  A    between atoms: C_9  and  C_10
REMARK    5  A    between atoms: C_14  and  C_15
REMARK                            x       y       z     vdW  Elec       q    Type
REMARK                         _______ _______ _______ _____ _____    ______ ____
ROOT
ATOM      1  N   UNL     1       5.478   4.388   1.820  0.00  0.00    +0.000 N 
ATOM      2  H   UNL     1       5.602   4.732   0.871  0.00  0.00    +0.000 HD
ENDROOT
BRANCH   1   6
ATOM      3  C   UNL     1       4.863   0.231   2.129  0.00  0.00    +0.000 A 
ATOM      4  C   UNL     1       4.232   1.088   3.032  0.00  0.00    +0.000 A 
ATOM      5  C   UNL     1       4.391   2.473   2.912  0.00  0.00    +0.000 A 
ATOM      6  C   UNL     1       5.168   3.036   1.893  0.00  0.00    +0.000 A 
ATOM      7  C   UNL     1       5.801   2.158   0.999  0.00  0.00    +0.000 A 
ATOM      8  C   UNL     1       5.655   0.769   1.113  0.00  0.00    +0.000 A 
BRANCH   3  10
ATOM      9  N   UNL     1       3.645  -1.738   2.885  0.00  0.00    +0.000 N 
ATOM     10  C   UNL     1       4.761  -1.245   2.263  0.00  0.00    +0.000 C 
ATOM     11  O   UNL     1       5.619  -1.994   1.818  0.00  0.00    +0.000 OA
ATOM     12  H   UNL     1       3.547  -2.745   2.901  0.00  0.00    +0.000 HD
ATOM     13  H   UNL     1       2.821  -1.181   3.050  0.00  0.00    +0.000 HD
ENDBRANCH   3  10
ENDBRANCH   1   6
BRANCH   1  14
ATOM     14  C   UNL     1       4.917   5.364   2.742  0.00  0.00    +0.000 C 
BRANCH  14  15
ATOM     15  C   UNL     1       5.827   6.554   2.839  0.00  0.00    +0.000 A 
ATOM     16  C   UNL     1       5.359   7.839   2.615  0.00  0.00    +0.000 A 
ATOM     17  N   UNL     1       6.121   8.943   2.736  0.00  0.00    +0.000 NA
ATOM     18  C   UNL     1       7.415   8.757   3.104  0.00  0.00    +0.000 A 
ATOM     19  C   UNL     1       8.010   7.523   3.378  0.00  0.00    +0.000 A 
ATOM     20  C   UNL     1       7.167   6.411   3.237  0.00  0.00    +0.000 A 
BRANCH  19  21
ATOM     21  C   UNL     1       9.425   7.397   3.784  0.00  0.00    +0.000 A 
ATOM     22  C   UNL     1      10.205   6.277   3.457  0.00  0.00    +0.000 A 
ATOM     23  C   UNL     1      11.545   6.199   3.841  0.00  0.00    +0.000 A 
ATOM     24  C   UNL     1      12.087   7.255   4.550  0.00  0.00    +0.000 A 
ATOM     25  N   UNL     1      11.387   8.351   4.900  0.00  0.00    +0.000 NA
ATOM     26  C   UNL     1      10.085   8.390   4.516  0.00  0.00    +0.000 A 
ENDBRANCH  19  21
ENDBRANCH  14  15
ENDBRANCH   1  14
TORSDOF 5
