REMARK  Name = 
REMARK  5 active torsions:
REMARK  status: ('A' for Active; 'I' for Inactive)
REMARK    1  A    between atoms: N_1  and  C_2
REMARK    2  A    between atoms: C_2  and  C_3
REMARK    3  A    between atoms: C_3  and  C_4
REMARK    4  A    between atoms: C_7  and  C_8
REMARK    5  A    between atoms: C_8  and  N_9
REMARK                            x       y       z     vdW  Elec       q    Type
REMARK                         _______ _______ _______ _____ _____    ______ ____
ROOT
ATOM      1  C   UNL     1       4.377   1.423  -0.064  0.00  0.00    +0.000 A 
ATOM      2  C   UNL     1       5.041   2.656  -0.048  0.00  0.00    +0.000 A 
ATOM      3  C   UNL     1       6.437   2.711   0.015  0.00  0.00    +0.000 A 
ATOM      4  C   UNL     1       7.199   1.536   0.055  0.00  0.00    +0.000 A 
ATOM      5  C   UNL     1       6.532   0.303   0.013  0.00  0.00    +0.000 A 
ATOM      6  C   UNL     1       5.137   0.248  -0.052  0.00  0.00    +0.000 A 
ENDROOT
BRANCH   1   7
ATOM      7  C   UNL     1       2.867   1.363  -0.072  0.00  0.00    +0.000 C 
BRANCH   7   8
ATOM      8  C   UNL     1       2.274   1.370  -1.483  0.00  0.00    +0.000 C 
BRANCH   8   9
ATOM      9  N   UNL     1       0.812   1.347  -1.432  0.00  0.00    +0.000 NA
ATOM     10  H   UNL     1       0.438   1.388  -2.380  0.00  0.00    +0.000 HD
ATOM     11  H   UNL     1       0.471   2.184  -0.957  0.00  0.00    +0.000 HD
ENDBRANCH   8   9
ENDBRANCH   7   8
ENDBRANCH   1   7
BRANCH   4  12
ATOM     12  C   UNL     1       8.702   1.592   0.144  0.00  0.00    +0.000 C 
BRANCH  12  13
ATOM     13  N   UNL     1       9.179   1.605   1.517  0.00  0.00    +0.000 N 
ATOM     14  C   UNL     1       9.454   0.488   2.263  0.00  0.00    +0.000 A 
ATOM     15  N   UNL     1      10.022   0.790   3.408  0.00  0.00    +0.000 NA
ATOM     16  C   UNL     1      10.125   2.151   3.404  0.00  0.00    +0.000 A 
ATOM     17  N   UNL     1      10.687   2.891   4.384  0.00  0.00    +0.000 NA
ATOM     18  C   UNL     1      10.696   4.220   4.146  0.00  0.00    +0.000 A 
ATOM     19  C   UNL     1      10.177   4.845   3.018  0.00  0.00    +0.000 A 
ATOM     20  C   UNL     1       9.596   4.075   2.012  0.00  0.00    +0.000 A 
ATOM     21  C   UNL     1       9.594   2.698   2.237  0.00  0.00    +0.000 A 
ENDBRANCH  12  13
ENDBRANCH   4  12
TORSDOF 5
