REMARK  Name = 
REMARK  3 active torsions:
REMARK  status: ('A' for Active; 'I' for Inactive)
REMARK    1  A    between atoms: C_2  and  C_4
REMARK    2  A    between atoms: N_8  and  C_9
REMARK    3  A    between atoms: C_9  and  C_10
REMARK                            x       y       z     vdW  Elec       q    Type
REMARK                         _______ _______ _______ _____ _____    ______ ____
ROOT
ATOM      1  C   UNL     1       4.189  -2.346  -0.196  0.00  0.00    +0.000 A 
ATOM      2  C   UNL     1       5.426  -1.969   0.289  0.00  0.00    +0.000 A 
ATOM      3  C   UNL     1       5.682  -2.155   1.646  0.00  0.00    +0.000 A 
ATOM      4  C   UNL     1       4.716  -2.744   2.460  0.00  0.00    +0.000 A 
ATOM      5  N   UNL     1       5.041  -2.957   3.820  0.00  0.00    +0.000 N 
ATOM      6  N   UNL     1       3.525  -3.095   1.931  0.00  0.00    +0.000 NA
ATOM      7  N   UNL     1       3.244  -2.886   0.601  0.00  0.00    +0.000 NA
ATOM      8  H   UNL     1       5.174  -2.058   4.275  0.00  0.00    +0.000 HD
ENDROOT
BRANCH   1  10
ATOM      9  N   UNL     1       2.544  -2.474  -1.978  0.00  0.00    +0.000 N 
ATOM     10  C   UNL     1       3.836  -2.173  -1.634  0.00  0.00    +0.000 C 
ATOM     11  O   UNL     1       4.646  -1.780  -2.460  0.00  0.00    +0.000 OA
ATOM     12  H   UNL     1       2.257  -2.377  -2.940  0.00  0.00    +0.000 HD
ATOM     13  H   UNL     1       1.880  -2.796  -1.283  0.00  0.00    +0.000 HD
ENDBRANCH   1  10
BRANCH   5  14
ATOM     14  C   UNL     1       4.459  -4.021   4.667  0.00  0.00    +0.000 C 
ATOM     15  C   UNL     1       4.355  -5.427   4.090  0.00  0.00    +0.000 C 
ATOM     16  C   UNL     1       3.109  -4.674   4.439  0.00  0.00    +0.000 C 
BRANCH  14  17
ATOM     17  C   UNL     1       4.914  -3.900   6.125  0.00  0.00    +0.000 A 
ATOM     18  C   UNL     1       4.202  -3.111   7.048  0.00  0.00    +0.000 A 
ATOM     19  C   UNL     1       4.584  -3.033   8.391  0.00  0.00    +0.000 A 
ATOM     20  C   UNL     1       5.694  -3.744   8.840  0.00  0.00    +0.000 A 
ATOM     21  C   UNL     1       6.425  -4.513   7.941  0.00  0.00    +0.000 A 
ATOM     22 CL   UNL     1       7.794  -5.400   8.489  0.00  0.00    +0.000 Cl
ATOM     23  C   UNL     1       6.049  -4.581   6.599  0.00  0.00    +0.000 A 
ENDBRANCH  14  17
ENDBRANCH   5  14
TORSDOF 3
