REMARK  Name = 
REMARK  7 active torsions:
REMARK  status: ('A' for Active; 'I' for Inactive)
REMARK    1  A    between atoms: C_2  and  C_3
REMARK    2  A    between atoms: C_7  and  N_8
REMARK    3  A    between atoms: N_8  and  C_9
REMARK    4  A    between atoms: C_9  and  C_10
REMARK    5  A    between atoms: C_13  and  C_14
REMARK    6  A    between atoms: C_14  and  N_15
REMARK    7  A    between atoms: C_16  and  C_18
REMARK                            x       y       z     vdW  Elec       q    Type
REMARK                         _______ _______ _______ _____ _____    ______ ____
ROOT
ATOM      1  C   UNL     1      -3.994  -4.048  -0.045  0.00  0.00    +0.000 A 
ATOM      2  C   UNL     1      -3.020  -5.046  -0.047  0.00  0.00    +0.000 A 
ATOM      3  C   UNL     1      -3.421  -6.381  -0.056  0.00  0.00    +0.000 A 
ATOM      4  C   UNL     1      -4.780  -6.697  -0.066  0.00  0.00    +0.000 A 
ATOM      5  C   UNL     1      -5.679  -5.638  -0.099  0.00  0.00    +0.000 A 
ATOM      6  N   UNL     1      -5.321  -4.333  -0.083  0.00  0.00    +0.000 NA
ENDROOT
BRANCH   1   7
ATOM      7  C   UNL     1      -3.597  -2.584  -0.000  0.00  0.00    +0.000 C 
BRANCH   7   8
ATOM      8  N   UNL     1      -3.300  -2.068  -1.321  0.00  0.00    +0.000 N 
ATOM      9  H   UNL     1      -3.623  -2.594  -2.125  0.00  0.00    +0.000 HD
BRANCH   8  14
ATOM     10  C   UNL     1      -2.657   0.833  -3.252  0.00  0.00    +0.000 A 
ATOM     11  C   UNL     1      -2.410   1.840  -2.332  0.00  0.00    +0.000 A 
ATOM     12  C   UNL     1      -2.504   1.522  -0.985  0.00  0.00    +0.000 A 
ATOM     13  C   UNL     1      -2.822   0.215  -0.617  0.00  0.00    +0.000 A 
ATOM     14  C   UNL     1      -3.051  -0.749  -1.596  0.00  0.00    +0.000 A 
ATOM     15  N   UNL     1      -2.980  -0.440  -2.905  0.00  0.00    +0.000 NA
BRANCH  10  17
ATOM     16  N   UNL     1      -2.477   1.356  -5.789  0.00  0.00    +0.000 NA
ATOM     17  C   UNL     1      -2.566   1.096  -4.663  0.00  0.00    +0.000 C 
ENDBRANCH  10  17
ENDBRANCH   8  14
ENDBRANCH   7   8
ENDBRANCH   1   7
BRANCH   4  18
ATOM     18  C   UNL     1      -5.254  -8.118  -0.075  0.00  0.00    +0.000 C 
BRANCH  18  19
ATOM     19  N   UNL     1      -5.433  -8.610  -1.417  0.00  0.00    +0.000 N 
ATOM     20  C   UNL     1      -4.490  -9.368  -2.060  0.00  0.00    +0.000 C 
ATOM     21  O   UNL     1      -3.431  -9.686  -1.527  0.00  0.00    +0.000 OA
ATOM     22  H   UNL     1      -6.199  -8.213  -1.951  0.00  0.00    +0.000 HD
BRANCH  20  23
ATOM     23  C   UNL     1      -4.844  -9.844  -3.404  0.00  0.00    +0.000 A 
ATOM     24  C   UNL     1      -4.210 -10.966  -3.921  0.00  0.00    +0.000 A 
ATOM     25  S   UNL     1      -4.758 -11.408  -5.474  0.00  0.00    +0.000 S 
ATOM     26  C   UNL     1      -5.834 -10.091  -5.529  0.00  0.00    +0.000 A 
ATOM     27  N   UNL     1      -6.610  -9.869  -6.624  0.00  0.00    +0.000 NA
ATOM     28  C   UNL     1      -7.352  -8.816  -6.547  0.00  0.00    +0.000 A 
ATOM     29  N   UNL     1      -7.400  -7.971  -5.468  0.00  0.00    +0.000 N 
ATOM     30  C   UNL     1      -6.684  -8.193  -4.316  0.00  0.00    +0.000 A 
ATOM     31  O   UNL     1      -6.836  -7.486  -3.324  0.00  0.00    +0.000 OA
ATOM     32  C   UNL     1      -5.795  -9.340  -4.368  0.00  0.00    +0.000 A 
ATOM     33  H   UNL     1      -8.023  -7.178  -5.461  0.00  0.00    +0.000 HD
ENDBRANCH  20  23
ENDBRANCH  18  19
ENDBRANCH   4  18
TORSDOF 7
