REMARK  Name = 
REMARK  11 active torsions:
REMARK  status: ('A' for Active; 'I' for Inactive)
REMARK    1  A    between atoms: N_1  and  C_2
REMARK    2  A    between atoms: C_2  and  C_3
REMARK    3  A    between atoms: C_3  and  C_4
REMARK    4  A    between atoms: C_4  and  N_5
REMARK    5  A    between atoms: N_5  and  C_6
REMARK    6  A    between atoms: C_6  and  C_7
REMARK    7  A    between atoms: C_10  and  C_11
REMARK    8  A    between atoms: C_11  and  N_12
REMARK    9  A    between atoms: N_12  and  C_13
REMARK   10  A    between atoms: C_13  and  C_14
REMARK   11  A    between atoms: C_22  and  C_24
REMARK                            x       y       z     vdW  Elec       q    Type
REMARK                         _______ _______ _______ _____ _____    ______ ____
ROOT
ATOM      1  N   UNL     1       4.879   0.606   2.850  0.00  0.00    +0.000 N 
ATOM      2  C   UNL     1       5.858  -0.292   3.373  0.00  0.00    +0.000 C 
ATOM      3  O   UNL     1       6.803  -0.655   2.684  0.00  0.00    +0.000 OA
ENDROOT
BRANCH   2   4
ATOM      4  C   UNL     1       5.714  -0.832   4.760  0.00  0.00    +0.000 A 
ATOM      5  C   UNL     1       4.517  -1.108   5.394  0.00  0.00    +0.000 A 
ATOM      6  S   UNL     1       4.632  -1.882   6.896  0.00  0.00    +0.000 S 
ATOM      7  C   UNL     1       6.318  -1.859   6.791  0.00  0.00    +0.000 A 
ATOM      8  N   UNL     1       7.049  -2.400   7.796  0.00  0.00    +0.000 NA
ATOM      9  C   UNL     1       8.323  -2.340   7.594  0.00  0.00    +0.000 A 
ATOM     10  N   UNL     1       8.916  -1.781   6.502  0.00  0.00    +0.000 N 
ATOM     11  C   UNL     1       8.215  -1.108   5.515  0.00  0.00    +0.000 A 
ATOM     12  O   UNL     1       8.796  -0.398   4.700  0.00  0.00    +0.000 OA
ATOM     13  C   UNL     1       6.773  -1.244   5.637  0.00  0.00    +0.000 A 
ATOM     14  H   UNL     1       9.920  -1.691   6.450  0.00  0.00    +0.000 HD
ENDBRANCH   2   4
BRANCH   1  15
ATOM     15  C   UNL     1       5.178   1.200   1.538  0.00  0.00    +0.000 C 
BRANCH  15  16
ATOM     16  C   UNL     1       4.967   0.338   0.280  0.00  0.00    +0.000 C 
BRANCH  16  17
ATOM     17  C   UNL     1       3.522   0.006  -0.085  0.00  0.00    +0.000 C 
BRANCH  17  18
ATOM     18  N   UNL     1       3.526  -0.753  -1.341  0.00  0.00    +0.000 NA
ATOM     19  H   UNL     1       2.594  -1.112  -1.540  0.00  0.00    +0.000 HD
ATOM     20  H   UNL     1       4.132  -1.569  -1.243  0.00  0.00    +0.000 HD
ENDBRANCH  17  18
ENDBRANCH  16  17
ENDBRANCH  15  16
ENDBRANCH   1  15
BRANCH   1  21
ATOM     21  C   UNL     1       3.941   1.363   3.698  0.00  0.00    +0.000 C 
BRANCH  21  22
ATOM     22  C   UNL     1       2.474   1.088   3.418  0.00  0.00    +0.000 A 
ATOM     23  C   UNL     1       1.897  -0.194   3.455  0.00  0.00    +0.000 A 
ATOM     24  C   UNL     1       0.548  -0.409   3.190  0.00  0.00    +0.000 A 
ATOM     25  C   UNL     1      -0.252   0.648   2.771  0.00  0.00    +0.000 A 
ATOM     26  C   UNL     1       0.285   1.940   2.784  0.00  0.00    +0.000 A 
ATOM     27  C   UNL     1       1.623   2.161   3.130  0.00  0.00    +0.000 A 
BRANCH  25  28
ATOM     28  C   UNL     1      -1.605   0.355   2.177  0.00  0.00    +0.000 C 
BRANCH  28  29
ATOM     29  N   UNL     1      -2.490  -0.328   3.115  0.00  0.00    +0.000 NA
ATOM     30  H   UNL     1      -2.632   0.268   3.929  0.00  0.00    +0.000 HD
BRANCH  29  31
ATOM     31  C   UNL     1      -3.781  -0.600   2.485  0.00  0.00    +0.000 C 
BRANCH  31  32
ATOM     32  C   UNL     1      -4.735  -1.252   3.453  0.00  0.00    +0.000 A 
ATOM     33  C   UNL     1      -5.944  -0.635   3.786  0.00  0.00    +0.000 A 
ATOM     34  C   UNL     1      -6.788  -1.265   4.687  0.00  0.00    +0.000 A 
ATOM     35  N   UNL     1      -6.517  -2.452   5.268  0.00  0.00    +0.000 NA
ATOM     36  C   UNL     1      -5.348  -3.037   4.930  0.00  0.00    +0.000 A 
ATOM     37  C   UNL     1      -4.441  -2.489   4.036  0.00  0.00    +0.000 A 
ENDBRANCH  31  32
ENDBRANCH  29  31
ENDBRANCH  28  29
ENDBRANCH  25  28
ENDBRANCH  21  22
ENDBRANCH   1  21
TORSDOF 11
