REMARK  Name = 
REMARK  9 active torsions:
REMARK  status: ('A' for Active; 'I' for Inactive)
REMARK    1  A    between atoms: C_1  and  O_2
REMARK    2  A    between atoms: O_2  and  C_3
REMARK    3  A    between atoms: C_10  and  C_11
REMARK    4  A    between atoms: N_13  and  C_14
REMARK    5  A    between atoms: C_14  and  C_15
REMARK    6  A    between atoms: C_18  and  C_19
REMARK    7  A    between atoms: C_19  and  O_20
REMARK    8  A    between atoms: O_20  and  C_21
REMARK    9  A    between atoms: C_21  and  C_22
REMARK                            x       y       z     vdW  Elec       q    Type
REMARK                         _______ _______ _______ _____ _____    ______ ____
ROOT
ATOM      1  C   UNL     1       2.725   2.049   2.721  0.00  0.00    +0.000 C 
ENDROOT
BRANCH   1   2
ATOM      2  C   UNL     1       1.608   2.761   2.008  0.00  0.00    +0.000 A 
ATOM      3  C   UNL     1       0.454   2.067   1.619  0.00  0.00    +0.000 A 
ATOM      4  C   UNL     1      -0.550   2.714   0.897  0.00  0.00    +0.000 A 
ATOM      5  C   UNL     1      -0.418   4.065   0.548  0.00  0.00    +0.000 A 
ATOM      6  C   UNL     1       0.729   4.761   0.946  0.00  0.00    +0.000 A 
ATOM      7  C   UNL     1       1.735   4.114   1.666  0.00  0.00    +0.000 A 
BRANCH   5   8
ATOM      8  C   UNL     1      -1.507   4.767  -0.224  0.00  0.00    +0.000 C 
BRANCH   8   9
ATOM      9  O   UNL     1      -2.767   4.690   0.439  0.00  0.00    +0.000 OA
BRANCH   9  10
ATOM     10  C   UNL     1      -2.791   5.434   1.664  0.00  0.00    +0.000 C 
BRANCH  10  11
ATOM     11  C   UNL     1      -4.168   5.418   2.287  0.00  0.00    +0.000 A 
ATOM     12  C   UNL     1      -5.031   4.339   2.091  0.00  0.00    +0.000 A 
ATOM     13  C   UNL     1      -6.268   4.341   2.722  0.00  0.00    +0.000 A 
ATOM     14  C   UNL     1      -6.610   5.406   3.546  0.00  0.00    +0.000 A 
ATOM     15  C   UNL     1      -5.692   6.430   3.703  0.00  0.00    +0.000 A 
ATOM     16  N   UNL     1      -4.485   6.459   3.099  0.00  0.00    +0.000 NA
ENDBRANCH  10  11
ENDBRANCH   9  10
ENDBRANCH   8   9
ENDBRANCH   5   8
ENDBRANCH   1   2
BRANCH   1  19
ATOM     17  C   UNL     1       4.729   0.742   2.186  0.00  0.00    +0.000 C 
ATOM     18  O   UNL     1       4.955   0.570   3.382  0.00  0.00    +0.000 OA
ATOM     19  N   UNL     1       3.648   1.470   1.773  0.00  0.00    +0.000 N 
ATOM     20  H   UNL     1       3.482   1.631   0.788  0.00  0.00    +0.000 HD
BRANCH  17  28
ATOM     21  C   UNL     1       4.676   0.729  -1.272  0.00  0.00    +0.000 A 
ATOM     22  N   UNL     1       4.888   0.527  -2.590  0.00  0.00    +0.000 NA
ATOM     23  C   UNL     1       5.951  -0.193  -2.958  0.00  0.00    +0.000 A 
ATOM     24  N   UNL     1       6.853  -0.750  -2.158  0.00  0.00    +0.000 NA
ATOM     25  C   UNL     1       6.604  -0.535  -0.855  0.00  0.00    +0.000 A 
ATOM     26  S   UNL     1       7.661  -1.176   0.308  0.00  0.00    +0.000 S 
ATOM     27  C   UNL     1       6.731  -0.536   1.575  0.00  0.00    +0.000 A 
ATOM     28  C   UNL     1       5.610   0.170   1.153  0.00  0.00    +0.000 A 
ATOM     29  C   UNL     1       5.542   0.182  -0.307  0.00  0.00    +0.000 A 
BRANCH  21  31
ATOM     30  C   UNL     1       2.830   1.988  -1.996  0.00  0.00    +0.000 C 
ATOM     31  O   UNL     1       3.597   1.503  -0.894  0.00  0.00    +0.000 OA
ENDBRANCH  21  31
ENDBRANCH  17  28
ENDBRANCH   1  19
TORSDOF 8
