REMARK  Name = 
REMARK  5 active torsions:
REMARK  status: ('A' for Active; 'I' for Inactive)
REMARK    1  A    between atoms: N_1  and  S_2
REMARK    2  A    between atoms: S_2  and  C_5
REMARK    3  A    between atoms: C_8  and  N_9
REMARK    4  A    between atoms: N_9  and  C_10
REMARK    5  A    between atoms: C_10  and  C_11
REMARK                            x       y       z     vdW  Elec       q    Type
REMARK                         _______ _______ _______ _____ _____    ______ ____
ROOT
ATOM      1  C   UNL     1       3.197   1.632   0.685  0.00  0.00    +0.000 A 
ATOM      2  C   UNL     1       2.867   2.786  -0.027  0.00  0.00    +0.000 A 
ATOM      3  C   UNL     1       3.113   4.037   0.542  0.00  0.00    +0.000 A 
ATOM      4  C   UNL     1       3.647   4.144   1.833  0.00  0.00    +0.000 A 
ATOM      5  C   UNL     1       4.045   2.975   2.494  0.00  0.00    +0.000 A 
ATOM      6  C   UNL     1       3.803   1.718   1.938  0.00  0.00    +0.000 A 
ENDROOT
BRANCH   1   7
ATOM      7  S   UNL     1       2.855   0.049  -0.011  0.00  0.00    +0.000 S 
ATOM      8  O   UNL     1       1.466   0.009  -0.420  0.00  0.00    +0.000 OA
ATOM      9  O   UNL     1       3.449  -0.981   0.808  0.00  0.00    +0.000 OA
BRANCH   7  10
ATOM     10  N   UNL     1       3.768   0.076  -1.421  0.00  0.00    +0.000 NA
ATOM     11  H   UNL     1       3.183  -0.209  -2.205  0.00  0.00    +0.000 HD
ATOM     12  H   UNL     1       4.605  -0.495  -1.298  0.00  0.00    +0.000 HD
ENDBRANCH   7  10
ENDBRANCH   1   7
BRANCH   4  13
ATOM     13  N   UNL     1       3.862   5.361   2.482  0.00  0.00    +0.000 N 
ATOM     14  H   UNL     1       4.833   5.659   2.407  0.00  0.00    +0.000 HD
BRANCH  13  15
ATOM     15  C   UNL     1       2.945   6.462   2.177  0.00  0.00    +0.000 C 
BRANCH  15  16
ATOM     16  C   UNL     1       2.802   7.376   3.376  0.00  0.00    +0.000 A 
ATOM     17  C   UNL     1       2.371   6.851   4.597  0.00  0.00    +0.000 A 
ATOM     18  C   UNL     1       2.209   7.706   5.681  0.00  0.00    +0.000 A 
ATOM     19  C   UNL     1       2.473   9.060   5.520  0.00  0.00    +0.000 A 
ATOM     20  C   UNL     1       2.892   9.502   4.276  0.00  0.00    +0.000 A 
ATOM     21  N   UNL     1       3.063   8.697   3.204  0.00  0.00    +0.000 NA
ENDBRANCH  15  16
ENDBRANCH  13  15
ENDBRANCH   4  13
TORSDOF 5
