REMARK  Name = 
REMARK  7 active torsions:
REMARK  status: ('A' for Active; 'I' for Inactive)
REMARK    1  A    between atoms: C_2  and  C_4
REMARK    2  A    between atoms: C_7  and  N_8
REMARK    3  A    between atoms: N_8  and  C_9
REMARK    4  A    between atoms: C_9  and  C_10
REMARK    5  A    between atoms: C_10  and  C_13
REMARK    6  A    between atoms: C_17  and  C_18
REMARK    7  A    between atoms: C_22  and  C_23
REMARK                            x       y       z     vdW  Elec       q    Type
REMARK                         _______ _______ _______ _____ _____    ______ ____
ROOT
ATOM      1  C   UNL     1       5.403   6.571  -3.535  0.00  0.00    +0.000 C 
ATOM      2  F   UNL     1       6.738   6.553  -3.255  0.00  0.00    +0.000 F 
ATOM      3  F   UNL     1       5.293   6.140  -4.828  0.00  0.00    +0.000 F 
ENDROOT
BRANCH   1   4
ATOM      4  C   UNL     1       4.799   7.951  -3.327  0.00  0.00    +0.000 A 
ATOM      5  C   UNL     1       3.743   8.403  -4.125  0.00  0.00    +0.000 A 
ATOM      6  C   UNL     1       3.151   9.638  -3.866  0.00  0.00    +0.000 A 
ATOM      7  C   UNL     1       3.600  10.425  -2.802  0.00  0.00    +0.000 A 
ATOM      8  C   UNL     1       4.645   9.997  -1.965  0.00  0.00    +0.000 A 
ATOM      9  C   UNL     1       5.242   8.757  -2.261  0.00  0.00    +0.000 A 
BRANCH   8  10
ATOM     10  C   UNL     1       5.074  10.790  -0.794  0.00  0.00    +0.000 A 
ATOM     11  C   UNL     1       4.167  11.506  -0.009  0.00  0.00    +0.000 A 
ATOM     12  N   UNL     1       4.486  12.223   1.097  0.00  0.00    +0.000 NA
ATOM     13  C   UNL     1       5.784  12.231   1.465  0.00  0.00    +0.000 A 
ATOM     14  C   UNL     1       6.781  11.563   0.776  0.00  0.00    +0.000 A 
ATOM     15  C   UNL     1       6.411  10.844  -0.372  0.00  0.00    +0.000 A 
BRANCH  14  16
ATOM     16  C   UNL     1       8.200  11.597   1.249  0.00  0.00    +0.000 C 
ATOM     17  F   UNL     1       8.386  12.344   2.372  0.00  0.00    +0.000 F 
ATOM     18  F   UNL     1       8.675  10.354   1.548  0.00  0.00    +0.000 F 
ATOM     19  F   UNL     1       9.049  12.105   0.317  0.00  0.00    +0.000 F 
ENDBRANCH  14  16
ENDBRANCH   8  10
ENDBRANCH   1   4
BRANCH   1  20
ATOM     20  C   UNL     1       4.669   5.564  -2.616  0.00  0.00    +0.000 C 
BRANCH  20  21
ATOM     21  N   UNL     1       5.159   4.176  -2.694  0.00  0.00    +0.000 N 
ATOM     22  H   UNL     1       5.396   3.860  -3.634  0.00  0.00    +0.000 HD
BRANCH  21  26
ATOM     23  C   UNL     1       3.475   1.179  -0.236  0.00  0.00    +0.000 A 
ATOM     24  C   UNL     1       2.987   2.483  -0.168  0.00  0.00    +0.000 A 
ATOM     25  C   UNL     1       3.526   3.475  -0.989  0.00  0.00    +0.000 A 
ATOM     26  C   UNL     1       4.540   3.193  -1.915  0.00  0.00    +0.000 A 
ATOM     27  C   UNL     1       5.039   1.883  -1.952  0.00  0.00    +0.000 A 
ATOM     28  C   UNL     1       4.519   0.883  -1.118  0.00  0.00    +0.000 A 
BRANCH  23  30
ATOM     29  N   UNL     1       1.632   0.235   1.039  0.00  0.00    +0.000 N 
ATOM     30  C   UNL     1       2.938   0.112   0.646  0.00  0.00    +0.000 C 
ATOM     31  O   UNL     1       3.615  -0.848   0.987  0.00  0.00    +0.000 OA
ATOM     32  H   UNL     1       1.244  -0.537   1.566  0.00  0.00    +0.000 HD
ATOM     33  H   UNL     1       0.988   0.869   0.589  0.00  0.00    +0.000 HD
ENDBRANCH  23  30
ENDBRANCH  21  26
ENDBRANCH  20  21
ENDBRANCH   1  20
TORSDOF 7
