REMARK  Name = 
REMARK  4 active torsions:
REMARK  status: ('A' for Active; 'I' for Inactive)
REMARK    1  A    between atoms: C_2  and  C_4
REMARK    2  A    between atoms: C_7  and  N_8
REMARK    3  A    between atoms: N_8  and  C_9
REMARK    4  A    between atoms: C_9  and  C_10
REMARK                            x       y       z     vdW  Elec       q    Type
REMARK                         _______ _______ _______ _____ _____    ______ ____
ROOT
ATOM      1  C   UNL     1       3.229  -0.397  -1.142  0.00  0.00    +0.000 A 
ATOM      2  C   UNL     1       2.838   0.165  -2.362  0.00  0.00    +0.000 A 
ATOM      3  C   UNL     1       3.596  -0.065  -3.516  0.00  0.00    +0.000 A 
ATOM      4  C   UNL     1       4.760  -0.840  -3.469  0.00  0.00    +0.000 A 
ATOM      5  C   UNL     1       5.107  -1.443  -2.254  0.00  0.00    +0.000 A 
ATOM      6  C   UNL     1       4.366  -1.206  -1.093  0.00  0.00    +0.000 A 
ENDROOT
BRANCH   1   8
ATOM      7  N   UNL     1       1.164   0.163   0.023  0.00  0.00    +0.000 N 
ATOM      8  C   UNL     1       2.496  -0.129   0.123  0.00  0.00    +0.000 C 
ATOM      9  O   UNL     1       3.047  -0.193   1.213  0.00  0.00    +0.000 OA
ATOM     10  H   UNL     1       0.660   0.242   0.897  0.00  0.00    +0.000 HD
ATOM     11  H   UNL     1       0.631  -0.025  -0.813  0.00  0.00    +0.000 HD
ENDBRANCH   1   8
BRANCH   4  12
ATOM     12  N   UNL     1       5.588  -1.071  -4.566  0.00  0.00    +0.000 N 
ATOM     13  H   UNL     1       5.513  -2.029  -4.901  0.00  0.00    +0.000 HD
BRANCH  12  14
ATOM     14  C   UNL     1       5.633  -0.093  -5.645  0.00  0.00    +0.000 C 
BRANCH  14  15
ATOM     15  C   UNL     1       6.970  -0.162  -6.328  0.00  0.00    +0.000 A 
ATOM     16  C   UNL     1       8.164  -0.019  -5.611  0.00  0.00    +0.000 A 
ATOM     17  C   UNL     1       9.382  -0.030  -6.280  0.00  0.00    +0.000 A 
ATOM     18  C   UNL     1       9.369  -0.179  -7.656  0.00  0.00    +0.000 A 
ATOM     19  N   UNL     1       8.241  -0.318  -8.386  0.00  0.00    +0.000 NA
ATOM     20  C   UNL     1       7.071  -0.303  -7.707  0.00  0.00    +0.000 A 
ENDBRANCH  14  15
ENDBRANCH  12  14
ENDBRANCH   4  12
TORSDOF 4
