REMARK  Name = 
REMARK  6 active torsions:
REMARK  status: ('A' for Active; 'I' for Inactive)
REMARK    1  A    between atoms: C_2  and  C_3
REMARK    2  A    between atoms: C_6  and  N_7
REMARK    3  A    between atoms: N_7  and  C_8
REMARK    4  A    between atoms: C_8  and  C_9
REMARK    5  A    between atoms: C_13  and  C_14
REMARK    6  A    between atoms: C_18  and  C_19
REMARK                            x       y       z     vdW  Elec       q    Type
REMARK                         _______ _______ _______ _____ _____    ______ ____
ROOT
ATOM      1  C   UNL     1       9.840  -0.156   0.688  0.00  0.00    +0.000 A 
ATOM      2  C   UNL     1      10.400  -0.430   1.944  0.00  0.00    +0.000 A 
ATOM      3  C   UNL     1      11.229   0.494   2.576  0.00  0.00    +0.000 A 
ATOM      4  C   UNL     1      11.485   1.725   1.972  0.00  0.00    +0.000 A 
ATOM      5  C   UNL     1      10.932   2.053   0.723  0.00  0.00    +0.000 A 
ATOM      6  C   UNL     1      10.168   1.070   0.079  0.00  0.00    +0.000 A 
ENDROOT
BRANCH   5   7
ATOM      7  C   UNL     1      11.011   3.419   0.174  0.00  0.00    +0.000 A 
ATOM      8  C   UNL     1      11.087   3.703  -1.192  0.00  0.00    +0.000 A 
ATOM      9  N   UNL     1      11.072   4.951  -1.728  0.00  0.00    +0.000 NA
ATOM     10  C   UNL     1      10.980   5.988  -0.859  0.00  0.00    +0.000 A 
ATOM     11  C   UNL     1      10.884   5.827   0.513  0.00  0.00    +0.000 A 
ATOM     12  C   UNL     1      10.909   4.530   1.025  0.00  0.00    +0.000 A 
BRANCH  11  13
ATOM     13  C   UNL     1      10.777   7.013   1.384  0.00  0.00    +0.000 C 
ATOM     14  N   UNL     1      10.204   6.840   2.617  0.00  0.00    +0.000 N 
ATOM     15  O   UNL     1      11.165   8.112   1.016  0.00  0.00    +0.000 OA
ATOM     16  H   UNL     1       9.661   6.027   2.868  0.00  0.00    +0.000 HD
ATOM     17  H   UNL     1      10.081   7.674   3.177  0.00  0.00    +0.000 HD
ENDBRANCH  11  13
ENDBRANCH   5   7
BRANCH   1  18
ATOM     18  C   UNL     1       8.829  -1.086   0.034  0.00  0.00    +0.000 C 
ATOM     19  C   UNL     1       7.521  -1.359   0.770  0.00  0.00    +0.000 C 
ATOM     20  C   UNL     1       7.524  -0.445  -0.406  0.00  0.00    +0.000 C 
BRANCH  18  21
ATOM     21  N   UNL     1       9.409  -2.291  -0.565  0.00  0.00    +0.000 N 
ATOM     22  H   UNL     1       9.895  -2.902   0.088  0.00  0.00    +0.000 HD
BRANCH  21  26
ATOM     23  C   UNL     1      10.569  -2.993  -4.458  0.00  0.00    +0.000 A 
ATOM     24  N   UNL     1      10.126  -1.748  -4.182  0.00  0.00    +0.000 NA
ATOM     25  C   UNL     1       9.770  -1.514  -2.896  0.00  0.00    +0.000 A 
ATOM     26  C   UNL     1       9.857  -2.444  -1.880  0.00  0.00    +0.000 A 
ATOM     27  C   UNL     1      10.313  -3.686  -2.307  0.00  0.00    +0.000 A 
ATOM     28  N   UNL     1      10.685  -3.992  -3.567  0.00  0.00    +0.000 NA
BRANCH  23  30
ATOM     29  N   UNL     1      11.186  -3.555  -6.925  0.00  0.00    +0.000 NA
ATOM     30  C   UNL     1      10.914  -3.294  -5.822  0.00  0.00    +0.000 C 
ENDBRANCH  23  30
ENDBRANCH  21  26
ENDBRANCH  18  21
ENDBRANCH   1  18
TORSDOF 6
