REMARK  Name = 
REMARK  7 active torsions:
REMARK  status: ('A' for Active; 'I' for Inactive)
REMARK    1  A    between atoms: N_1  and  C_2
REMARK    2  A    between atoms: C_2  and  N_3
REMARK    3  A    between atoms: C_2  and  C_16
REMARK    4  A    between atoms: C_4  and  C_6
REMARK    5  A    between atoms: C_19  and  C_20
REMARK    6  A    between atoms: C_20  and  N_21
REMARK    7  A    between atoms: C_22  and  C_24
REMARK                            x       y       z     vdW  Elec       q    Type
REMARK                         _______ _______ _______ _____ _____    ______ ____
ROOT
ATOM      1  C   UNL     1       2.405   0.087  -0.016  0.00  0.00    +0.000 C 
ENDROOT
BRANCH   1   2
ATOM      2  C   UNL     1       2.854   0.181   1.436  0.00  0.00    +0.000 A 
ATOM      3  C   UNL     1       2.988   1.426   2.066  0.00  0.00    +0.000 A 
ATOM      4  C   UNL     1       3.375   1.513   3.412  0.00  0.00    +0.000 A 
ATOM      5  C   UNL     1       3.650   0.358   4.160  0.00  0.00    +0.000 A 
ATOM      6  C   UNL     1       3.508  -0.887   3.537  0.00  0.00    +0.000 A 
ATOM      7  C   UNL     1       3.122  -0.974   2.195  0.00  0.00    +0.000 A 
BRANCH   5   8
ATOM      8  C   UNL     1       4.092   0.448   5.600  0.00  0.00    +0.000 C 
BRANCH   8   9
ATOM      9  N   UNL     1       2.977   0.414   6.523  0.00  0.00    +0.000 N 
ATOM     10  C   UNL     1       3.194   0.437   7.883  0.00  0.00    +0.000 C 
ATOM     11  O   UNL     1       4.322   0.430   8.374  0.00  0.00    +0.000 OA
ATOM     12  H   UNL     1       2.083   0.752   6.182  0.00  0.00    +0.000 HD
BRANCH  10  13
ATOM     13  C   UNL     1       1.952   0.450   8.769  0.00  0.00    +0.000 C 
ATOM     14  C   UNL     1       1.070  -0.769   8.614  0.00  0.00    +0.000 C 
ATOM     15  C   UNL     1       0.079  -0.372   7.539  0.00  0.00    +0.000 C 
ATOM     16  O   UNL     1       0.092   1.060   7.442  0.00  0.00    +0.000 OA
ATOM     17  C   UNL     1       1.017   1.582   8.410  0.00  0.00    +0.000 C 
ENDBRANCH  10  13
ENDBRANCH   8   9
ENDBRANCH   5   8
ENDBRANCH   1   2
BRANCH   1  18
ATOM     18  N   UNL     1       1.254  -0.762  -0.112  0.00  0.00    +0.000 N 
ATOM     19  C   UNL     1       0.584  -1.036  -1.276  0.00  0.00    +0.000 C 
ATOM     20  O   UNL     1       0.960  -0.633  -2.372  0.00  0.00    +0.000 OA
ATOM     21  H   UNL     1       0.682  -0.742   0.725  0.00  0.00    +0.000 HD
BRANCH  19  22
ATOM     22  C   UNL     1      -0.538  -1.971  -1.143  0.00  0.00    +0.000 A 
ATOM     23  C   UNL     1      -0.879  -2.813  -2.192  0.00  0.00    +0.000 A 
ATOM     24  S   UNL     1      -2.147  -3.893  -1.814  0.00  0.00    +0.000 S 
ATOM     25  C   UNL     1      -2.312  -3.239  -0.251  0.00  0.00    +0.000 A 
ATOM     26  N   UNL     1      -3.253  -3.704   0.613  0.00  0.00    +0.000 NA
ATOM     27  C   UNL     1      -3.285  -3.091   1.750  0.00  0.00    +0.000 A 
ATOM     28  N   UNL     1      -2.452  -2.060   2.106  0.00  0.00    +0.000 N 
ATOM     29  C   UNL     1      -1.468  -1.577   1.278  0.00  0.00    +0.000 A 
ATOM     30  O   UNL     1      -0.715  -0.683   1.639  0.00  0.00    +0.000 OA
ATOM     31  C   UNL     1      -1.405  -2.222  -0.018  0.00  0.00    +0.000 A 
ATOM     32  H   UNL     1      -2.522  -1.623   3.014  0.00  0.00    +0.000 HD
ENDBRANCH  19  22
ENDBRANCH   1  18
BRANCH   1  33
ATOM     33  N   UNL     1       3.433  -0.520  -0.833  0.00  0.00    +0.000 NA
ATOM     34  H   UNL     1       3.041  -0.595  -1.775  0.00  0.00    +0.000 HD
ATOM     35  H   UNL     1       3.552  -1.478  -0.521  0.00  0.00    +0.000 HD
ENDBRANCH   1  33
TORSDOF 7
