REMARK  Name = 
REMARK  4 active torsions:
REMARK  status: ('A' for Active; 'I' for Inactive)
REMARK    1  A    between atoms: C_2  and  C_4
REMARK    2  A    between atoms: N_8  and  C_9
REMARK    3  A    between atoms: C_9  and  C_10
REMARK    4  A    between atoms: C_14  and  C_15
REMARK                            x       y       z     vdW  Elec       q    Type
REMARK                         _______ _______ _______ _____ _____    ______ ____
ROOT
ATOM      1  C   UNL     1       3.411   3.241   1.510  0.00  0.00    +0.000 A 
ATOM      2  C   UNL     1       2.681   2.801   2.610  0.00  0.00    +0.000 A 
ATOM      3  C   UNL     1       3.325   2.066   3.610  0.00  0.00    +0.000 A 
ATOM      4  C   UNL     1       4.680   1.778   3.487  0.00  0.00    +0.000 A 
ATOM      5  N   UNL     1       5.376   0.962   4.383  0.00  0.00    +0.000 N 
ATOM      6  N   UNL     1       5.397   2.200   2.423  0.00  0.00    +0.000 NA
ATOM      7  C   UNL     1       4.756   2.912   1.461  0.00  0.00    +0.000 A 
ATOM      8  H   UNL     1       6.345   0.975   4.067  0.00  0.00    +0.000 HD
ENDROOT
BRANCH   1  10
ATOM      9  N   UNL     1       1.676   4.711   0.650  0.00  0.00    +0.000 N 
ATOM     10  C   UNL     1       2.811   3.992   0.392  0.00  0.00    +0.000 C 
ATOM     11  O   UNL     1       3.318   3.994  -0.723  0.00  0.00    +0.000 OA
ATOM     12  H   UNL     1       1.325   5.287  -0.105  0.00  0.00    +0.000 HD
ATOM     13  H   UNL     1       1.366   4.929   1.585  0.00  0.00    +0.000 HD
ENDBRANCH   1  10
BRANCH   5  14
ATOM     14  C   UNL     1       5.162   0.937   5.837  0.00  0.00    +0.000 C 
ATOM     15  C   UNL     1       5.156  -0.458   6.452  0.00  0.00    +0.000 C 
ATOM     16  C   UNL     1       3.913   0.365   6.482  0.00  0.00    +0.000 C 
BRANCH  14  17
ATOM     17  C   UNL     1       5.893   2.049   6.582  0.00  0.00    +0.000 A 
ATOM     18  C   UNL     1       7.208   1.892   7.043  0.00  0.00    +0.000 A 
ATOM     19  C   UNL     1       7.828   2.934   7.709  0.00  0.00    +0.000 A 
ATOM     20  N   UNL     1       7.244   4.126   7.947  0.00  0.00    +0.000 NA
ATOM     21  C   UNL     1       5.973   4.304   7.492  0.00  0.00    +0.000 A 
ATOM     22  C   UNL     1       5.286   3.290   6.818  0.00  0.00    +0.000 A 
BRANCH  21  23
ATOM     23  C   UNL     1       5.266   5.634   7.721  0.00  0.00    +0.000 C 
ATOM     24  F   UNL     1       6.020   6.579   8.349  0.00  0.00    +0.000 F 
ATOM     25  F   UNL     1       4.846   6.208   6.555  0.00  0.00    +0.000 F 
ATOM     26  F   UNL     1       4.137   5.496   8.479  0.00  0.00    +0.000 F 
ENDBRANCH  21  23
ENDBRANCH  14  17
ENDBRANCH   5  14
TORSDOF 4
