REMARK  Name = 
REMARK  9 active torsions:
REMARK  status: ('A' for Active; 'I' for Inactive)
REMARK    1  A    between atoms: C_1  and  C_2
REMARK    2  A    between atoms: C_4  and  C_5
REMARK    3  A    between atoms: C_9  and  C_10
REMARK    4  A    between atoms: C_10  and  C_11
REMARK    5  A    between atoms: C_10  and  C_12
REMARK    6  A    between atoms: C_10  and  C_13
REMARK    7  A    between atoms: C_13  and  N_14
REMARK    8  A    between atoms: N_14  and  C_15
REMARK    9  A    between atoms: C_18  and  C_19
REMARK                            x       y       z     vdW  Elec       q    Type
REMARK                         _______ _______ _______ _____ _____    ______ ____
ROOT
ATOM      1  C   UNL     1      -5.089  -3.775  -1.811  0.00  0.00    +0.000 C 
ATOM      2  C   UNL     1      -5.884  -2.450  -1.680  0.00  0.00    +0.000 C 
ATOM      3  C   UNL     1      -4.576  -3.930  -3.259  0.00  0.00    +0.000 C 
ENDROOT
BRANCH   1   8
ATOM      4  C   UNL     1      -1.963  -2.396   0.013  0.00  0.00    +0.000 A 
ATOM      5  C   UNL     1      -1.835  -3.322   1.058  0.00  0.00    +0.000 A 
ATOM      6  C   UNL     1      -2.666  -4.437   1.139  0.00  0.00    +0.000 A 
ATOM      7  C   UNL     1      -3.682  -4.625   0.203  0.00  0.00    +0.000 A 
ATOM      8  C   UNL     1      -3.885  -3.708  -0.839  0.00  0.00    +0.000 A 
ATOM      9  C   UNL     1      -2.973  -2.638  -0.939  0.00  0.00    +0.000 A 
BRANCH   4  13
ATOM     10  C   UNL     1      -1.231   2.383  -1.358  0.00  0.00    +0.000 C 
ATOM     11  C   UNL     1      -0.749   1.116  -0.720  0.00  0.00    +0.000 A 
ATOM     12  C   UNL     1      -1.576  -0.001  -0.649  0.00  0.00    +0.000 A 
ATOM     13  C   UNL     1      -1.106  -1.195  -0.071  0.00  0.00    +0.000 A 
ATOM     14  C   UNL     1       0.200  -1.180   0.430  0.00  0.00    +0.000 A 
ATOM     15  C   UNL     1       0.953  -0.023   0.333  0.00  0.00    +0.000 A 
ATOM     16  N   UNL     1       0.510   1.118  -0.233  0.00  0.00    +0.000 NA
ENDBRANCH   4  13
ENDBRANCH   1   8
BRANCH   1  17
ATOM     17  C   UNL     1      -6.049  -4.950  -1.458  0.00  0.00    +0.000 C 
BRANCH  17  18
ATOM     18  N   UNL     1      -7.225  -5.047  -2.334  0.00  0.00    +0.000 N 
ATOM     19  H   UNL     1      -6.987  -5.013  -3.322  0.00  0.00    +0.000 HD
BRANCH  18  20
ATOM     20  C   UNL     1      -8.124  -6.091  -2.071  0.00  0.00    +0.000 A 
ATOM     21  C   UNL     1      -8.375  -6.575  -0.783  0.00  0.00    +0.000 A 
ATOM     22  C   UNL     1      -9.338  -7.558  -0.569  0.00  0.00    +0.000 A 
ATOM     23  C   UNL     1     -10.057  -8.019  -1.658  0.00  0.00    +0.000 A 
ATOM     24  N   UNL     1      -9.880  -7.569  -2.931  0.00  0.00    +0.000 NA
ATOM     25  C   UNL     1      -8.934  -6.611  -3.089  0.00  0.00    +0.000 A 
BRANCH  23  26
ATOM     26  C   UNL     1     -11.116  -9.052  -1.447  0.00  0.00    +0.000 C 
ATOM     27  N   UNL     1     -11.782  -9.451  -2.574  0.00  0.00    +0.000 N 
ATOM     28  O   UNL     1     -11.382  -9.513  -0.344  0.00  0.00    +0.000 OA
ATOM     29  H   UNL     1     -11.552  -9.022  -3.465  0.00  0.00    +0.000 HD
ATOM     30  H   UNL     1     -12.533 -10.117  -2.497  0.00  0.00    +0.000 HD
ENDBRANCH  23  26
ENDBRANCH  18  20
ENDBRANCH  17  18
ENDBRANCH   1  17
TORSDOF 6
