REMARK  Name = 
REMARK  6 active torsions:
REMARK  status: ('A' for Active; 'I' for Inactive)
REMARK    1  A    between atoms: N_1  and  C_2
REMARK    2  A    between atoms: C_2  and  C_3
REMARK    3  A    between atoms: C_3  and  C_4
REMARK    4  A    between atoms: C_7  and  C_8
REMARK    5  A    between atoms: C_8  and  N_9
REMARK    6  A    between atoms: C_14  and  C_15
REMARK                            x       y       z     vdW  Elec       q    Type
REMARK                         _______ _______ _______ _____ _____    ______ ____
ROOT
ATOM      1  N   UNL     1       9.642  -0.952  -0.056  0.00  0.00    +0.000 N 
ATOM      2  N   UNL     1      10.043   0.335  -0.185  0.00  0.00    +0.000 NA
ATOM      3  C   UNL     1      10.221   0.465  -1.502  0.00  0.00    +0.000 A 
ATOM      4  C   UNL     1      10.020  -0.746  -2.200  0.00  0.00    +0.000 A 
ATOM      5  C   UNL     1       9.964  -1.144  -3.545  0.00  0.00    +0.000 A 
ATOM      6  C   UNL     1       9.737  -2.500  -3.850  0.00  0.00    +0.000 A 
ATOM      7  C   UNL     1       9.698  -3.451  -2.821  0.00  0.00    +0.000 A 
ATOM      8  C   UNL     1       9.731  -3.065  -1.475  0.00  0.00    +0.000 A 
ATOM      9  C   UNL     1       9.822  -1.695  -1.203  0.00  0.00    +0.000 A 
ENDROOT
BRANCH   6  10
ATOM     10  C   UNL     1       9.456  -2.836  -5.277  0.00  0.00    +0.000 C 
ATOM     11  N   UNL     1       9.253  -4.142  -5.622  0.00  0.00    +0.000 N 
ATOM     12  O   UNL     1       9.357  -1.962  -6.131  0.00  0.00    +0.000 OA
ATOM     13  H   UNL     1       9.307  -4.930  -4.999  0.00  0.00    +0.000 HD
ATOM     14  H   UNL     1       8.988  -4.316  -6.583  0.00  0.00    +0.000 HD
ENDBRANCH   6  10
BRANCH   1  15
ATOM     15  C   UNL     1       8.861  -1.349   1.113  0.00  0.00    +0.000 C 
BRANCH  15  19
ATOM     16  C   UNL     1       4.624  -0.915   0.175  0.00  0.00    +0.000 A 
ATOM     17  C   UNL     1       5.264  -2.154   0.058  0.00  0.00    +0.000 A 
ATOM     18  C   UNL     1       6.616  -2.304   0.391  0.00  0.00    +0.000 A 
ATOM     19  C   UNL     1       7.375  -1.213   0.836  0.00  0.00    +0.000 A 
ATOM     20  C   UNL     1       6.743   0.033   0.947  0.00  0.00    +0.000 A 
ATOM     21  C   UNL     1       5.390   0.180   0.620  0.00  0.00    +0.000 A 
BRANCH  16  22
ATOM     22  C   UNL     1       3.189  -0.674  -0.246  0.00  0.00    +0.000 C 
BRANCH  22  23
ATOM     23  C   UNL     1       2.220  -1.852  -0.066  0.00  0.00    +0.000 C 
BRANCH  23  24
ATOM     24  N   UNL     1       0.858  -1.483  -0.462  0.00  0.00    +0.000 NA
ATOM     25  H   UNL     1       0.251  -2.296  -0.365  0.00  0.00    +0.000 HD
ATOM     26  H   UNL     1       0.845  -1.232  -1.451  0.00  0.00    +0.000 HD
ENDBRANCH  23  24
ENDBRANCH  22  23
ENDBRANCH  16  22
ENDBRANCH  15  19
ENDBRANCH   1  15
TORSDOF 6
