REMARK  Name = 
REMARK  7 active torsions:
REMARK  status: ('A' for Active; 'I' for Inactive)
REMARK    1  A    between atoms: C_1  and  O_2
REMARK    2  A    between atoms: O_2  and  C_3
REMARK    3  A    between atoms: C_5  and  C_6
REMARK    4  A    between atoms: C_11  and  N_12
REMARK    5  A    between atoms: N_12  and  C_13
REMARK    6  A    between atoms: C_13  and  C_14
REMARK    7  A    between atoms: C_18  and  C_19
REMARK                            x       y       z     vdW  Elec       q    Type
REMARK                         _______ _______ _______ _____ _____    ______ ____
ROOT
ATOM      1  N   UNL     1       4.375   1.310  -0.707  0.00  0.00    +0.000 N 
ATOM      2  H   UNL     1       4.364   2.287  -0.423  0.00  0.00    +0.000 HD
ENDROOT
BRANCH   1   8
ATOM      3  C   UNL     1       5.452   0.997   1.475  0.00  0.00    +0.000 A 
ATOM      4  C   UNL     1       5.981   0.142   2.450  0.00  0.00    +0.000 A 
ATOM      5  C   UNL     1       5.992  -1.248   2.268  0.00  0.00    +0.000 A 
ATOM      6  C   UNL     1       5.471  -1.780   1.091  0.00  0.00    +0.000 A 
ATOM      7  C   UNL     1       4.936  -0.933   0.117  0.00  0.00    +0.000 A 
ATOM      8  C   UNL     1       4.908   0.456   0.283  0.00  0.00    +0.000 A 
BRANCH   5   9
ATOM      9  C   UNL     1       6.557  -2.086   3.366  0.00  0.00    +0.000 C 
ATOM     10  N   UNL     1       6.547  -3.448   3.227  0.00  0.00    +0.000 N 
ATOM     11  O   UNL     1       7.015  -1.583   4.384  0.00  0.00    +0.000 OA
ATOM     12  H   UNL     1       6.170  -3.950   2.439  0.00  0.00    +0.000 HD
ATOM     13  H   UNL     1       6.920  -3.986   4.002  0.00  0.00    +0.000 HD
ENDBRANCH   5   9
BRANCH   3  15
ATOM     14  C   UNL     1       6.128   2.927   2.699  0.00  0.00    +0.000 C 
ATOM     15  O   UNL     1       5.396   2.370   1.608  0.00  0.00    +0.000 OA
ENDBRANCH   3  15
ENDBRANCH   1   8
BRANCH   1  16
ATOM     16  C   UNL     1       3.846   0.906  -2.018  0.00  0.00    +0.000 C 
ATOM     17  C   UNL     1       2.441   1.411  -2.347  0.00  0.00    +0.000 C 
ATOM     18  C   UNL     1       2.666  -0.048  -2.147  0.00  0.00    +0.000 C 
BRANCH  16  19
ATOM     19  C   UNL     1       4.865   0.860  -3.163  0.00  0.00    +0.000 A 
ATOM     20  C   UNL     1       5.625  -0.289  -3.427  0.00  0.00    +0.000 A 
ATOM     21  C   UNL     1       6.445  -0.384  -4.552  0.00  0.00    +0.000 A 
ATOM     22  C   UNL     1       6.516   0.678  -5.451  0.00  0.00    +0.000 A 
ATOM     23  C   UNL     1       5.786   1.857  -5.236  0.00  0.00    +0.000 A 
ATOM     24  C   UNL     1       4.999   1.930  -4.067  0.00  0.00    +0.000 A 
BRANCH  23  25
ATOM     25  C   UNL     1       5.777   2.955  -6.223  0.00  0.00    +0.000 A 
ATOM     26  C   UNL     1       5.686   4.304  -5.844  0.00  0.00    +0.000 A 
ATOM     27  C   UNL     1       5.614   5.310  -6.807  0.00  0.00    +0.000 A 
ATOM     28  C   UNL     1       5.651   4.947  -8.141  0.00  0.00    +0.000 A 
ATOM     29  N   UNL     1       5.750   3.672  -8.563  0.00  0.00    +0.000 NA
ATOM     30  C   UNL     1       5.803   2.718  -7.599  0.00  0.00    +0.000 A 
ENDBRANCH  23  25
ENDBRANCH  16  19
ENDBRANCH   1  16
TORSDOF 6
