REMARK  Name = 
REMARK  9 active torsions:
REMARK  status: ('A' for Active; 'I' for Inactive)
REMARK    1  A    between atoms: C_1  and  C_2
REMARK    2  A    between atoms: C_2  and  C_3
REMARK    3  A    between atoms: C_3  and  N_4
REMARK    4  A    between atoms: C_5  and  C_7
REMARK    5  A    between atoms: N_10  and  C_11
REMARK    6  A    between atoms: C_11  and  C_12
REMARK    7  A    between atoms: C_12  and  C_13
REMARK    8  A    between atoms: C_16  and  O_17
REMARK    9  A    between atoms: O_17  and  C_18
REMARK                            x       y       z     vdW  Elec       q    Type
REMARK                         _______ _______ _______ _____ _____    ______ ____
ROOT
ATOM      1  C   UNL     1       6.631  -2.689  -0.240  0.00  0.00    +0.000 A 
ATOM      2  C   UNL     1       7.356  -1.812   0.559  0.00  0.00    +0.000 A 
ATOM      3  C   UNL     1       8.740  -1.771   0.431  0.00  0.00    +0.000 A 
ATOM      4  N   UNL     1       9.388  -2.568  -0.458  0.00  0.00    +0.000 N 
ATOM      5  C   UNL     1       8.692  -3.481  -1.179  0.00  0.00    +0.000 A 
ATOM      6  C   UNL     1       7.311  -3.550  -1.096  0.00  0.00    +0.000 A 
ENDROOT
BRANCH   1   8
ATOM      7  N   UNL     1       4.477  -1.607   0.065  0.00  0.00    +0.000 N 
ATOM      8  C   UNL     1       5.151  -2.775  -0.201  0.00  0.00    +0.000 C 
ATOM      9  O   UNL     1       4.618  -3.847  -0.447  0.00  0.00    +0.000 OA
ATOM     10  H   UNL     1       4.961  -0.728   0.178  0.00  0.00    +0.000 HD
BRANCH   7  11
ATOM     11  C   UNL     1       3.026  -1.559   0.092  0.00  0.00    +0.000 C 
BRANCH  11  13
ATOM     12  C   UNL     1       2.892  -1.027   2.568  0.00  0.00    +0.000 C 
ATOM     13  C   UNL     1       2.458  -1.964   1.450  0.00  0.00    +0.000 C 
ENDBRANCH  11  13
ENDBRANCH   7  11
ENDBRANCH   1   8
BRANCH   4  14
ATOM     14  C   UNL     1      10.875  -2.443  -0.567  0.00  0.00    +0.000 C 
BRANCH  14  15
ATOM     15  C   UNL     1      11.405  -2.707  -1.977  0.00  0.00    +0.000 C 
BRANCH  15  16
ATOM     16  C   UNL     1      12.872  -2.408  -2.072  0.00  0.00    +0.000 A 
ATOM     17  C   UNL     1      13.836  -3.391  -1.830  0.00  0.00    +0.000 A 
ATOM     18  C   UNL     1      15.186  -3.057  -1.898  0.00  0.00    +0.000 A 
ATOM     19  C   UNL     1      15.528  -1.749  -2.191  0.00  0.00    +0.000 A 
ATOM     20  N   UNL     1      14.620  -0.777  -2.422  0.00  0.00    +0.000 NA
ATOM     21  C   UNL     1      13.320  -1.125  -2.373  0.00  0.00    +0.000 A 
BRANCH  19  22
ATOM     22  O   UNL     1      16.874  -1.459  -2.240  0.00  0.00    +0.000 OA
ATOM     23  C   UNL     1      17.134  -0.084  -2.510  0.00  0.00    +0.000 C 
ENDBRANCH  19  22
ENDBRANCH  15  16
ENDBRANCH  14  15
ENDBRANCH   4  14
TORSDOF 7
