REMARK  Name = 
REMARK  7 active torsions:
REMARK  status: ('A' for Active; 'I' for Inactive)
REMARK    1  A    between atoms: C_1  and  N_2
REMARK    2  A    between atoms: C_5  and  C_6
REMARK    3  A    between atoms: N_8  and  C_9
REMARK    4  A    between atoms: C_9  and  C_10
REMARK    5  A    between atoms: C_13  and  C_14
REMARK    6  A    between atoms: C_14  and  N_15
REMARK    7  A    between atoms: C_16  and  C_18
REMARK                            x       y       z     vdW  Elec       q    Type
REMARK                         _______ _______ _______ _____ _____    ______ ____
ROOT
ATOM      1  C   UNL     1      -6.255  -1.009  -0.043  0.00  0.00    +0.000 A 
ATOM      2  C   UNL     1      -7.482  -1.680   0.063  0.00  0.00    +0.000 A 
ATOM      3  C   UNL     1      -8.689  -0.969   0.118  0.00  0.00    +0.000 A 
ATOM      4  C   UNL     1      -8.697   0.431   0.047  0.00  0.00    +0.000 A 
ATOM      5  C   UNL     1      -7.470   1.101  -0.048  0.00  0.00    +0.000 A 
ATOM      6  C   UNL     1      -6.265   0.391  -0.106  0.00  0.00    +0.000 A 
ENDROOT
BRANCH   1   7
ATOM      7  C   UNL     1      -4.956  -1.777  -0.044  0.00  0.00    +0.000 C 
BRANCH   7  10
ATOM      8  C   UNL     1      -3.368  -2.932  -1.497  0.00  0.00    +0.000 C 
ATOM      9  O   UNL     1      -2.683  -3.303  -0.550  0.00  0.00    +0.000 OA
ATOM     10  N   UNL     1      -4.514  -2.176  -1.351  0.00  0.00    +0.000 N 
ATOM     11  H   UNL     1      -5.003  -1.898  -2.198  0.00  0.00    +0.000 HD
BRANCH   8  16
ATOM     12  C   UNL     1      -1.158  -4.730  -5.570  0.00  0.00    +0.000 C 
ATOM     13  N   UNL     1      -2.065  -4.051  -4.678  0.00  0.00    +0.000 N 
ATOM     14  C   UNL     1      -3.184  -3.354  -5.033  0.00  0.00    +0.000 A 
ATOM     15  N   UNL     1      -3.800  -2.860  -3.981  0.00  0.00    +0.000 NA
ATOM     16  C   UNL     1      -3.040  -3.258  -2.889  0.00  0.00    +0.000 A 
ATOM     17  C   UNL     1      -1.952  -3.996  -3.320  0.00  0.00    +0.000 A 
ENDBRANCH   8  16
ENDBRANCH   7  10
ENDBRANCH   1   7
BRANCH   4  18
ATOM     18  C   UNL     1      -9.989   1.212   0.079  0.00  0.00    +0.000 C 
BRANCH  18  19
ATOM     19  N   UNL     1     -10.369   1.580   1.421  0.00  0.00    +0.000 N 
ATOM     20  C   UNL     1     -11.533   2.267   1.666  0.00  0.00    +0.000 C 
ATOM     21  O   UNL     1     -12.314   2.572   0.771  0.00  0.00    +0.000 OA
ATOM     22  H   UNL     1      -9.632   1.588   2.120  0.00  0.00    +0.000 HD
BRANCH  20  23
ATOM     23  C   UNL     1     -11.827   2.570   3.074  0.00  0.00    +0.000 A 
ATOM     24  C   UNL     1     -13.142   2.753   3.484  0.00  0.00    +0.000 A 
ATOM     25  S   UNL     1     -13.300   3.040   5.158  0.00  0.00    +0.000 S 
ATOM     26  C   UNL     1     -11.614   2.987   5.385  0.00  0.00    +0.000 A 
ATOM     27  N   UNL     1     -11.062   3.192   6.611  0.00  0.00    +0.000 NA
ATOM     28  C   UNL     1      -9.771   3.154   6.628  0.00  0.00    +0.000 A 
ATOM     29  N   UNL     1      -8.983   2.926   5.532  0.00  0.00    +0.000 N 
ATOM     30  C   UNL     1      -9.495   2.678   4.282  0.00  0.00    +0.000 A 
ATOM     31  O   UNL     1      -8.763   2.424   3.331  0.00  0.00    +0.000 OA
ATOM     32  C   UNL     1     -10.943   2.730   4.202  0.00  0.00    +0.000 A 
ATOM     33  H   UNL     1      -7.977   2.895   5.614  0.00  0.00    +0.000 HD
ENDBRANCH  20  23
ENDBRANCH  18  19
ENDBRANCH   4  18
TORSDOF 6
