REMARK  Name = 
REMARK  9 active torsions:
REMARK  status: ('A' for Active; 'I' for Inactive)
REMARK    1  A    between atoms: C_1  and  C_2
REMARK    2  A    between atoms: C_2  and  N_3
REMARK    3  A    between atoms: C_2  and  C_19
REMARK    4  A    between atoms: N_3  and  C_4
REMARK    5  A    between atoms: C_4  and  C_5
REMARK    6  A    between atoms: C_8  and  C_9
REMARK    7  A    between atoms: C_9  and  N_10
REMARK    8  A    between atoms: N_10  and  C_11
REMARK    9  A    between atoms: C_11  and  C_12
REMARK                            x       y       z     vdW  Elec       q    Type
REMARK                         _______ _______ _______ _____ _____    ______ ____
ROOT
ATOM      1  C   UNL     1       2.568  -2.360   0.695  0.00  0.00    +0.000 C 
ENDROOT
BRANCH   1   2
ATOM      2  C   UNL     1       3.049  -3.746   0.361  0.00  0.00    +0.000 A 
ATOM      3  C   UNL     1       4.251  -3.978  -0.310  0.00  0.00    +0.000 A 
ATOM      4  C   UNL     1       4.662  -5.286  -0.560  0.00  0.00    +0.000 A 
ATOM      5  C   UNL     1       3.865  -6.338  -0.119  0.00  0.00    +0.000 A 
ATOM      6  N   UNL     1       2.701  -6.141   0.547  0.00  0.00    +0.000 NA
ATOM      7  C   UNL     1       2.319  -4.861   0.759  0.00  0.00    +0.000 A 
BRANCH   5   8
ATOM      8  C   UNL     1       4.261  -7.775  -0.404  0.00  0.00    +0.000 C 
BRANCH   8   9
ATOM      9  N   UNL     1       3.259  -8.539  -1.157  0.00  0.00    +0.000 NA
ATOM     10  H   UNL     1       2.370  -8.451  -0.653  0.00  0.00    +0.000 HD
BRANCH   9  11
ATOM     11  C   UNL     1       3.032  -7.978  -2.492  0.00  0.00    +0.000 C 
BRANCH  11  12
ATOM     12  C   UNL     1       2.034  -8.838  -3.197  0.00  0.00    +0.000 A 
ATOM     13  C   UNL     1       2.250  -9.944  -3.992  0.00  0.00    +0.000 A 
ATOM     14  N   UNL     1       1.006 -10.367  -4.367  0.00  0.00    +0.000 N 
ATOM     15  C   UNL     1       0.095  -9.521  -3.807  0.00  0.00    +0.000 A 
ATOM     16  N   UNL     1       0.682  -8.583  -3.097  0.00  0.00    +0.000 NA
ATOM     17  H   UNL     1       0.792 -11.167  -4.947  0.00  0.00    +0.000 HD
ENDBRANCH  11  12
ENDBRANCH   9  11
ENDBRANCH   8   9
ENDBRANCH   5   8
ENDBRANCH   1   2
BRANCH   1  18
ATOM     18  N   UNL     1       2.305  -1.558  -0.503  0.00  0.00    +0.000 NA
ATOM     19  H   UNL     1       3.177  -1.470  -1.027  0.00  0.00    +0.000 HD
BRANCH  18  21
ATOM     20  C   UNL     1       0.498  -0.193   0.566  0.00  0.00    +0.000 C 
ATOM     21  C   UNL     1       1.848  -0.197  -0.168  0.00  0.00    +0.000 C 
BRANCH  21  22
ATOM     22  C   UNL     1       1.722   0.609  -1.449  0.00  0.00    +0.000 A 
ATOM     23  C   UNL     1       1.376   0.110  -2.696  0.00  0.00    +0.000 A 
ATOM     24  S   UNL     1       1.216   1.324  -3.889  0.00  0.00    +0.000 S 
ATOM     25  C   UNL     1       1.571   2.558  -2.770  0.00  0.00    +0.000 A 
ATOM     26  N   UNL     1       1.538   3.871  -3.125  0.00  0.00    +0.000 NA
ATOM     27  C   UNL     1       1.798   4.687  -2.157  0.00  0.00    +0.000 A 
ATOM     28  N   UNL     1       2.111   4.313  -0.875  0.00  0.00    +0.000 N 
ATOM     29  C   UNL     1       2.187   2.999  -0.476  0.00  0.00    +0.000 A 
ATOM     30  O   UNL     1       2.507   2.692   0.668  0.00  0.00    +0.000 OA
ATOM     31  C   UNL     1       1.858   2.045  -1.520  0.00  0.00    +0.000 A 
ATOM     32  H   UNL     1       2.323   5.003  -0.170  0.00  0.00    +0.000 HD
ENDBRANCH  21  22
ENDBRANCH  18  21
ENDBRANCH   1  18
TORSDOF 8
