REMARK  Name = 
REMARK  9 active torsions:
REMARK  status: ('A' for Active; 'I' for Inactive)
REMARK    1  A    between atoms: C_1  and  O_2
REMARK    2  A    between atoms: O_2  and  C_3
REMARK    3  A    between atoms: C_10  and  C_11
REMARK    4  A    between atoms: N_13  and  C_14
REMARK    5  A    between atoms: C_14  and  C_15
REMARK    6  A    between atoms: C_18  and  C_19
REMARK    7  A    between atoms: C_19  and  N_20
REMARK    8  A    between atoms: N_20  and  C_21
REMARK    9  A    between atoms: C_21  and  C_22
REMARK                            x       y       z     vdW  Elec       q    Type
REMARK                         _______ _______ _______ _____ _____    ______ ____
ROOT
ATOM      1  C   UNL     1       1.909   0.861   3.220  0.00  0.00    +0.000 A 
ATOM      2  C   UNL     1       0.562   0.477   3.227  0.00  0.00    +0.000 A 
ATOM      3  C   UNL     1      -0.451   1.437   3.152  0.00  0.00    +0.000 A 
ATOM      4  C   UNL     1      -0.142   2.803   3.065  0.00  0.00    +0.000 A 
ATOM      5  C   UNL     1       1.206   3.183   3.033  0.00  0.00    +0.000 A 
ATOM      6  C   UNL     1       2.220   2.223   3.105  0.00  0.00    +0.000 A 
ENDROOT
BRANCH   1   7
ATOM      7  C   UNL     1       3.006  -0.172   3.282  0.00  0.00    +0.000 C 
BRANCH   7  10
ATOM      8  C   UNL     1       4.345  -1.546   1.743  0.00  0.00    +0.000 C 
ATOM      9  O   UNL     1       4.921  -2.092   2.682  0.00  0.00    +0.000 OA
ATOM     10  N   UNL     1       3.396  -0.585   1.957  0.00  0.00    +0.000 N 
ATOM     11  H   UNL     1       2.960  -0.116   1.175  0.00  0.00    +0.000 HD
BRANCH   8  19
ATOM     12  C   UNL     1       3.042  -0.565  -1.292  0.00  0.00    +0.000 A 
ATOM     13  N   UNL     1       2.735  -0.357  -2.588  0.00  0.00    +0.000 NA
ATOM     14  C   UNL     1       3.427  -1.028  -3.513  0.00  0.00    +0.000 A 
ATOM     15  N   UNL     1       4.408  -1.901  -3.302  0.00  0.00    +0.000 NA
ATOM     16  C   UNL     1       4.687  -2.073  -1.999  0.00  0.00    +0.000 A 
ATOM     17  S   UNL     1       5.913  -3.155  -1.543  0.00  0.00    +0.000 S 
ATOM     18  C   UNL     1       5.657  -2.826   0.104  0.00  0.00    +0.000 A 
ATOM     19  C   UNL     1       4.653  -1.896   0.345  0.00  0.00    +0.000 A 
ATOM     20  C   UNL     1       4.070  -1.449  -0.919  0.00  0.00    +0.000 A 
BRANCH  12  22
ATOM     21  C   UNL     1       1.056   0.560  -0.780  0.00  0.00    +0.000 C 
ATOM     22  O   UNL     1       2.349   0.152  -0.340  0.00  0.00    +0.000 OA
ENDBRANCH  12  22
ENDBRANCH   8  19
ENDBRANCH   7  10
ENDBRANCH   1   7
BRANCH   4  23
ATOM     23  C   UNL     1      -1.242   3.840   2.995  0.00  0.00    +0.000 C 
BRANCH  23  24
ATOM     24  N   UNL     1      -2.094   3.786   4.181  0.00  0.00    +0.000 NA
ATOM     25  H   UNL     1      -1.519   3.924   5.010  0.00  0.00    +0.000 HD
BRANCH  24  26
ATOM     26  C   UNL     1      -3.135   4.810   4.143  0.00  0.00    +0.000 C 
BRANCH  26  27
ATOM     27  C   UNL     1      -4.026   4.722   5.362  0.00  0.00    +0.000 A 
ATOM     28  C   UNL     1      -4.170   5.812   6.235  0.00  0.00    +0.000 A 
ATOM     29  C   UNL     1      -5.011   5.728   7.350  0.00  0.00    +0.000 A 
ATOM     30  C   UNL     1      -5.717   4.554   7.603  0.00  0.00    +0.000 A 
ATOM     31  C   UNL     1      -5.577   3.474   6.740  0.00  0.00    +0.000 A 
ATOM     32  F   UNL     1      -6.257   2.345   6.983  0.00  0.00    +0.000 F 
ATOM     33  C   UNL     1      -4.745   3.547   5.629  0.00  0.00    +0.000 A 
ENDBRANCH  26  27
ENDBRANCH  24  26
ENDBRANCH  23  24
ENDBRANCH   4  23
TORSDOF 8
