REMARK  Name = 
REMARK  4 active torsions:
REMARK  status: ('A' for Active; 'I' for Inactive)
REMARK    1  A    between atoms: C_2  and  C_4
REMARK    2  A    between atoms: N_8  and  C_9
REMARK    3  A    between atoms: C_9  and  C_10
REMARK    4  A    between atoms: C_14  and  C_15
REMARK                            x       y       z     vdW  Elec       q    Type
REMARK                         _______ _______ _______ _____ _____    ______ ____
ROOT
ATOM      1  C   UNL     1       4.806   5.977  -0.769  0.00  0.00    +0.000 C 
ENDROOT
BRANCH   1   6
ATOM      2  C   UNL     1       7.511   2.776   2.241  0.00  0.00    +0.000 A 
ATOM      3  C   UNL     1       7.075   4.077   2.467  0.00  0.00    +0.000 A 
ATOM      4  C   UNL     1       6.373   4.740   1.463  0.00  0.00    +0.000 A 
ATOM      5  C   UNL     1       6.121   4.102   0.254  0.00  0.00    +0.000 A 
ATOM      6  N   UNL     1       5.424   4.674  -0.773  0.00  0.00    +0.000 N 
ATOM      7  N   UNL     1       6.568   2.853   0.013  0.00  0.00    +0.000 NA
ATOM      8  C   UNL     1       7.258   2.219   0.998  0.00  0.00    +0.000 A 
ATOM      9  H   UNL     1       5.357   4.096  -1.601  0.00  0.00    +0.000 HD
BRANCH   2  11
ATOM     10  N   UNL     1       7.980   2.299   4.572  0.00  0.00    +0.000 N 
ATOM     11  C   UNL     1       8.232   1.990   3.263  0.00  0.00    +0.000 C 
ATOM     12  O   UNL     1       8.992   1.082   2.956  0.00  0.00    +0.000 OA
ATOM     13  H   UNL     1       8.397   1.694   5.267  0.00  0.00    +0.000 HD
ATOM     14  H   UNL     1       7.189   2.860   4.856  0.00  0.00    +0.000 HD
ENDBRANCH   2  11
ENDBRANCH   1   6
BRANCH   1  15
ATOM     15  C   UNL     1       5.743   7.106  -1.147  0.00  0.00    +0.000 A 
ATOM     16  C   UNL     1       5.242   8.415  -1.141  0.00  0.00    +0.000 A 
ATOM     17  C   UNL     1       6.065   9.490  -1.466  0.00  0.00    +0.000 A 
ATOM     18  C   UNL     1       7.405   9.273  -1.792  0.00  0.00    +0.000 A 
ATOM     19  C   UNL     1       7.956   7.980  -1.796  0.00  0.00    +0.000 A 
ATOM     20  C   UNL     1       7.095   6.910  -1.487  0.00  0.00    +0.000 A 
BRANCH  19  21
ATOM     21  C   UNL     1       9.391   7.754  -2.078  0.00  0.00    +0.000 A 
ATOM     22  C   UNL     1      10.379   8.645  -1.636  0.00  0.00    +0.000 A 
ATOM     23  N   UNL     1      11.715   8.505  -1.840  0.00  0.00    +0.000 NA
ATOM     24  C   UNL     1      12.102   7.401  -2.514  0.00  0.00    +0.000 A 
ATOM     25  C   UNL     1      11.216   6.452  -2.988  0.00  0.00    +0.000 A 
ATOM     26  F   UNL     1      11.662   5.374  -3.646  0.00  0.00    +0.000 F 
ATOM     27  C   UNL     1       9.854   6.628  -2.774  0.00  0.00    +0.000 A 
ENDBRANCH  19  21
ENDBRANCH   1  15
TORSDOF 4
