REMARK  Name = 
REMARK  6 active torsions:
REMARK  status: ('A' for Active; 'I' for Inactive)
REMARK    1  A    between atoms: C_1  and  C_2
REMARK    2  A    between atoms: N_6  and  C_7
REMARK    3  A    between atoms: C_7  and  C_8
REMARK    4  A    between atoms: C_8  and  C_11
REMARK    5  A    between atoms: C_15  and  O_16
REMARK    6  A    between atoms: O_16  and  C_17
REMARK                            x       y       z     vdW  Elec       q    Type
REMARK                         _______ _______ _______ _____ _____    ______ ____
ROOT
ATOM      1  C   UNL     1       5.291  -1.058  -0.111  0.00  0.00    +0.000 C 
ATOM      2  F   UNL     1       5.582  -0.361  -1.253  0.00  0.00    +0.000 F 
ATOM      3  F   UNL     1       5.672  -0.224   0.913  0.00  0.00    +0.000 F 
ENDROOT
BRANCH   1   4
ATOM      4  C   UNL     1       6.037  -2.378  -0.044  0.00  0.00    +0.000 A 
ATOM      5  C   UNL     1       6.429  -2.878   1.207  0.00  0.00    +0.000 A 
ATOM      6  C   UNL     1       7.090  -4.100   1.309  0.00  0.00    +0.000 A 
ATOM      7  C   UNL     1       7.379  -4.861   0.165  0.00  0.00    +0.000 A 
ATOM      8  C   UNL     1       7.028  -4.360  -1.095  0.00  0.00    +0.000 A 
ATOM      9  C   UNL     1       6.360  -3.128  -1.189  0.00  0.00    +0.000 A 
BRANCH   8  10
ATOM     10  O   UNL     1       7.218  -4.982  -2.307  0.00  0.00    +0.000 OA
BRANCH  10  11
ATOM     11  C   UNL     1       8.258  -5.969  -2.488  0.00  0.00    +0.000 C 
ATOM     12  C   UNL     1       9.730  -5.529  -2.455  0.00  0.00    +0.000 C 
ATOM     13  O   UNL     1       9.995  -6.133  -3.739  0.00  0.00    +0.000 OA
ATOM     14  C   UNL     1       8.580  -6.353  -3.954  0.00  0.00    +0.000 C 
ENDBRANCH  10  11
ENDBRANCH   8  10
ENDBRANCH   1   4
BRANCH   1  15
ATOM     15  C   UNL     1       3.749  -1.242  -0.037  0.00  0.00    +0.000 C 
BRANCH  15  21
ATOM     16  C   UNL     1      -2.541   0.007   0.421  0.00  0.00    +0.000 C 
ATOM     17  C   UNL     1      -1.060  -0.023   0.276  0.00  0.00    +0.000 A 
ATOM     18  C   UNL     1      -0.279  -1.055   0.746  0.00  0.00    +0.000 A 
ATOM     19  N   UNL     1       1.064  -1.085   0.650  0.00  0.00    +0.000 NA
ATOM     20  C   UNL     1       1.659  -0.029   0.072  0.00  0.00    +0.000 A 
ATOM     21  N   UNL     1       3.038   0.039   0.031  0.00  0.00    +0.000 N 
ATOM     22  N   UNL     1       0.994   1.008  -0.443  0.00  0.00    +0.000 NA
ATOM     23  C   UNL     1      -0.350   0.991  -0.325  0.00  0.00    +0.000 A 
ATOM     24  H   UNL     1       3.330   0.778  -0.601  0.00  0.00    +0.000 HD
ENDBRANCH  15  21
ENDBRANCH   1  15
TORSDOF 5
