REMARK  Name = 
REMARK  9 active torsions:
REMARK  status: ('A' for Active; 'I' for Inactive)
REMARK    1  A    between atoms: C_1  and  C_2
REMARK    2  A    between atoms: N_4  and  C_5
REMARK    3  A    between atoms: C_9  and  C_10
REMARK    4  A    between atoms: C_10  and  C_11
REMARK    5  A    between atoms: C_10  and  C_12
REMARK    6  A    between atoms: C_10  and  C_13
REMARK    7  A    between atoms: C_13  and  N_14
REMARK    8  A    between atoms: C_18  and  C_19
REMARK    9  A    between atoms: C_26  and  C_27
REMARK                            x       y       z     vdW  Elec       q    Type
REMARK                         _______ _______ _______ _____ _____    ______ ____
ROOT
ATOM      1  C   UNL     1      -1.314   0.996  -5.404  0.00  0.00    +0.000 C 
ATOM      2  C   UNL     1      -0.841  -0.301  -6.110  0.00  0.00    +0.000 C 
ATOM      3  C   UNL     1      -2.351   0.640  -4.319  0.00  0.00    +0.000 C 
ENDROOT
BRANCH   1   8
ATOM      4  C   UNL     1       1.937   1.404  -3.327  0.00  0.00    +0.000 A 
ATOM      5  C   UNL     1       2.336   2.685  -3.719  0.00  0.00    +0.000 A 
ATOM      6  C   UNL     1       1.557   3.461  -4.572  0.00  0.00    +0.000 A 
ATOM      7  C   UNL     1       0.366   2.954  -5.088  0.00  0.00    +0.000 A 
ATOM      8  C   UNL     1      -0.076   1.666  -4.752  0.00  0.00    +0.000 A 
ATOM      9  C   UNL     1       0.708   0.942  -3.827  0.00  0.00    +0.000 A 
BRANCH   4  13
ATOM     10  C   UNL     1       1.952  -2.332  -3.224  0.00  0.00    +0.000 C 
ATOM     11  C   UNL     1       2.669  -1.786  -1.990  0.00  0.00    +0.000 C 
ATOM     12  C   UNL     1       2.197  -0.376  -1.586  0.00  0.00    +0.000 C 
ATOM     13  N   UNL     1       2.732   0.648  -2.490  0.00  0.00    +0.000 N 
ATOM     14  C   UNL     1       4.185   0.563  -2.717  0.00  0.00    +0.000 C 
ATOM     15  C   UNL     1       4.594  -0.879  -3.097  0.00  0.00    +0.000 C 
ATOM     16  C   UNL     1       6.112  -1.010  -3.140  0.00  0.00    +0.000 C 
ATOM     17  O   UNL     1       4.100  -1.845  -2.149  0.00  0.00    +0.000 OA
ENDBRANCH   4  13
ENDBRANCH   1   8
BRANCH   1  18
ATOM     18  C   UNL     1      -1.973   1.924  -6.469  0.00  0.00    +0.000 C 
BRANCH  18  19
ATOM     19  N   UNL     1      -3.129   1.346  -7.144  0.00  0.00    +0.000 N 
ATOM     20  C   UNL     1      -3.760   2.089  -8.131  0.00  0.00    +0.000 A 
ATOM     21  C   UNL     1      -3.111   3.004  -8.972  0.00  0.00    +0.000 A 
ATOM     22  N   UNL     1      -3.712   3.693  -9.979  0.00  0.00    +0.000 NA
ATOM     23  C   UNL     1      -5.028   3.401 -10.147  0.00  0.00    +0.000 A 
ATOM     24  C   UNL     1      -5.690   2.500  -9.330  0.00  0.00    +0.000 A 
ATOM     25  N   UNL     1      -5.074   1.841  -8.307  0.00  0.00    +0.000 NA
ATOM     26  H   UNL     1      -3.859   0.938  -6.562  0.00  0.00    +0.000 HD
BRANCH  23  27
ATOM     27  C   UNL     1      -5.745   4.067 -11.272  0.00  0.00    +0.000 C 
ATOM     28  N   UNL     1      -5.009   4.934 -12.042  0.00  0.00    +0.000 N 
ATOM     29  O   UNL     1      -6.924   3.852 -11.505  0.00  0.00    +0.000 OA
ATOM     30  H   UNL     1      -4.025   5.095 -11.856  0.00  0.00    +0.000 HD
ATOM     31  H   UNL     1      -5.458   5.388 -12.825  0.00  0.00    +0.000 HD
ENDBRANCH  23  27
ENDBRANCH  18  19
ENDBRANCH   1  18
TORSDOF 5
