REMARK  Name = 
REMARK  5 active torsions:
REMARK  status: ('A' for Active; 'I' for Inactive)
REMARK    1  A    between atoms: C_1  and  C_2
REMARK    2  A    between atoms: C_2  and  O_3
REMARK    3  A    between atoms: C_2  and  C_13
REMARK    4  A    between atoms: O_3  and  C_4
REMARK    5  A    between atoms: C_7  and  C_8
REMARK                            x       y       z     vdW  Elec       q    Type
REMARK                         _______ _______ _______ _____ _____    ______ ____
ROOT
ATOM      1  C   UNL     1       0.482   0.913   0.921  0.00  0.00    +0.000 A 
ATOM      2  C   UNL     1       0.935   2.206   1.163  0.00  0.00    +0.000 A 
ATOM      3  C   UNL     1       0.167   3.067   1.949  0.00  0.00    +0.000 A 
ATOM      4  C   UNL     1      -1.032   2.598   2.474  0.00  0.00    +0.000 A 
ATOM      5  N   UNL     1      -1.500   1.335   2.276  0.00  0.00    +0.000 NA
ATOM      6  C   UNL     1      -0.729   0.535   1.499  0.00  0.00    +0.000 A 
ENDROOT
BRANCH   4   7
ATOM      7  C   UNL     1      -1.893   3.519   3.283  0.00  0.00    +0.000 C 
ATOM      8  N   UNL     1      -3.049   2.972   3.770  0.00  0.00    +0.000 N 
ATOM      9  O   UNL     1      -1.595   4.687   3.493  0.00  0.00    +0.000 OA
ATOM     10  H   UNL     1      -3.274   2.005   3.562  0.00  0.00    +0.000 HD
ATOM     11  H   UNL     1      -3.686   3.548   4.301  0.00  0.00    +0.000 HD
ENDBRANCH   4   7
BRANCH   1  12
ATOM     12  O   UNL     1       1.081  -0.009   0.113  0.00  0.00    +0.000 OA
BRANCH  12  14
ATOM     13  C   UNL     1       3.006  -1.320  -0.368  0.00  0.00    +0.000 C 
ATOM     14  C   UNL     1       2.504   0.097  -0.083  0.00  0.00    +0.000 C 
BRANCH  14  15
ATOM     15  C   UNL     1       2.901   1.012  -1.232  0.00  0.00    +0.000 A 
ATOM     16  C   UNL     1       2.083   1.185  -2.348  0.00  0.00    +0.000 A 
ATOM     17  C   UNL     1       2.507   2.029  -3.373  0.00  0.00    +0.000 A 
ATOM     18  C   UNL     1       3.734   2.670  -3.266  0.00  0.00    +0.000 A 
ATOM     19  C   UNL     1       4.490   2.444  -2.131  0.00  0.00    +0.000 A 
ATOM     20  N   UNL     1       4.103   1.637  -1.117  0.00  0.00    +0.000 NA
ENDBRANCH  14  15
ENDBRANCH  12  14
ENDBRANCH   1  12
TORSDOF 4
