REMARK  Name = 
REMARK  5 active torsions:
REMARK  status: ('A' for Active; 'I' for Inactive)
REMARK    1  A    between atoms: C_2  and  C_4
REMARK    2  A    between atoms: C_7  and  N_8
REMARK    3  A    between atoms: N_8  and  C_9
REMARK    4  A    between atoms: C_9  and  C_10
REMARK    5  A    between atoms: C_14  and  N_15
REMARK                            x       y       z     vdW  Elec       q    Type
REMARK                         _______ _______ _______ _____ _____    ______ ____
ROOT
ATOM      1  N   UNL     1       3.681   4.770   4.560  0.00  0.00    +0.000 N 
ATOM      2  H   UNL     1       3.648   5.059   5.535  0.00  0.00    +0.000 HD
ENDROOT
BRANCH   1   6
ATOM      3  C   UNL     1       0.643   2.040   3.487  0.00  0.00    +0.000 A 
ATOM      4  C   UNL     1       1.916   1.906   2.932  0.00  0.00    +0.000 A 
ATOM      5  C   UNL     1       2.937   2.791   3.297  0.00  0.00    +0.000 A 
ATOM      6  C   UNL     1       2.725   3.806   4.239  0.00  0.00    +0.000 A 
ATOM      7  C   UNL     1       1.436   3.934   4.777  0.00  0.00    +0.000 A 
ATOM      8  C   UNL     1       0.401   3.066   4.404  0.00  0.00    +0.000 A 
BRANCH   3  10
ATOM      9  N   UNL     1      -0.154  -0.103   2.648  0.00  0.00    +0.000 N 
ATOM     10  C   UNL     1      -0.478   1.152   3.084  0.00  0.00    +0.000 C 
ATOM     11  O   UNL     1      -1.645   1.511   3.162  0.00  0.00    +0.000 OA
ATOM     12  H   UNL     1      -0.929  -0.727   2.463  0.00  0.00    +0.000 HD
ATOM     13  H   UNL     1       0.753  -0.516   2.810  0.00  0.00    +0.000 HD
ENDBRANCH   3  10
ENDBRANCH   1   6
BRANCH   1  14
ATOM     14  C   UNL     1       5.022   4.695   3.998  0.00  0.00    +0.000 C 
BRANCH  14  15
ATOM     15  C   UNL     1       5.878   5.823   4.496  0.00  0.00    +0.000 A 
ATOM     16  C   UNL     1       7.085   5.576   5.141  0.00  0.00    +0.000 A 
ATOM     17  N   UNL     1       7.909   6.541   5.593  0.00  0.00    +0.000 NA
ATOM     18  C   UNL     1       7.511   7.824   5.389  0.00  0.00    +0.000 A 
ATOM     19  C   UNL     1       6.338   8.212   4.740  0.00  0.00    +0.000 A 
ATOM     20  C   UNL     1       5.524   7.163   4.293  0.00  0.00    +0.000 A 
BRANCH  19  21
ATOM     21  N   UNL     1       5.917   9.525   4.566  0.00  0.00    +0.000 N 
ATOM     22  C   UNL     1       6.454  10.589   5.433  0.00  0.00    +0.000 C 
ATOM     23  C   UNL     1       5.525  11.812   5.335  0.00  0.00    +0.000 C 
ATOM     24  O   UNL     1       5.399  12.270   3.976  0.00  0.00    +0.000 OA
ATOM     25  C   UNL     1       4.872  11.224   3.140  0.00  0.00    +0.000 C 
ATOM     26  C   UNL     1       5.772   9.977   3.165  0.00  0.00    +0.000 C 
ENDBRANCH  19  21
ENDBRANCH  14  15
ENDBRANCH   1  14
TORSDOF 5
