REMARK  Name = 
REMARK  5 active torsions:
REMARK  status: ('A' for Active; 'I' for Inactive)
REMARK    1  A    between atoms: N_1  and  C_2
REMARK    2  A    between atoms: C_2  and  C_3
REMARK    3  A    between atoms: C_6  and  C_7
REMARK    4  A    between atoms: C_7  and  N_8
REMARK    5  A    between atoms: C_13  and  C_14
REMARK                            x       y       z     vdW  Elec       q    Type
REMARK                         _______ _______ _______ _____ _____    ______ ____
ROOT
ATOM      1  N   UNL     1       7.492   0.448  -2.645  0.00  0.00    +0.000 N 
ATOM      2  C   UNL     1       8.084   0.401  -3.887  0.00  0.00    +0.000 A 
ATOM      3  C   UNL     1       9.042  -0.588  -3.867  0.00  0.00    +0.000 A 
ATOM      4  C   UNL     1       9.105  -1.092  -2.543  0.00  0.00    +0.000 A 
ATOM      5  C   UNL     1       9.892  -2.057  -1.893  0.00  0.00    +0.000 A 
ATOM      6  C   UNL     1       9.704  -2.234  -0.520  0.00  0.00    +0.000 A 
ATOM      7  C   UNL     1       8.723  -1.474   0.117  0.00  0.00    +0.000 A 
ATOM      8  N   UNL     1       7.908  -0.559  -0.476  0.00  0.00    +0.000 NA
ATOM      9  C   UNL     1       8.150  -0.408  -1.792  0.00  0.00    +0.000 A 
ENDROOT
BRANCH   6  10
ATOM     10  C   UNL     1      10.509  -3.177   0.295  0.00  0.00    +0.000 C 
ATOM     11  N   UNL     1      11.487  -3.910  -0.321  0.00  0.00    +0.000 N 
ATOM     12  O   UNL     1      10.326  -3.297   1.501  0.00  0.00    +0.000 OA
ATOM     13  H   UNL     1      11.729  -3.863  -1.298  0.00  0.00    +0.000 HD
ATOM     14  H   UNL     1      12.037  -4.526   0.265  0.00  0.00    +0.000 HD
ENDBRANCH   6  10
BRANCH   1  15
ATOM     15  C   UNL     1       6.349   1.286  -2.305  0.00  0.00    +0.000 C 
BRANCH  15  19
ATOM     16  C   UNL     1       2.768   0.296  -1.374  0.00  0.00    +0.000 C 
ATOM     17  C   UNL     1       3.896  -0.697  -1.707  0.00  0.00    +0.000 C 
ATOM     18  C   UNL     1       4.566  -0.423  -3.053  0.00  0.00    +0.000 C 
ATOM     19  C   UNL     1       5.097   1.014  -3.177  0.00  0.00    +0.000 C 
ATOM     20  C   UNL     1       3.965   2.009  -2.880  0.00  0.00    +0.000 C 
ATOM     21  C   UNL     1       3.252   1.747  -1.553  0.00  0.00    +0.000 C 
BRANCH  16  22
ATOM     22  C   UNL     1       1.468   0.035  -2.166  0.00  0.00    +0.000 C 
BRANCH  22  23
ATOM     23  N   UNL     1       0.890  -1.269  -1.851  0.00  0.00    +0.000 NA
ATOM     24  H   UNL     1       0.031  -1.401  -2.384  0.00  0.00    +0.000 HD
ATOM     25  H   UNL     1       0.618  -1.294  -0.868  0.00  0.00    +0.000 HD
ENDBRANCH  22  23
ENDBRANCH  16  22
ENDBRANCH  15  19
ENDBRANCH   1  15
TORSDOF 5
