REMARK  Name = 
REMARK  3 active torsions:
REMARK  status: ('A' for Active; 'I' for Inactive)
REMARK    1  A    between atoms: C_2  and  C_4
REMARK    2  A    between atoms: N_8  and  C_9
REMARK    3  A    between atoms: C_9  and  C_10
REMARK                            x       y       z     vdW  Elec       q    Type
REMARK                         _______ _______ _______ _____ _____    ______ ____
ROOT
ATOM      1  C   UNL     1       3.167  -0.378   1.457  0.00  0.00    +0.000 A 
ATOM      2  C   UNL     1       4.122  -0.778   0.528  0.00  0.00    +0.000 A 
ATOM      3  C   UNL     1       4.943  -1.860   0.834  0.00  0.00    +0.000 A 
ATOM      4  C   UNL     1       4.785  -2.546   2.041  0.00  0.00    +0.000 A 
ATOM      5  N   UNL     1       5.692  -3.608   2.267  0.00  0.00    +0.000 N 
ATOM      6  N   UNL     1       3.850  -2.185   2.942  0.00  0.00    +0.000 NA
ATOM      7  C   UNL     1       3.080  -1.100   2.644  0.00  0.00    +0.000 A 
ATOM      8  H   UNL     1       6.610  -3.183   2.418  0.00  0.00    +0.000 HD
ENDROOT
BRANCH   1  10
ATOM      9  N   UNL     1       2.068   1.193  -0.043  0.00  0.00    +0.000 N 
ATOM     10  C   UNL     1       2.300   0.800   1.245  0.00  0.00    +0.000 C 
ATOM     11  O   UNL     1       1.802   1.403   2.186  0.00  0.00    +0.000 OA
ATOM     12  H   UNL     1       1.428   1.966  -0.177  0.00  0.00    +0.000 HD
ATOM     13  H   UNL     1       2.265   0.609  -0.845  0.00  0.00    +0.000 HD
ENDBRANCH   1  10
BRANCH   5  14
ATOM     14  C   UNL     1       5.436  -4.638   3.318  0.00  0.00    +0.000 C 
ATOM     15  C   UNL     1       5.466  -6.074   2.787  0.00  0.00    +0.000 C 
ATOM     16  C   UNL     1       4.183  -5.490   3.281  0.00  0.00    +0.000 C 
BRANCH  14  17
ATOM     17  C   UNL     1       6.213  -4.406   4.639  0.00  0.00    +0.000 A 
ATOM     18  N   UNL     1       5.783  -4.963   5.795  0.00  0.00    +0.000 NA
ATOM     19  C   UNL     1       6.539  -4.772   6.893  0.00  0.00    +0.000 A 
ATOM     20  C   UNL     1       7.712  -4.058   6.895  0.00  0.00    +0.000 A 
ATOM     21  C   UNL     1       8.083  -3.537   5.682  0.00  0.00    +0.000 A 
ATOM     22  N   UNL     1       7.370  -3.696   4.553  0.00  0.00    +0.000 NA
ENDBRANCH  14  17
ENDBRANCH   5  14
TORSDOF 3
