REMARK  Name = 
REMARK  6 active torsions:
REMARK  status: ('A' for Active; 'I' for Inactive)
REMARK    1  A    between atoms: C_2  and  C_25
REMARK    2  A    between atoms: N_3  and  C_4
REMARK    3  A    between atoms: C_4  and  C_5
REMARK    4  A    between atoms: C_8  and  C_9
REMARK    5  A    between atoms: C_9  and  N_10
REMARK    6  A    between atoms: C_11  and  C_13
REMARK                            x       y       z     vdW  Elec       q    Type
REMARK                         _______ _______ _______ _____ _____    ______ ____
ROOT
ATOM      1  C   UNL     1       3.127  -2.338   2.738  0.00  0.00    +0.000 A 
ATOM      2  C   UNL     1       4.011  -1.647   3.578  0.00  0.00    +0.000 A 
ATOM      3  C   UNL     1       4.831  -2.339   4.478  0.00  0.00    +0.000 A 
ATOM      4  C   UNL     1       4.799  -3.738   4.541  0.00  0.00    +0.000 A 
ATOM      5  C   UNL     1       3.914  -4.428   3.703  0.00  0.00    +0.000 A 
ATOM      6  C   UNL     1       3.096  -3.737   2.803  0.00  0.00    +0.000 A 
ENDROOT
BRANCH   1   7
ATOM      7  C   UNL     1       2.192  -1.593   1.824  0.00  0.00    +0.000 C 
BRANCH   7  10
ATOM      8  O   UNL     1       0.858  -0.238  -0.126  0.00  0.00    +0.000 OA
ATOM      9  C   UNL     1       2.001  -0.604  -0.398  0.00  0.00    +0.000 C 
ATOM     10  N   UNL     1       2.760  -1.290   0.533  0.00  0.00    +0.000 N 
ATOM     11  H   UNL     1       3.707  -1.564   0.308  0.00  0.00    +0.000 HD
BRANCH   9  12
ATOM     12  C   UNL     1       2.607  -0.340  -1.697  0.00  0.00    +0.000 A 
ATOM     13  C   UNL     1       2.031   0.385  -2.727  0.00  0.00    +0.000 A 
ATOM     14  C   UNL     1       2.853   0.450  -3.887  0.00  0.00    +0.000 A 
ATOM     15  C   UNL     1       4.038  -0.227  -3.708  0.00  0.00    +0.000 A 
ATOM     16  S   UNL     1       4.154  -0.920  -2.146  0.00  0.00    +0.000 S 
ENDBRANCH   9  12
ENDBRANCH   7  10
ENDBRANCH   1   7
BRANCH   4  17
ATOM     17  C   UNL     1       5.666  -4.492   5.518  0.00  0.00    +0.000 C 
BRANCH  17  18
ATOM     18  N   UNL     1       4.986  -4.700   6.773  0.00  0.00    +0.000 N 
ATOM     19  C   UNL     1       5.617  -5.302   7.833  0.00  0.00    +0.000 C 
ATOM     20  O   UNL     1       6.799  -5.631   7.784  0.00  0.00    +0.000 OA
ATOM     21  H   UNL     1       3.972  -4.651   6.759  0.00  0.00    +0.000 HD
BRANCH  19  22
ATOM     22  C   UNL     1       4.823  -5.481   9.056  0.00  0.00    +0.000 A 
ATOM     23  C   UNL     1       5.464  -5.613  10.281  0.00  0.00    +0.000 A 
ATOM     24  S   UNL     1       4.395  -5.768  11.601  0.00  0.00    +0.000 S 
ATOM     25  C   UNL     1       3.036  -5.717  10.577  0.00  0.00    +0.000 A 
ATOM     26  N   UNL     1       1.777  -5.826  11.079  0.00  0.00    +0.000 NA
ATOM     27  C   UNL     1       0.842  -5.796  10.190  0.00  0.00    +0.000 A 
ATOM     28  N   UNL     1       1.053  -5.666   8.841  0.00  0.00    +0.000 N 
ATOM     29  C   UNL     1       2.304  -5.526   8.291  0.00  0.00    +0.000 A 
ATOM     30  O   UNL     1       2.456  -5.375   7.082  0.00  0.00    +0.000 OA
ATOM     31  C   UNL     1       3.393  -5.561   9.249  0.00  0.00    +0.000 A 
ATOM     32  H   UNL     1       0.277  -5.639   8.196  0.00  0.00    +0.000 HD
ENDBRANCH  19  22
ENDBRANCH  17  18
ENDBRANCH   4  17
TORSDOF 6
