REMARK  Name = 
REMARK  7 active torsions:
REMARK  status: ('A' for Active; 'I' for Inactive)
REMARK    1  A    between atoms: C_1  and  C_2
REMARK    2  A    between atoms: C_2  and  N_3
REMARK    3  A    between atoms: C_2  and  C_16
REMARK    4  A    between atoms: C_4  and  C_6
REMARK    5  A    between atoms: C_19  and  C_20
REMARK    6  A    between atoms: C_20  and  S_21
REMARK    7  A    between atoms: S_21  and  C_22
REMARK                            x       y       z     vdW  Elec       q    Type
REMARK                         _______ _______ _______ _____ _____    ______ ____
ROOT
ATOM      1  C   UNL     1       3.448  -1.167   0.427  0.00  0.00    +0.000 C 
ATOM      2  C   UNL     1       2.457  -0.050   0.094  0.00  0.00    +0.000 C 
ENDROOT
BRANCH   2   3
ATOM      3  C   UNL     1       2.927   0.920  -0.980  0.00  0.00    +0.000 A 
ATOM      4  C   UNL     1       2.483   2.244  -0.902  0.00  0.00    +0.000 A 
ATOM      5  C   UNL     1       2.818   3.179  -1.884  0.00  0.00    +0.000 A 
ATOM      6  C   UNL     1       3.638   2.841  -2.972  0.00  0.00    +0.000 A 
ATOM      7  C   UNL     1       4.082   1.512  -3.055  0.00  0.00    +0.000 A 
ATOM      8  C   UNL     1       3.727   0.563  -2.076  0.00  0.00    +0.000 A 
BRANCH   6   9
ATOM      9  C   UNL     1       3.979   3.847  -4.070  0.00  0.00    +0.000 C 
BRANCH   9  10
ATOM     10  S   UNL     1       4.184   5.538  -3.398  0.00  0.00    +0.000 S 
BRANCH  10  11
ATOM     11  C   UNL     1       4.394   6.570  -4.832  0.00  0.00    +0.000 A 
ATOM     12  C   UNL     1       4.508   7.938  -4.582  0.00  0.00    +0.000 A 
ATOM     13  C   UNL     1       4.672   8.815  -5.647  0.00  0.00    +0.000 A 
ATOM     14  C   UNL     1       4.722   8.303  -6.934  0.00  0.00    +0.000 A 
ATOM     15  C   UNL     1       4.608   6.928  -7.094  0.00  0.00    +0.000 A 
ATOM     16  N   UNL     1       4.444   6.046  -6.075  0.00  0.00    +0.000 NA
ENDBRANCH  10  11
ENDBRANCH   9  10
ENDBRANCH   6   9
ENDBRANCH   2   3
BRANCH   2  17
ATOM     17  N   UNL     1       1.162  -0.591  -0.277  0.00  0.00    +0.000 N 
ATOM     18  C   UNL     1       0.236  -0.997   0.654  0.00  0.00    +0.000 C 
ATOM     19  O   UNL     1       0.413  -0.857   1.862  0.00  0.00    +0.000 OA
ATOM     20  H   UNL     1       1.025  -0.827  -1.252  0.00  0.00    +0.000 HD
BRANCH  18  21
ATOM     21  C   UNL     1      -1.011  -1.560   0.128  0.00  0.00    +0.000 A 
ATOM     22  C   UNL     1      -2.192  -1.423   0.845  0.00  0.00    +0.000 A 
ATOM     23  S   UNL     1      -3.538  -2.146   0.088  0.00  0.00    +0.000 S 
ATOM     24  C   UNL     1      -2.578  -2.711  -1.202  0.00  0.00    +0.000 A 
ATOM     25  N   UNL     1      -3.119  -3.460  -2.201  0.00  0.00    +0.000 NA
ATOM     26  C   UNL     1      -2.270  -3.855  -3.086  0.00  0.00    +0.000 A 
ATOM     27  N   UNL     1      -0.929  -3.557  -3.078  0.00  0.00    +0.000 N 
ATOM     28  C   UNL     1      -0.347  -2.750  -2.118  0.00  0.00    +0.000 A 
ATOM     29  O   UNL     1       0.835  -2.422  -2.188  0.00  0.00    +0.000 OA
ATOM     30  C   UNL     1      -1.254  -2.321  -1.077  0.00  0.00    +0.000 A 
ATOM     31  H   UNL     1      -0.324  -3.875  -3.818  0.00  0.00    +0.000 HD
ENDBRANCH  18  21
ENDBRANCH   2  17
TORSDOF 6
