REMARK  Name = 
REMARK  9 active torsions:
REMARK  status: ('A' for Active; 'I' for Inactive)
REMARK    1  A    between atoms: C_1  and  C_2
REMARK    2  A    between atoms: C_2  and  N_3
REMARK    3  A    between atoms: C_2  and  C_20
REMARK    4  A    between atoms: N_3  and  C_4
REMARK    5  A    between atoms: C_4  and  C_5
REMARK    6  A    between atoms: C_8  and  C_9
REMARK    7  A    between atoms: C_9  and  N_10
REMARK    8  A    between atoms: N_10  and  C_11
REMARK    9  A    between atoms: C_11  and  C_12
REMARK                            x       y       z     vdW  Elec       q    Type
REMARK                         _______ _______ _______ _____ _____    ______ ____
ROOT
ATOM      1  C   UNL     1       2.384  -1.484  -2.030  0.00  0.00    +0.000 C 
ENDROOT
BRANCH   1   2
ATOM      2  C   UNL     1       2.976  -1.344  -3.419  0.00  0.00    +0.000 A 
ATOM      3  C   UNL     1       3.068  -0.089  -4.015  0.00  0.00    +0.000 A 
ATOM      4  C   UNL     1       3.540   0.004  -5.323  0.00  0.00    +0.000 A 
ATOM      5  C   UNL     1       3.926  -1.151  -6.009  0.00  0.00    +0.000 A 
ATOM      6  C   UNL     1       3.807  -2.357  -5.330  0.00  0.00    +0.000 A 
ATOM      7  N   UNL     1       3.337  -2.481  -4.067  0.00  0.00    +0.000 NA
BRANCH   5   8
ATOM      8  C   UNL     1       4.414  -1.102  -7.432  0.00  0.00    +0.000 C 
BRANCH   8   9
ATOM      9  N   UNL     1       5.580  -0.236  -7.569  0.00  0.00    +0.000 NA
ATOM     10  H   UNL     1       6.336  -0.573  -6.969  0.00  0.00    +0.000 HD
BRANCH   9  11
ATOM     11  C   UNL     1       6.082  -0.232  -8.955  0.00  0.00    +0.000 C 
BRANCH  11  12
ATOM     12  C   UNL     1       7.337   0.612  -9.126  0.00  0.00    +0.000 A 
ATOM     13  N   UNL     1       8.426   0.265  -8.404  0.00  0.00    +0.000 NA
ATOM     14  C   UNL     1       9.513   1.046  -8.548  0.00  0.00    +0.000 A 
ATOM     15  C   UNL     1       9.561   2.136  -9.386  0.00  0.00    +0.000 A 
ATOM     16  C   UNL     1       8.407   2.396 -10.085  0.00  0.00    +0.000 A 
ATOM     17  N   UNL     1       7.291   1.653  -9.985  0.00  0.00    +0.000 NA
ENDBRANCH  11  12
ENDBRANCH   9  11
ENDBRANCH   8   9
ENDBRANCH   5   8
ENDBRANCH   1   2
BRANCH   1  18
ATOM     18  N   UNL     1       3.327  -1.220  -0.932  0.00  0.00    +0.000 NA
ATOM     19  H   UNL     1       3.647  -0.250  -0.972  0.00  0.00    +0.000 HD
BRANCH  18  21
ATOM     20  C   UNL     1       1.569  -0.540   0.760  0.00  0.00    +0.000 C 
ATOM     21  C   UNL     1       2.714  -1.493   0.364  0.00  0.00    +0.000 C 
BRANCH  21  22
ATOM     22  C   UNL     1       3.766  -1.476   1.456  0.00  0.00    +0.000 A 
ATOM     23  C   UNL     1       4.078  -2.578   2.237  0.00  0.00    +0.000 A 
ATOM     24  S   UNL     1       4.876  -2.148   3.689  0.00  0.00    +0.000 S 
ATOM     25  C   UNL     1       4.949  -0.510   3.230  0.00  0.00    +0.000 A 
ATOM     26  N   UNL     1       5.417   0.451   4.069  0.00  0.00    +0.000 NA
ATOM     27  C   UNL     1       5.507   1.622   3.532  0.00  0.00    +0.000 A 
ATOM     28  N   UNL     1       5.207   1.913   2.223  0.00  0.00    +0.000 N 
ATOM     29  C   UNL     1       4.688   0.983   1.350  0.00  0.00    +0.000 A 
ATOM     30  O   UNL     1       4.437   1.267   0.179  0.00  0.00    +0.000 OA
ATOM     31  C   UNL     1       4.493  -0.327   1.937  0.00  0.00    +0.000 A 
ATOM     32  H   UNL     1       5.380   2.831   1.846  0.00  0.00    +0.000 HD
ENDBRANCH  21  22
ENDBRANCH  18  21
ENDBRANCH   1  18
TORSDOF 8
