REMARK  Name = 
REMARK  9 active torsions:
REMARK  status: ('A' for Active; 'I' for Inactive)
REMARK    1  A    between atoms: C_1  and  O_2
REMARK    2  A    between atoms: O_2  and  C_3
REMARK    3  A    between atoms: C_10  and  C_11
REMARK    4  A    between atoms: N_13  and  C_14
REMARK    5  A    between atoms: C_14  and  C_15
REMARK    6  A    between atoms: C_18  and  C_19
REMARK    7  A    between atoms: C_19  and  S_20
REMARK    8  A    between atoms: S_20  and  C_21
REMARK    9  A    between atoms: C_21  and  C_22
REMARK                            x       y       z     vdW  Elec       q    Type
REMARK                         _______ _______ _______ _____ _____    ______ ____
ROOT
ATOM      1  C   UNL     1       2.886  -2.043  -2.711  0.00  0.00    +0.000 C 
ENDROOT
BRANCH   1   2
ATOM      2  C   UNL     1       1.764  -2.749  -1.991  0.00  0.00    +0.000 A 
ATOM      3  C   UNL     1       1.826  -4.125  -1.742  0.00  0.00    +0.000 A 
ATOM      4  C   UNL     1       0.839  -4.759  -0.975  0.00  0.00    +0.000 A 
ATOM      5  C   UNL     1      -0.230  -4.033  -0.426  0.00  0.00    +0.000 A 
ATOM      6  C   UNL     1      -0.332  -2.671  -0.749  0.00  0.00    +0.000 A 
ATOM      7  C   UNL     1       0.649  -2.039  -1.527  0.00  0.00    +0.000 A 
BRANCH   5   8
ATOM      8  C   UNL     1      -1.240  -4.694   0.495  0.00  0.00    +0.000 C 
BRANCH   8   9
ATOM      9  S   UNL     1      -0.439  -5.390   1.987  0.00  0.00    +0.000 S 
BRANCH   9  10
ATOM     10  C   UNL     1      -1.905  -6.009   2.893  0.00  0.00    +0.000 C 
BRANCH  10  11
ATOM     11  C   UNL     1      -1.540  -6.649   4.222  0.00  0.00    +0.000 A 
ATOM     12  C   UNL     1      -0.940  -5.895   5.233  0.00  0.00    +0.000 A 
ATOM     13  C   UNL     1      -0.630  -6.504   6.447  0.00  0.00    +0.000 A 
ATOM     14  C   UNL     1      -0.930  -7.847   6.630  0.00  0.00    +0.000 A 
ATOM     15  C   UNL     1      -1.531  -8.527   5.584  0.00  0.00    +0.000 A 
ATOM     16  N   UNL     1      -1.847  -7.961   4.394  0.00  0.00    +0.000 NA
ENDBRANCH  10  11
ENDBRANCH   9  10
ENDBRANCH   8   9
ENDBRANCH   5   8
ENDBRANCH   1   2
BRANCH   1  19
ATOM     17  C   UNL     1       3.646  -1.483  -4.974  0.00  0.00    +0.000 C 
ATOM     18  O   UNL     1       4.672  -0.970  -4.525  0.00  0.00    +0.000 OA
ATOM     19  N   UNL     1       2.706  -2.026  -4.140  0.00  0.00    +0.000 N 
ATOM     20  H   UNL     1       1.854  -2.425  -4.516  0.00  0.00    +0.000 HD
BRANCH  17  28
ATOM     21  C   UNL     1       1.094  -2.773  -6.898  0.00  0.00    +0.000 A 
ATOM     22  N   UNL     1       0.286  -3.235  -7.873  0.00  0.00    +0.000 NA
ATOM     23  C   UNL     1       0.644  -3.020  -9.142  0.00  0.00    +0.000 A 
ATOM     24  N   UNL     1       1.728  -2.379  -9.568  0.00  0.00    +0.000 NA
ATOM     25  C   UNL     1       2.515  -1.952  -8.565  0.00  0.00    +0.000 A 
ATOM     26  S   UNL     1       3.939  -1.102  -8.926  0.00  0.00    +0.000 S 
ATOM     27  C   UNL     1       4.323  -0.951  -7.279  0.00  0.00    +0.000 A 
ATOM     28  C   UNL     1       3.393  -1.533  -6.426  0.00  0.00    +0.000 A 
ATOM     29  C   UNL     1       2.298  -2.114  -7.200  0.00  0.00    +0.000 A 
BRANCH  21  31
ATOM     30  C   UNL     1      -0.711  -3.058  -5.452  0.00  0.00    +0.000 C 
ATOM     31  O   UNL     1       0.707  -2.977  -5.590  0.00  0.00    +0.000 OA
ENDBRANCH  21  31
ENDBRANCH  17  28
ENDBRANCH   1  19
TORSDOF 8
