REMARK  Name = 
REMARK  9 active torsions:
REMARK  status: ('A' for Active; 'I' for Inactive)
REMARK    1  A    between atoms: C_2  and  C_22
REMARK    2  A    between atoms: N_3  and  CA_4
REMARK    3  A    between atoms: CA_4  and  C_5
REMARK    4  A    between atoms: CA_4  and  C_7
REMARK    5  A    between atoms: C_5  and  O_6
REMARK    6  A    between atoms: C_10  and  C_11
REMARK    7  A    between atoms: C_11  and  N_12
REMARK    8  A    between atoms: N_12  and  C_13
REMARK    9  A    between atoms: C_13  and  C_14
REMARK                            x       y       z     vdW  Elec       q    Type
REMARK                         _______ _______ _______ _____ _____    ______ ____
ROOT
ATOM      1  CA  UNL     1       2.276  -1.130   2.062  0.00  0.00    +0.000 C 
ENDROOT
BRANCH   1   2
ATOM      2  C   UNL     1       3.126  -1.653   3.213  0.00  0.00    +0.000 A 
ATOM      3  C   UNL     1       3.816  -0.731   4.020  0.00  0.00    +0.000 A 
ATOM      4  C   UNL     1       4.610  -1.152   5.090  0.00  0.00    +0.000 A 
ATOM      5  C   UNL     1       4.729  -2.511   5.401  0.00  0.00    +0.000 A 
ATOM      6  C   UNL     1       4.029  -3.436   4.611  0.00  0.00    +0.000 A 
ATOM      7  C   UNL     1       3.233  -3.013   3.532  0.00  0.00    +0.000 A 
BRANCH   5   8
ATOM      8  C   UNL     1       5.609  -2.955   6.552  0.00  0.00    +0.000 C 
BRANCH   8   9
ATOM      9  N   UNL     1       5.178  -2.355   7.816  0.00  0.00    +0.000 NA
ATOM     10  H   UNL     1       4.211  -2.621   7.996  0.00  0.00    +0.000 HD
BRANCH   9  11
ATOM     11  C   UNL     1       6.008  -2.793   8.937  0.00  0.00    +0.000 C 
BRANCH  11  12
ATOM     12  C   UNL     1       5.569  -2.145  10.232  0.00  0.00    +0.000 A 
ATOM     13  C   UNL     1       5.160  -2.920  11.328  0.00  0.00    +0.000 A 
ATOM     14  C   UNL     1       4.796  -2.311  12.532  0.00  0.00    +0.000 A 
ATOM     15  C   UNL     1       4.835  -0.923  12.655  0.00  0.00    +0.000 A 
ATOM     16  C   UNL     1       5.230  -0.141  11.572  0.00  0.00    +0.000 A 
ATOM     17  C   UNL     1       5.596  -0.748  10.370  0.00  0.00    +0.000 A 
ENDBRANCH  11  12
ENDBRANCH   9  11
ENDBRANCH   8   9
ENDBRANCH   5   8
ENDBRANCH   1   2
BRANCH   1  20
ATOM     18  O   UNL     1       0.175  -3.105   1.628  0.00  0.00    +0.000 OA
ATOM     19  C   UNL     1      -0.067  -2.059   2.222  0.00  0.00    +0.000 C 
ATOM     20  N   UNL     1       0.867  -1.080   2.422  0.00  0.00    +0.000 N 
ATOM     21  H   UNL     1       0.637  -0.334   3.069  0.00  0.00    +0.000 HD
BRANCH  19  22
ATOM     22  C   UNL     1      -1.421  -1.741   2.701  0.00  0.00    +0.000 A 
ATOM     23  C   UNL     1      -2.538  -2.274   2.074  0.00  0.00    +0.000 A 
ATOM     24  S   UNL     1      -4.016  -1.794   2.783  0.00  0.00    +0.000 S 
ATOM     25  C   UNL     1      -3.214  -0.886   3.982  0.00  0.00    +0.000 A 
ATOM     26  N   UNL     1      -3.904  -0.244   4.959  0.00  0.00    +0.000 NA
ATOM     27  C   UNL     1      -3.160   0.370   5.818  0.00  0.00    +0.000 A 
ATOM     28  N   UNL     1      -1.796   0.420   5.780  0.00  0.00    +0.000 N 
ATOM     29  C   UNL     1      -1.064  -0.128   4.752  0.00  0.00    +0.000 A 
ATOM     30  O   UNL     1       0.135   0.101   4.635  0.00  0.00    +0.000 OA
ATOM     31  C   UNL     1      -1.839  -0.907   3.805  0.00  0.00    +0.000 A 
ATOM     32  H   UNL     1      -1.274   0.968   6.447  0.00  0.00    +0.000 HD
ENDBRANCH  19  22
ENDBRANCH   1  20
BRANCH   1  33
ATOM     33  C   UNL     1       2.575  -1.733   0.672  0.00  0.00    +0.000 C 
BRANCH  33  34
ATOM     34  O   UNL     1       3.865  -1.338   0.196  0.00  0.00    +0.000 OA
ATOM     35  H   UNL     1       4.500  -1.997   0.528  0.00  0.00    +0.000 HD
ENDBRANCH  33  34
ENDBRANCH   1  33
TORSDOF 9
