REMARK  Name = 
REMARK  6 active torsions:
REMARK  status: ('A' for Active; 'I' for Inactive)
REMARK    1  A    between atoms: C_2  and  C_4
REMARK    2  A    between atoms: C_7  and  N_8
REMARK    3  A    between atoms: N_8  and  C_9
REMARK    4  A    between atoms: C_9  and  C_10
REMARK    5  A    between atoms: C_10  and  C_13
REMARK    6  A    between atoms: C_17  and  C_18
REMARK                            x       y       z     vdW  Elec       q    Type
REMARK                         _______ _______ _______ _____ _____    ______ ____
ROOT
ATOM      1  C   UNL     1       5.682   3.405  -6.665  0.00  0.00    +0.000 C 
ATOM      2  F   UNL     1       7.006   3.473  -6.344  0.00  0.00    +0.000 F 
ATOM      3  F   UNL     1       5.559   2.299  -7.463  0.00  0.00    +0.000 F 
ENDROOT
BRANCH   1   4
ATOM      4  C   UNL     1       5.190   4.666  -7.347  0.00  0.00    +0.000 A 
ATOM      5  C   UNL     1       4.181   4.612  -8.316  0.00  0.00    +0.000 A 
ATOM      6  C   UNL     1       3.677   5.786  -8.868  0.00  0.00    +0.000 A 
ATOM      7  C   UNL     1       4.168   7.025  -8.448  0.00  0.00    +0.000 A 
ATOM      8  C   UNL     1       5.180   7.125  -7.476  0.00  0.00    +0.000 A 
ATOM      9  C   UNL     1       5.689   5.920  -6.951  0.00  0.00    +0.000 A 
BRANCH   8  10
ATOM     10  C   UNL     1       5.673   8.433  -7.002  0.00  0.00    +0.000 A 
ATOM     11  N   UNL     1       5.066   9.546  -7.465  0.00  0.00    +0.000 NA
ATOM     12  C   UNL     1       5.521  10.719  -6.989  0.00  0.00    +0.000 A 
ATOM     13  C   UNL     1       6.546  10.827  -6.080  0.00  0.00    +0.000 A 
ATOM     14  C   UNL     1       7.097   9.637  -5.669  0.00  0.00    +0.000 A 
ATOM     15  N   UNL     1       6.681   8.436  -6.107  0.00  0.00    +0.000 NA
ENDBRANCH   8  10
ENDBRANCH   1   4
BRANCH   1  16
ATOM     16  C   UNL     1       4.854   3.165  -5.376  0.00  0.00    +0.000 C 
BRANCH  16  17
ATOM     17  N   UNL     1       5.222   1.936  -4.656  0.00  0.00    +0.000 N 
ATOM     18  H   UNL     1       5.472   1.152  -5.259  0.00  0.00    +0.000 HD
BRANCH  17  22
ATOM     19  C   UNL     1       3.406   0.819  -1.018  0.00  0.00    +0.000 A 
ATOM     20  C   UNL     1       2.963   1.964  -1.683  0.00  0.00    +0.000 A 
ATOM     21  C   UNL     1       3.546   2.335  -2.899  0.00  0.00    +0.000 A 
ATOM     22  C   UNL     1       4.554   1.565  -3.492  0.00  0.00    +0.000 A 
ATOM     23  C   UNL     1       5.002   0.432  -2.797  0.00  0.00    +0.000 A 
ATOM     24  C   UNL     1       4.441   0.062  -1.569  0.00  0.00    +0.000 A 
BRANCH  19  26
ATOM     25  N   UNL     1       1.528   0.756   0.524  0.00  0.00    +0.000 N 
ATOM     26  C   UNL     1       2.829   0.411   0.288  0.00  0.00    +0.000 C 
ATOM     27  O   UNL     1       3.472  -0.234   1.106  0.00  0.00    +0.000 OA
ATOM     28  H   UNL     1       1.111   0.385   1.369  0.00  0.00    +0.000 HD
ATOM     29  H   UNL     1       0.906   1.052  -0.215  0.00  0.00    +0.000 HD
ENDBRANCH  19  26
ENDBRANCH  17  22
ENDBRANCH  16  17
ENDBRANCH   1  16
TORSDOF 6
