REMARK  Name = 
REMARK  4 active torsions:
REMARK  status: ('A' for Active; 'I' for Inactive)
REMARK    1  A    between atoms: C_4  and  O_5
REMARK    2  A    between atoms: O_5  and  C_6
REMARK    3  A    between atoms: C_6  and  C_7
REMARK    4  A    between atoms: C_11  and  N_12
REMARK                            x       y       z     vdW  Elec       q    Type
REMARK                         _______ _______ _______ _____ _____    ______ ____
ROOT
ATOM      1  C   UNL     1      -1.482  -4.777   0.053  0.00  0.00    +0.000 A 
ATOM      2  C   UNL     1      -0.967  -6.059  -0.143  0.00  0.00    +0.000 A 
ATOM      3  C   UNL     1      -1.779  -7.170   0.054  0.00  0.00    +0.000 A 
ATOM      4  C   UNL     1      -3.110  -7.003   0.449  0.00  0.00    +0.000 A 
ATOM      5  C   UNL     1      -3.676  -5.734   0.647  0.00  0.00    +0.000 A 
ATOM      6  C   UNL     1      -2.836  -4.631   0.417  0.00  0.00    +0.000 A 
ENDROOT
BRANCH   5   7
ATOM      7  N   UNL     1      -4.977  -5.584   1.074  0.00  0.00    +0.000 N 
ATOM      8  C   UNL     1      -5.818  -4.425   0.733  0.00  0.00    +0.000 C 
ATOM      9  C   UNL     1      -6.370  -3.788   2.017  0.00  0.00    +0.000 C 
ATOM     10  O   UNL     1      -7.086  -4.749   2.815  0.00  0.00    +0.000 OA
ATOM     11  C   UNL     1      -6.216  -5.831   3.186  0.00  0.00    +0.000 C 
ATOM     12  C   UNL     1      -5.641  -6.558   1.955  0.00  0.00    +0.000 C 
ENDBRANCH   5   7
BRANCH   1  13
ATOM     13  C   UNL     1      -0.581  -3.568  -0.038  0.00  0.00    +0.000 C 
BRANCH  13  14
ATOM     14  O   UNL     1      -0.475  -3.095  -1.383  0.00  0.00    +0.000 OA
BRANCH  14  18
ATOM     15  C   UNL     1       2.061   0.139  -1.674  0.00  0.00    +0.000 A 
ATOM     16  C   UNL     1       1.434  -0.346  -2.816  0.00  0.00    +0.000 A 
ATOM     17  C   UNL     1       0.577  -1.439  -2.715  0.00  0.00    +0.000 A 
ATOM     18  C   UNL     1       0.377  -2.005  -1.464  0.00  0.00    +0.000 A 
ATOM     19  N   UNL     1       0.974  -1.548  -0.340  0.00  0.00    +0.000 NA
ATOM     20  C   UNL     1       1.802  -0.490  -0.470  0.00  0.00    +0.000 A 
ENDBRANCH  14  18
ENDBRANCH  13  14
ENDBRANCH   1  13
TORSDOF 4
