REMARK  Name = 
REMARK  5 active torsions:
REMARK  status: ('A' for Active; 'I' for Inactive)
REMARK    1  A    between atoms: N_1  and  C_2
REMARK    2  A    between atoms: C_2  and  C_3
REMARK    3  A    between atoms: C_5  and  C_6
REMARK    4  A    between atoms: C_6  and  N_7
REMARK    5  A    between atoms: C_12  and  C_13
REMARK                            x       y       z     vdW  Elec       q    Type
REMARK                         _______ _______ _______ _____ _____    ______ ____
ROOT
ATOM      1  N   UNL     1       0.397  -1.713  -4.751  0.00  0.00    +0.000 N 
ATOM      2  C   UNL     1      -0.582  -0.762  -4.586  0.00  0.00    +0.000 A 
ATOM      3  C   UNL     1      -0.941  -0.299  -5.828  0.00  0.00    +0.000 A 
ATOM      4  C   UNL     1      -0.061  -0.888  -6.771  0.00  0.00    +0.000 A 
ATOM      5  C   UNL     1       0.090  -0.730  -8.162  0.00  0.00    +0.000 A 
ATOM      6  C   UNL     1       1.123  -1.399  -8.828  0.00  0.00    +0.000 A 
ATOM      7  C   UNL     1       1.963  -2.261  -8.110  0.00  0.00    +0.000 A 
ATOM      8  C   UNL     1       1.801  -2.471  -6.732  0.00  0.00    +0.000 A 
ATOM      9  C   UNL     1       0.788  -1.754  -6.076  0.00  0.00    +0.000 A 
ENDROOT
BRANCH   6  10
ATOM     10  C   UNL     1       1.387  -1.197 -10.284  0.00  0.00    +0.000 C 
ATOM     11  N   UNL     1       0.587  -0.333 -10.979  0.00  0.00    +0.000 N 
ATOM     12  O   UNL     1       2.306  -1.769 -10.852  0.00  0.00    +0.000 OA
ATOM     13  H   UNL     1      -0.166   0.214 -10.595  0.00  0.00    +0.000 HD
ATOM     14  H   UNL     1       0.810  -0.196 -11.961  0.00  0.00    +0.000 HD
ENDBRANCH   6  10
BRANCH   1  15
ATOM     15  C   UNL     1       0.840  -2.611  -3.693  0.00  0.00    +0.000 C 
BRANCH  15  18
ATOM     16  C   UNL     1       2.803  -0.894  -1.005  0.00  0.00    +0.000 C 
ATOM     17  C   UNL     1       1.823  -0.814  -2.163  0.00  0.00    +0.000 C 
ATOM     18  C   UNL     1       2.045  -2.125  -2.888  0.00  0.00    +0.000 C 
ATOM     19  C   UNL     1       2.381  -3.070  -1.737  0.00  0.00    +0.000 C 
ATOM     20  O   UNL     1       2.916  -2.288  -0.659  0.00  0.00    +0.000 OA
BRANCH  16  21
ATOM     21  C   UNL     1       2.397  -0.048   0.215  0.00  0.00    +0.000 C 
BRANCH  21  22
ATOM     22  N   UNL     1       1.099  -0.434   0.784  0.00  0.00    +0.000 NA
ATOM     23  H   UNL     1       0.950   0.078   1.652  0.00  0.00    +0.000 HD
ATOM     24  H   UNL     1       1.152  -1.422   1.040  0.00  0.00    +0.000 HD
ENDBRANCH  21  22
ENDBRANCH  16  21
ENDBRANCH  15  18
ENDBRANCH   1  15
TORSDOF 5
