REMARK  Name = 
REMARK  6 active torsions:
REMARK  status: ('A' for Active; 'I' for Inactive)
REMARK    1  A    between atoms: C_2  and  C_25
REMARK    2  A    between atoms: N_3  and  C_4
REMARK    3  A    between atoms: C_4  and  C_5
REMARK    4  A    between atoms: C_8  and  C_9
REMARK    5  A    between atoms: C_9  and  N_10
REMARK    6  A    between atoms: C_11  and  C_13
REMARK                            x       y       z     vdW  Elec       q    Type
REMARK                         _______ _______ _______ _____ _____    ______ ____
ROOT
ATOM      1  C   UNL     1       3.234   2.666   2.571  0.00  0.00    +0.000 A 
ATOM      2  C   UNL     1       3.109   4.059   2.484  0.00  0.00    +0.000 A 
ATOM      3  C   UNL     1       3.895   4.895   3.283  0.00  0.00    +0.000 A 
ATOM      4  C   UNL     1       4.834   4.355   4.172  0.00  0.00    +0.000 A 
ATOM      5  C   UNL     1       4.969   2.963   4.249  0.00  0.00    +0.000 A 
ATOM      6  C   UNL     1       4.183   2.127   3.450  0.00  0.00    +0.000 A 
ENDROOT
BRANCH   1   7
ATOM      7  C   UNL     1       2.324   1.767   1.781  0.00  0.00    +0.000 C 
BRANCH   7  10
ATOM      8  O   UNL     1       1.043   0.096  -0.021  0.00  0.00    +0.000 OA
ATOM      9  C   UNL     1       2.092   0.635  -0.369  0.00  0.00    +0.000 C 
ATOM     10  N   UNL     1       2.804   1.477   0.457  0.00  0.00    +0.000 N 
ATOM     11  H   UNL     1       3.634   1.921   0.079  0.00  0.00    +0.000 HD
BRANCH   9  12
ATOM     12  C   UNL     1       2.664   0.440  -1.685  0.00  0.00    +0.000 A 
ATOM     13  N   UNL     1       3.813   0.935  -2.114  0.00  0.00    +0.000 NA
ATOM     14  C   UNL     1       3.952   0.467  -3.402  0.00  0.00    +0.000 A 
ATOM     15  C   UNL     1       2.869  -0.295  -3.767  0.00  0.00    +0.000 A 
ATOM     16  N   UNL     1       2.062  -0.311  -2.666  0.00  0.00    +0.000 N 
ATOM     17  H   UNL     1       1.169  -0.778  -2.559  0.00  0.00    +0.000 HD
ENDBRANCH   9  12
ENDBRANCH   7  10
ENDBRANCH   1   7
BRANCH   4  18
ATOM     18  C   UNL     1       5.664   5.248   5.055  0.00  0.00    +0.000 C 
BRANCH  18  19
ATOM     19  N   UNL     1       5.013   5.512   6.314  0.00  0.00    +0.000 N 
ATOM     20  C   UNL     1       5.323   4.829   7.462  0.00  0.00    +0.000 C 
ATOM     21  O   UNL     1       6.162   3.932   7.483  0.00  0.00    +0.000 OA
ATOM     22  H   UNL     1       4.195   6.112   6.291  0.00  0.00    +0.000 HD
BRANCH  20  23
ATOM     23  C   UNL     1       4.655   5.272   8.695  0.00  0.00    +0.000 A 
ATOM     24  C   UNL     1       5.218   4.953   9.924  0.00  0.00    +0.000 A 
ATOM     25  S   UNL     1       4.356   5.572  11.257  0.00  0.00    +0.000 S 
ATOM     26  C   UNL     1       3.172   6.252  10.243  0.00  0.00    +0.000 A 
ATOM     27  N   UNL     1       2.108   6.918  10.767  0.00  0.00    +0.000 NA
ATOM     28  C   UNL     1       1.265   7.348   9.889  0.00  0.00    +0.000 A 
ATOM     29  N   UNL     1       1.396   7.184   8.535  0.00  0.00    +0.000 N 
ATOM     30  C   UNL     1       2.488   6.577   7.958  0.00  0.00    +0.000 A 
ATOM     31  O   UNL     1       2.628   6.548   6.739  0.00  0.00    +0.000 OA
ATOM     32  C   UNL     1       3.444   6.033   8.903  0.00  0.00    +0.000 A 
ATOM     33  H   UNL     1       0.711   7.567   7.900  0.00  0.00    +0.000 HD
ENDBRANCH  20  23
ENDBRANCH  18  19
ENDBRANCH   4  18
TORSDOF 6
