REMARK  Name = 
REMARK  9 active torsions:
REMARK  status: ('A' for Active; 'I' for Inactive)
REMARK    1  A    between atoms: C_1  and  O_2
REMARK    2  A    between atoms: O_2  and  C_3
REMARK    3  A    between atoms: C_10  and  C_11
REMARK    4  A    between atoms: N_13  and  C_14
REMARK    5  A    between atoms: C_14  and  C_15
REMARK    6  A    between atoms: C_18  and  C_19
REMARK    7  A    between atoms: C_19  and  N_20
REMARK    8  A    between atoms: N_20  and  C_21
REMARK    9  A    between atoms: C_21  and  C_22
REMARK                            x       y       z     vdW  Elec       q    Type
REMARK                         _______ _______ _______ _____ _____    ______ ____
ROOT
ATOM      1  C   UNL     1       3.199  -3.103   1.327  0.00  0.00    +0.000 C 
ENDROOT
BRANCH   1   2
ATOM      2  C   UNL     1       2.217  -2.602   2.360  0.00  0.00    +0.000 A 
ATOM      3  C   UNL     1       1.311  -3.485   2.964  0.00  0.00    +0.000 A 
ATOM      4  C   UNL     1       0.375  -3.025   3.900  0.00  0.00    +0.000 A 
ATOM      5  C   UNL     1       0.312  -1.667   4.246  0.00  0.00    +0.000 A 
ATOM      6  C   UNL     1       1.213  -0.784   3.636  0.00  0.00    +0.000 A 
ATOM      7  C   UNL     1       2.154  -1.245   2.705  0.00  0.00    +0.000 A 
BRANCH   5   8
ATOM      8  C   UNL     1      -0.705  -1.164   5.253  0.00  0.00    +0.000 C 
BRANCH   8   9
ATOM      9  N   UNL     1      -0.513  -1.804   6.550  0.00  0.00    +0.000 NA
ATOM     10  H   UNL     1       0.435  -1.617   6.876  0.00  0.00    +0.000 HD
BRANCH   9  11
ATOM     11  C   UNL     1      -1.456  -1.324   7.558  0.00  0.00    +0.000 C 
BRANCH  11  12
ATOM     12  C   UNL     1      -1.236  -2.035   8.876  0.00  0.00    +0.000 A 
ATOM     13  C   UNL     1      -0.916  -1.325  10.042  0.00  0.00    +0.000 A 
ATOM     14  C   UNL     1      -0.760  -1.994  11.260  0.00  0.00    +0.000 A 
ATOM     15  C   UNL     1      -0.915  -3.378  11.324  0.00  0.00    +0.000 A 
ATOM     16  C   UNL     1      -1.210  -4.098  10.169  0.00  0.00    +0.000 A 
ATOM     17  C   UNL     1      -1.371  -3.431   8.954  0.00  0.00    +0.000 A 
ENDBRANCH  11  12
ENDBRANCH   9  11
ENDBRANCH   8   9
ENDBRANCH   5   8
ENDBRANCH   1   2
BRANCH   1  20
ATOM     18  C   UNL     1       3.307  -3.457  -1.117  0.00  0.00    +0.000 C 
ATOM     19  O   UNL     1       4.458  -3.891  -1.049  0.00  0.00    +0.000 OA
ATOM     20  N   UNL     1       2.627  -3.067   0.002  0.00  0.00    +0.000 N 
ATOM     21  H   UNL     1       1.671  -2.748  -0.074  0.00  0.00    +0.000 HD
BRANCH  18  29
ATOM     22  C   UNL     1       0.165  -2.375  -2.011  0.00  0.00    +0.000 A 
ATOM     23  N   UNL     1      -0.951  -1.942  -2.625  0.00  0.00    +0.000 NA
ATOM     24  C   UNL     1      -0.987  -1.977  -3.962  0.00  0.00    +0.000 A 
ATOM     25  N   UNL     1      -0.032  -2.422  -4.775  0.00  0.00    +0.000 NA
ATOM     26  C   UNL     1       1.067  -2.836  -4.120  0.00  0.00    +0.000 A 
ATOM     27  S   UNL     1       2.386  -3.445  -4.997  0.00  0.00    +0.000 S 
ATOM     28  C   UNL     1       3.281  -3.699  -3.574  0.00  0.00    +0.000 A 
ATOM     29  C   UNL     1       2.613  -3.324  -2.412  0.00  0.00    +0.000 A 
ATOM     30  C   UNL     1       1.274  -2.835  -2.744  0.00  0.00    +0.000 A 
BRANCH  22  32
ATOM     31  C   UNL     1      -1.084  -2.388  -0.034  0.00  0.00    +0.000 C 
ATOM     32  O   UNL     1       0.207  -2.322  -0.635  0.00  0.00    +0.000 OA
ENDBRANCH  22  32
ENDBRANCH  18  29
ENDBRANCH   1  20
TORSDOF 8
