REMARK  Name = 
REMARK  5 active torsions:
REMARK  status: ('A' for Active; 'I' for Inactive)
REMARK    1  A    between atoms: C_2  and  C_4
REMARK    2  A    between atoms: C_7  and  N_8
REMARK    3  A    between atoms: N_8  and  C_9
REMARK    4  A    between atoms: C_9  and  C_10
REMARK    5  A    between atoms: C_14  and  N_15
REMARK                            x       y       z     vdW  Elec       q    Type
REMARK                         _______ _______ _______ _____ _____    ______ ____
ROOT
ATOM      1  N   UNL     1       5.038  -2.668  -4.241  0.00  0.00    +0.000 N 
ATOM      2  H   UNL     1       4.532  -3.484  -3.917  0.00  0.00    +0.000 HD
ENDROOT
BRANCH   1   6
ATOM      3  C   UNL     1       7.868  -1.122  -1.531  0.00  0.00    +0.000 A 
ATOM      4  C   UNL     1       7.966  -0.802  -2.886  0.00  0.00    +0.000 A 
ATOM      5  C   UNL     1       7.056  -1.341  -3.803  0.00  0.00    +0.000 A 
ATOM      6  C   UNL     1       6.040  -2.213  -3.397  0.00  0.00    +0.000 A 
ATOM      7  C   UNL     1       5.967  -2.534  -2.032  0.00  0.00    +0.000 A 
ATOM      8  C   UNL     1       6.877  -2.009  -1.107  0.00  0.00    +0.000 A 
BRANCH   3  10
ATOM      9  N   UNL     1       9.311   0.691  -0.789  0.00  0.00    +0.000 N 
ATOM     10  C   UNL     1       8.792  -0.547  -0.520  0.00  0.00    +0.000 C 
ATOM     11  O   UNL     1       9.044  -1.124   0.527  0.00  0.00    +0.000 OA
ATOM     12  H   UNL     1       9.843   1.123  -0.043  0.00  0.00    +0.000 HD
ATOM     13  H   UNL     1       8.916   1.297  -1.493  0.00  0.00    +0.000 HD
ENDBRANCH   3  10
ENDBRANCH   1   6
BRANCH   1  14
ATOM     14  C   UNL     1       5.002  -2.413  -5.678  0.00  0.00    +0.000 C 
BRANCH  14  15
ATOM     15  C   UNL     1       5.797  -3.399  -6.506  0.00  0.00    +0.000 A 
ATOM     16  C   UNL     1       5.445  -4.746  -6.490  0.00  0.00    +0.000 A 
ATOM     17  N   UNL     1       6.009  -5.659  -7.304  0.00  0.00    +0.000 NA
ATOM     18  C   UNL     1       6.955  -5.161  -8.139  0.00  0.00    +0.000 A 
ATOM     19  C   UNL     1       7.354  -3.816  -8.183  0.00  0.00    +0.000 A 
ATOM     20  N   UNL     1       6.768  -2.926  -7.347  0.00  0.00    +0.000 NA
BRANCH  19  21
ATOM     21  N   UNL     1       8.345  -3.405  -9.051  0.00  0.00    +0.000 N 
ATOM     22  C   UNL     1       9.203  -2.266  -8.717  0.00  0.00    +0.000 C 
ATOM     23  C   UNL     1       9.031  -1.115  -9.716  0.00  0.00    +0.000 C 
ATOM     24  O   UNL     1       9.160  -1.565 -11.076  0.00  0.00    +0.000 OA
ATOM     25  C   UNL     1       8.152  -2.546 -11.361  0.00  0.00    +0.000 C 
ATOM     26  C   UNL     1       8.304  -3.787 -10.467  0.00  0.00    +0.000 C 
ENDBRANCH  19  21
ENDBRANCH  14  15
ENDBRANCH   1  14
TORSDOF 5
