REMARK  Name = 
REMARK  5 active torsions:
REMARK  status: ('A' for Active; 'I' for Inactive)
REMARK    1  A    between atoms: C_2  and  C_4
REMARK    2  A    between atoms: C_7  and  N_8
REMARK    3  A    between atoms: N_8  and  C_9
REMARK    4  A    between atoms: C_9  and  C_10
REMARK    5  A    between atoms: C_12  and  C_13
REMARK                            x       y       z     vdW  Elec       q    Type
REMARK                         _______ _______ _______ _____ _____    ______ ____
ROOT
ATOM      1  N   UNL     1       5.473  -2.149   4.113  0.00  0.00    +0.000 N 
ATOM      2  H   UNL     1       5.456  -1.248   4.575  0.00  0.00    +0.000 HD
ENDROOT
BRANCH   1   6
ATOM      3  C   UNL     1       7.838  -2.275   0.623  0.00  0.00    +0.000 A 
ATOM      4  C   UNL     1       7.632  -3.445   1.356  0.00  0.00    +0.000 A 
ATOM      5  C   UNL     1       6.874  -3.414   2.535  0.00  0.00    +0.000 A 
ATOM      6  C   UNL     1       6.324  -2.222   3.019  0.00  0.00    +0.000 A 
ATOM      7  C   UNL     1       6.540  -1.057   2.265  0.00  0.00    +0.000 A 
ATOM      8  C   UNL     1       7.298  -1.075   1.087  0.00  0.00    +0.000 A 
BRANCH   3  10
ATOM      9  N   UNL     1       8.663  -3.418  -1.363  0.00  0.00    +0.000 N 
ATOM     10  C   UNL     1       8.631  -2.263  -0.632  0.00  0.00    +0.000 C 
ATOM     11  O   UNL     1       9.203  -1.253  -1.024  0.00  0.00    +0.000 OA
ATOM     12  H   UNL     1       9.120  -3.364  -2.265  0.00  0.00    +0.000 HD
ATOM     13  H   UNL     1       8.005  -4.170  -1.214  0.00  0.00    +0.000 HD
ENDBRANCH   3  10
ENDBRANCH   1   6
BRANCH   1  14
ATOM     14  C   UNL     1       5.140  -3.291   4.960  0.00  0.00    +0.000 C 
BRANCH  14  15
ATOM     15  C   UNL     1       6.165  -3.582   6.042  0.00  0.00    +0.000 A 
ATOM     16  C   UNL     1       6.453  -2.625   7.020  0.00  0.00    +0.000 A 
ATOM     17  C   UNL     1       7.334  -2.926   8.072  0.00  0.00    +0.000 A 
ATOM     18  C   UNL     1       7.894  -4.209   8.077  0.00  0.00    +0.000 A 
ATOM     19  C   UNL     1       7.569  -5.101   7.066  0.00  0.00    +0.000 A 
ATOM     20  N   UNL     1       6.718  -4.819   6.060  0.00  0.00    +0.000 NA
BRANCH  17  21
ATOM     21  C   UNL     1       7.652  -1.937   9.128  0.00  0.00    +0.000 A 
ATOM     22  C   UNL     1       8.909  -1.880   9.748  0.00  0.00    +0.000 A 
ATOM     23  C   UNL     1       9.179  -0.930  10.735  0.00  0.00    +0.000 A 
ATOM     24  C   UNL     1       8.179  -0.041  11.082  0.00  0.00    +0.000 A 
ATOM     25  N   UNL     1       6.953  -0.051  10.525  0.00  0.00    +0.000 NA
ATOM     26  C   UNL     1       6.723  -0.993   9.576  0.00  0.00    +0.000 A 
ENDBRANCH  17  21
ENDBRANCH  14  15
ENDBRANCH   1  14
TORSDOF 5
