REMARK  Name = 
REMARK  12 active torsions:
REMARK  status: ('A' for Active; 'I' for Inactive)
REMARK    1  A    between atoms: C_1  and  O_2
REMARK    2  A    between atoms: O_2  and  C_3
REMARK    3  A    between atoms: C_5  and  C_6
REMARK    4  A    between atoms: N_13  and  C_14
REMARK    5  A    between atoms: C_14  and  C_15
REMARK    6  A    between atoms: C_20  and  C_21
REMARK    7  A    between atoms: C_21  and  N_22
REMARK    8  A    between atoms: C_23  and  O_25
REMARK    9  A    between atoms: O_25  and  C_26
REMARK   10  A    between atoms: C_26  and  C_27
REMARK   11  A    between atoms: C_26  and  C_28
REMARK   12  A    between atoms: C_26  and  C_29
REMARK                            x       y       z     vdW  Elec       q    Type
REMARK                         _______ _______ _______ _____ _____    ______ ____
ROOT
ATOM      1  C   UNL     1       4.725   2.294  -0.172  0.00  0.00    +0.000 C 
ENDROOT
BRANCH   1   9
ATOM      2  C   UNL     1       7.089   3.741  -1.939  0.00  0.00    +0.000 A 
ATOM      3  C   UNL     1       8.030   4.640  -2.482  0.00  0.00    +0.000 A 
ATOM      4  C   UNL     1       8.168   5.955  -2.035  0.00  0.00    +0.000 A 
ATOM      5  C   UNL     1       7.317   6.424  -1.036  0.00  0.00    +0.000 A 
ATOM      6  C   UNL     1       6.318   5.576  -0.507  0.00  0.00    +0.000 A 
ATOM      7  C   UNL     1       5.330   5.796   0.486  0.00  0.00    +0.000 A 
ATOM      8  C   UNL     1       4.627   4.631   0.635  0.00  0.00    +0.000 A 
ATOM      9  N   UNL     1       5.150   3.691  -0.229  0.00  0.00    +0.000 N 
ATOM     10  C   UNL     1       6.203   4.246  -0.955  0.00  0.00    +0.000 A 
BRANCH   4  11
ATOM     11  C   UNL     1       9.243   6.782  -2.660  0.00  0.00    +0.000 C 
ATOM     12  N   UNL     1       9.443   8.056  -2.210  0.00  0.00    +0.000 N 
ATOM     13  O   UNL     1       9.960   6.338  -3.550  0.00  0.00    +0.000 OA
ATOM     14  H   UNL     1       8.928   8.503  -1.470  0.00  0.00    +0.000 HD
ATOM     15  H   UNL     1      10.199   8.572  -2.642  0.00  0.00    +0.000 HD
ENDBRANCH   4  11
BRANCH   2  17
ATOM     16  C   UNL     1       8.201   1.895  -2.927  0.00  0.00    +0.000 C 
ATOM     17  O   UNL     1       7.003   2.431  -2.352  0.00  0.00    +0.000 OA
ENDBRANCH   2  17
ENDBRANCH   1   9
BRANCH   1  18
ATOM     18  C   UNL     1       3.496   1.981  -0.994  0.00  0.00    +0.000 A 
ATOM     19  C   UNL     1       2.195   2.219  -0.520  0.00  0.00    +0.000 A 
ATOM     20  C   UNL     1       1.091   1.823  -1.274  0.00  0.00    +0.000 A 
ATOM     21  F   UNL     1      -0.144   2.042  -0.799  0.00  0.00    +0.000 F 
ATOM     22  C   UNL     1       1.246   1.199  -2.505  0.00  0.00    +0.000 A 
ATOM     23  C   UNL     1       2.532   0.977  -3.009  0.00  0.00    +0.000 A 
ATOM     24  C   UNL     1       3.644   1.369  -2.246  0.00  0.00    +0.000 A 
BRANCH  23  25
ATOM     25  C   UNL     1       2.739   0.341  -4.350  0.00  0.00    +0.000 C 
BRANCH  25  26
ATOM     26  N   UNL     1       2.901  -1.086  -4.282  0.00  0.00    +0.000 N 
ATOM     27  C   UNL     1       3.139  -1.771  -5.437  0.00  0.00    +0.000 C 
ATOM     28  O   UNL     1       3.244  -1.227  -6.524  0.00  0.00    +0.000 OA
ATOM     29  H   UNL     1       2.872  -1.594  -3.409  0.00  0.00    +0.000 HD
BRANCH  27  30
ATOM     30  O   UNL     1       3.231  -3.103  -5.202  0.00  0.00    +0.000 OA
BRANCH  30  31
ATOM     31  C   UNL     1       3.475  -3.990  -6.331  0.00  0.00    +0.000 C 
ATOM     32  C   UNL     1       4.855  -3.727  -6.949  0.00  0.00    +0.000 C 
ATOM     33  C   UNL     1       3.466  -5.420  -5.766  0.00  0.00    +0.000 C 
ATOM     34  C   UNL     1       2.348  -3.894  -7.371  0.00  0.00    +0.000 C 
ENDBRANCH  30  31
ENDBRANCH  27  30
ENDBRANCH  25  26
ENDBRANCH  23  25
ENDBRANCH   1  18
TORSDOF 8
