REMARK  Name = 
REMARK  5 active torsions:
REMARK  status: ('A' for Active; 'I' for Inactive)
REMARK    1  A    between atoms: C_2  and  C_3
REMARK    2  A    between atoms: C_6  and  N_7
REMARK    3  A    between atoms: N_7  and  C_8
REMARK    4  A    between atoms: C_8  and  C_9
REMARK    5  A    between atoms: C_13  and  C_14
REMARK                            x       y       z     vdW  Elec       q    Type
REMARK                         _______ _______ _______ _____ _____    ______ ____
ROOT
ATOM      1  C   UNL     1       4.588  -1.134   0.131  0.00  0.00    +0.000 C 
ATOM      2  C   UNL     1       4.771  -2.250  -0.884  0.00  0.00    +0.000 C 
ATOM      3  C   UNL     1       4.347  -2.602   0.498  0.00  0.00    +0.000 C 
ENDROOT
BRANCH   1   4
ATOM      4  C   UNL     1       5.772  -0.562   0.925  0.00  0.00    +0.000 A 
ATOM      5  C   UNL     1       5.628  -0.348   2.301  0.00  0.00    +0.000 A 
ATOM      6  C   UNL     1       6.752  -0.143   3.090  0.00  0.00    +0.000 A 
ATOM      7  C   UNL     1       7.999  -0.117   2.483  0.00  0.00    +0.000 A 
ATOM      8  C   UNL     1       8.083  -0.257   1.098  0.00  0.00    +0.000 A 
ATOM      9  N   UNL     1       6.986  -0.467   0.327  0.00  0.00    +0.000 NA
BRANCH   8  10
ATOM     10  C   UNL     1       9.365  -0.242   0.373  0.00  0.00    +0.000 A 
ATOM     11  C   UNL     1      10.520  -0.847   0.904  0.00  0.00    +0.000 A 
ATOM     12  C   UNL     1      11.734  -0.843   0.198  0.00  0.00    +0.000 A 
ATOM     13  C   UNL     1      11.803  -0.229  -1.049  0.00  0.00    +0.000 A 
ATOM     14  C   UNL     1      10.672   0.367  -1.597  0.00  0.00    +0.000 A 
ATOM     15  C   UNL     1       9.465   0.358  -0.893  0.00  0.00    +0.000 A 
ENDBRANCH   8  10
ENDBRANCH   1   4
BRANCH   1  16
ATOM     16  N   UNL     1       3.449  -0.210  -0.054  0.00  0.00    +0.000 N 
ATOM     17  H   UNL     1       2.560  -0.464   0.362  0.00  0.00    +0.000 HD
BRANCH  16  21
ATOM     18  C   UNL     1       3.025   2.478  -3.310  0.00  0.00    +0.000 A 
ATOM     19  C   UNL     1       4.058   1.542  -3.318  0.00  0.00    +0.000 A 
ATOM     20  C   UNL     1       4.220   0.655  -2.243  0.00  0.00    +0.000 A 
ATOM     21  C   UNL     1       3.319   0.643  -1.172  0.00  0.00    +0.000 A 
ATOM     22  C   UNL     1       2.299   1.606  -1.165  0.00  0.00    +0.000 A 
ATOM     23  C   UNL     1       2.148   2.517  -2.222  0.00  0.00    +0.000 A 
BRANCH  18  25
ATOM     24  N   UNL     1       2.744   4.147  -5.277  0.00  0.00    +0.000 NA
ATOM     25  C   UNL     1       2.872   3.400  -4.399  0.00  0.00    +0.000 C 
ENDBRANCH  18  25
ENDBRANCH  16  21
ENDBRANCH   1  16
TORSDOF 5
