REMARK  Name = 
REMARK  6 active torsions:
REMARK  status: ('A' for Active; 'I' for Inactive)
REMARK    1  A    between atoms: C_1  and  C_2
REMARK    2  A    between atoms: N_9  and  C_10
REMARK    3  A    between atoms: C_10  and  C_11
REMARK    4  A    between atoms: C_14  and  C_15
REMARK    5  A    between atoms: C_15  and  N_16
REMARK    6  A    between atoms: C_17  and  C_19
REMARK                            x       y       z     vdW  Elec       q    Type
REMARK                         _______ _______ _______ _____ _____    ______ ____
ROOT
ATOM      1  C   UNL     1      -0.518  -4.170  -0.152  0.00  0.00    +0.000 A 
ATOM      2  C   UNL     1      -1.250  -5.369  -0.170  0.00  0.00    +0.000 A 
ATOM      3  C   UNL     1      -2.654  -5.367  -0.152  0.00  0.00    +0.000 A 
ATOM      4  C   UNL     1      -3.364  -4.159  -0.116  0.00  0.00    +0.000 A 
ATOM      5  C   UNL     1      -2.632  -2.969  -0.123  0.00  0.00    +0.000 A 
ATOM      6  F   UNL     1      -3.275  -1.792  -0.098  0.00  0.00    +0.000 F 
ATOM      7  C   UNL     1      -1.233  -2.966  -0.142  0.00  0.00    +0.000 A 
ENDROOT
BRANCH   1   8
ATOM      8  C   UNL     1       0.995  -4.187  -0.092  0.00  0.00    +0.000 C 
BRANCH   8  17
ATOM      9  C   UNL     1       4.510  -3.758  -2.825  0.00  0.00    +0.000 C 
ATOM     10  C   UNL     1       3.509  -4.317  -3.777  0.00  0.00    +0.000 A 
ATOM     11  C   UNL     1       3.598  -4.359  -5.160  0.00  0.00    +0.000 A 
ATOM     12  C   UNL     1       2.521  -5.125  -5.646  0.00  0.00    +0.000 A 
ATOM     13  C   UNL     1       1.815  -5.560  -4.551  0.00  0.00    +0.000 A 
ATOM     14  N   UNL     1       2.372  -5.034  -3.396  0.00  0.00    +0.000 N 
ATOM     15  C   UNL     1       1.848  -5.283  -2.109  0.00  0.00    +0.000 C 
ATOM     16  O   UNL     1       1.522  -6.424  -1.802  0.00  0.00    +0.000 OA
ATOM     17  N   UNL     1       1.651  -4.136  -1.384  0.00  0.00    +0.000 N 
ATOM     18  H   UNL     1       1.720  -3.246  -1.857  0.00  0.00    +0.000 HD
ENDBRANCH   8  17
ENDBRANCH   1   8
BRANCH   4  19
ATOM     19  C   UNL     1      -4.870  -4.144  -0.120  0.00  0.00    +0.000 C 
BRANCH  19  20
ATOM     20  N   UNL     1      -5.391  -4.225  -1.463  0.00  0.00    +0.000 N 
ATOM     21  C   UNL     1      -6.737  -4.299  -1.715  0.00  0.00    +0.000 C 
ATOM     22  O   UNL     1      -7.558  -4.452  -0.814  0.00  0.00    +0.000 OA
ATOM     23  H   UNL     1      -4.768  -3.930  -2.207  0.00  0.00    +0.000 HD
BRANCH  21  24
ATOM     24  C   UNL     1      -7.156  -4.182  -3.115  0.00  0.00    +0.000 A 
ATOM     25  C   UNL     1      -8.375  -4.701  -3.523  0.00  0.00    +0.000 A 
ATOM     26  S   UNL     1      -8.724  -4.431  -5.171  0.00  0.00    +0.000 S 
ATOM     27  C   UNL     1      -7.279  -3.559  -5.389  0.00  0.00    +0.000 A 
ATOM     28  N   UNL     1      -6.994  -2.962  -6.578  0.00  0.00    +0.000 NA
ATOM     29  C   UNL     1      -5.874  -2.319  -6.598  0.00  0.00    +0.000 A 
ATOM     30  N   UNL     1      -4.999  -2.245  -5.546  0.00  0.00    +0.000 N 
ATOM     31  C   UNL     1      -5.219  -2.880  -4.347  0.00  0.00    +0.000 A 
ATOM     32  O   UNL     1      -4.364  -2.889  -3.467  0.00  0.00    +0.000 OA
ATOM     33  C   UNL     1      -6.502  -3.550  -4.244  0.00  0.00    +0.000 A 
ATOM     34  H   UNL     1      -4.113  -1.772  -5.642  0.00  0.00    +0.000 HD
ENDBRANCH  21  24
ENDBRANCH  19  20
ENDBRANCH   4  19
TORSDOF 5
