REMARK  Name = 
REMARK  6 active torsions:
REMARK  status: ('A' for Active; 'I' for Inactive)
REMARK    1  A    between atoms: C_2  and  C_25
REMARK    2  A    between atoms: N_3  and  C_4
REMARK    3  A    between atoms: C_4  and  C_5
REMARK    4  A    between atoms: C_8  and  C_9
REMARK    5  A    between atoms: C_9  and  N_10
REMARK    6  A    between atoms: C_11  and  C_13
REMARK                            x       y       z     vdW  Elec       q    Type
REMARK                         _______ _______ _______ _____ _____    ______ ____
ROOT
ATOM      1  C   UNL     1       3.309   2.023  -3.116  0.00  0.00    +0.000 A 
ATOM      2  C   UNL     1       3.215   3.405  -3.324  0.00  0.00    +0.000 A 
ATOM      3  C   UNL     1       4.077   4.050  -4.217  0.00  0.00    +0.000 A 
ATOM      4  C   UNL     1       5.037   3.323  -4.932  0.00  0.00    +0.000 A 
ATOM      5  C   UNL     1       5.141   1.944  -4.710  0.00  0.00    +0.000 A 
ATOM      6  C   UNL     1       4.279   1.298  -3.818  0.00  0.00    +0.000 A 
ENDROOT
BRANCH   1   7
ATOM      7  C   UNL     1       2.391   1.329  -2.149  0.00  0.00    +0.000 C 
BRANCH   7  10
ATOM      8  O   UNL     1       0.389  -0.032  -0.830  0.00  0.00    +0.000 OA
ATOM      9  C   UNL     1       0.214   0.203  -2.025  0.00  0.00    +0.000 C 
ATOM     10  N   UNL     1       1.178   0.860  -2.770  0.00  0.00    +0.000 N 
ATOM     11  H   UNL     1       0.978   1.057  -3.745  0.00  0.00    +0.000 HD
BRANCH   9  12
ATOM     12  C   UNL     1      -0.990  -0.154  -2.774  0.00  0.00    +0.000 A 
ATOM     13  N   UNL     1      -1.140   0.063  -4.069  0.00  0.00    +0.000 NA
ATOM     14  C   UNL     1      -2.393  -0.376  -4.460  0.00  0.00    +0.000 A 
ATOM     15  C   UNL     1      -3.180  -0.909  -3.462  0.00  0.00    +0.000 A 
ATOM     16  S   UNL     1      -2.326  -0.884  -1.978  0.00  0.00    +0.000 S 
ENDBRANCH   9  12
ENDBRANCH   7  10
ENDBRANCH   1   7
BRANCH   4  17
ATOM     17  C   UNL     1       5.964   4.009  -5.903  0.00  0.00    +0.000 C 
BRANCH  17  18
ATOM     18  N   UNL     1       7.174   4.448  -5.258  0.00  0.00    +0.000 N 
ATOM     19  C   UNL     1       8.119   5.171  -5.944  0.00  0.00    +0.000 C 
ATOM     20  O   UNL     1       7.950   5.515  -7.111  0.00  0.00    +0.000 OA
ATOM     21  H   UNL     1       7.429   3.991  -4.388  0.00  0.00    +0.000 HD
BRANCH  19  22
ATOM     22  C   UNL     1       9.317   5.569  -5.195  0.00  0.00    +0.000 A 
ATOM     23  C   UNL     1      10.066   6.657  -5.626  0.00  0.00    +0.000 A 
ATOM     24  S   UNL     1      11.392   7.019  -4.618  0.00  0.00    +0.000 S 
ATOM     25  C   UNL     1      11.045   5.703  -3.597  0.00  0.00    +0.000 A 
ATOM     26  N   UNL     1      11.832   5.426  -2.523  0.00  0.00    +0.000 NA
ATOM     27  C   UNL     1      11.475   4.379  -1.857  0.00  0.00    +0.000 A 
ATOM     28  N   UNL     1      10.399   3.587  -2.164  0.00  0.00    +0.000 N 
ATOM     29  C   UNL     1       9.559   3.847  -3.221  0.00  0.00    +0.000 A 
ATOM     30  O   UNL     1       8.579   3.142  -3.444  0.00  0.00    +0.000 OA
ATOM     31  C   UNL     1       9.923   5.007  -4.011  0.00  0.00    +0.000 A 
ATOM     32  H   UNL     1      10.169   2.785  -1.598  0.00  0.00    +0.000 HD
ENDBRANCH  19  22
ENDBRANCH  17  18
ENDBRANCH   4  17
TORSDOF 6
