REMARK  Name = 
REMARK  6 active torsions:
REMARK  status: ('A' for Active; 'I' for Inactive)
REMARK    1  A    between atoms: C_2  and  C_19
REMARK    2  A    between atoms: N_3  and  C_4
REMARK    3  A    between atoms: C_4  and  C_5
REMARK    4  A    between atoms: C_8  and  C_9
REMARK    5  A    between atoms: C_9  and  O_10
REMARK    6  A    between atoms: O_10  and  C_11
REMARK                            x       y       z     vdW  Elec       q    Type
REMARK                         _______ _______ _______ _____ _____    ______ ____
ROOT
ATOM      1  O   UNL     1       0.361   2.532  -2.525  0.00  0.00    +0.000 OA
ATOM      2  C   UNL     1       0.157   1.401  -2.958  0.00  0.00    +0.000 C 
ATOM      3  N   UNL     1       1.074   0.390  -2.836  0.00  0.00    +0.000 N 
ATOM      4  H   UNL     1       0.942  -0.463  -3.368  0.00  0.00    +0.000 HD
ENDROOT
BRANCH   2   5
ATOM      5  C   UNL     1      -1.119   1.044  -3.591  0.00  0.00    +0.000 A 
ATOM      6  C   UNL     1      -2.251   1.804  -3.330  0.00  0.00    +0.000 A 
ATOM      7  S   UNL     1      -3.650   1.244  -4.129  0.00  0.00    +0.000 S 
ATOM      8  C   UNL     1      -2.781  -0.008  -4.887  0.00  0.00    +0.000 A 
ATOM      9  N   UNL     1      -3.397  -0.858  -5.754  0.00  0.00    +0.000 NA
ATOM     10  C   UNL     1      -2.611  -1.729  -6.294  0.00  0.00    +0.000 A 
ATOM     11  N   UNL     1      -1.269  -1.834  -6.036  0.00  0.00    +0.000 N 
ATOM     12  C   UNL     1      -0.622  -1.049  -5.113  0.00  0.00    +0.000 A 
ATOM     13  O   UNL     1       0.548  -1.258  -4.811  0.00  0.00    +0.000 OA
ATOM     14  C   UNL     1      -1.450  -0.017  -4.514  0.00  0.00    +0.000 A 
ATOM     15  H   UNL     1      -0.715  -2.559  -6.468  0.00  0.00    +0.000 HD
ENDBRANCH   2   5
BRANCH   3  16
ATOM     16  C   UNL     1       2.397   0.602  -2.306  0.00  0.00    +0.000 C 
BRANCH  16  17
ATOM     17  C   UNL     1       3.390   0.856  -3.409  0.00  0.00    +0.000 A 
ATOM     18  C   UNL     1       3.619   2.161  -3.861  0.00  0.00    +0.000 A 
ATOM     19  C   UNL     1       4.532   2.406  -4.889  0.00  0.00    +0.000 A 
ATOM     20  C   UNL     1       5.216   1.348  -5.499  0.00  0.00    +0.000 A 
ATOM     21  C   UNL     1       4.985   0.041  -5.050  0.00  0.00    +0.000 A 
ATOM     22  C   UNL     1       4.071  -0.204  -4.022  0.00  0.00    +0.000 A 
BRANCH  20  23
ATOM     23  C   UNL     1       6.176   1.612  -6.631  0.00  0.00    +0.000 C 
BRANCH  23  24
ATOM     24  O   UNL     1       7.482   1.855  -6.111  0.00  0.00    +0.000 OA
BRANCH  24  25
ATOM     25  C   UNL     1       8.453   2.136  -7.031  0.00  0.00    +0.000 A 
ATOM     26  C   UNL     1       8.297   2.158  -8.416  0.00  0.00    +0.000 A 
ATOM     27  C   UNL     1       9.385   2.467  -9.230  0.00  0.00    +0.000 A 
ATOM     28  C   UNL     1      10.601   2.747  -8.631  0.00  0.00    +0.000 A 
ATOM     29  N   UNL     1      10.796   2.733  -7.296  0.00  0.00    +0.000 NA
ATOM     30  C   UNL     1       9.718   2.428  -6.531  0.00  0.00    +0.000 A 
ENDBRANCH  24  25
ENDBRANCH  23  24
ENDBRANCH  20  23
ENDBRANCH  16  17
ENDBRANCH   3  16
TORSDOF 6
