REMARK  Name = 
REMARK  10 active torsions:
REMARK  status: ('A' for Active; 'I' for Inactive)
REMARK    1  A    between atoms: N_1  and  C_2
REMARK    2  A    between atoms: C_2  and  C_3
REMARK    3  A    between atoms: C_3  and  N_4
REMARK    4  A    between atoms: N_4  and  C_5
REMARK    5  A    between atoms: C_5  and  C_6
REMARK    6  A    between atoms: C_9  and  C_10
REMARK    7  A    between atoms: C_10  and  C_11
REMARK    8  A    between atoms: C_14  and  C_15
REMARK    9  A    between atoms: C_15  and  N_16
REMARK   10  A    between atoms: C_17  and  C_19
REMARK                            x       y       z     vdW  Elec       q    Type
REMARK                         _______ _______ _______ _____ _____    ______ ____
ROOT
ATOM      1  C   UNL     1      11.401  -2.348   2.105  0.00  0.00    +0.000 A 
ATOM      2  C   UNL     1      11.134  -3.142   3.228  0.00  0.00    +0.000 A 
ATOM      3  C   UNL     1      11.716  -2.849   4.466  0.00  0.00    +0.000 A 
ATOM      4  C   UNL     1      12.568  -1.746   4.608  0.00  0.00    +0.000 A 
ATOM      5  C   UNL     1      12.866  -0.975   3.477  0.00  0.00    +0.000 A 
ATOM      6  C   UNL     1      12.282  -1.267   2.241  0.00  0.00    +0.000 A 
ENDROOT
BRANCH   1   7
ATOM      7  C   UNL     1      10.741  -2.643   0.777  0.00  0.00    +0.000 C 
BRANCH   7  11
ATOM      8  C   UNL     1       7.068  -0.570   0.125  0.00  0.00    +0.000 A 
ATOM      9  C   UNL     1       7.025  -1.825   0.724  0.00  0.00    +0.000 A 
ATOM     10  C   UNL     1       8.217  -2.508   0.950  0.00  0.00    +0.000 A 
ATOM     11  C   UNL     1       9.430  -1.934   0.564  0.00  0.00    +0.000 A 
ATOM     12  C   UNL     1       9.376  -0.673  -0.022  0.00  0.00    +0.000 A 
ATOM     13  N   UNL     1       8.235   0.016  -0.251  0.00  0.00    +0.000 NA
BRANCH   8  14
ATOM     14  C   UNL     1       5.792   0.237  -0.026  0.00  0.00    +0.000 C 
BRANCH  14  15
ATOM     15  N   UNL     1       5.164   0.614   1.258  0.00  0.00    +0.000 NA
ATOM     16  H   UNL     1       4.395   1.249   1.028  0.00  0.00    +0.000 HD
BRANCH  15  17
ATOM     17  C   UNL     1       6.082   1.392   2.113  0.00  0.00    +0.000 C 
BRANCH  17  18
ATOM     18  C   UNL     1       6.455   2.769   1.529  0.00  0.00    +0.000 C 
BRANCH  18  19
ATOM     19  N   UNL     1       5.253   3.550   1.211  0.00  0.00    +0.000 NA
ATOM     20  H   UNL     1       5.541   4.444   0.816  0.00  0.00    +0.000 HD
ATOM     21  H   UNL     1       4.768   3.768   2.081  0.00  0.00    +0.000 HD
ENDBRANCH  18  19
ENDBRANCH  17  18
ENDBRANCH  15  17
ENDBRANCH  14  15
ENDBRANCH   8  14
ENDBRANCH   7  11
ENDBRANCH   1   7
BRANCH   4  22
ATOM     22  C   UNL     1      13.173  -1.401   5.945  0.00  0.00    +0.000 C 
BRANCH  22  23
ATOM     23  N   UNL     1      14.448  -2.046   6.130  0.00  0.00    +0.000 N 
ATOM     24  C   UNL     1      15.127  -1.938   7.316  0.00  0.00    +0.000 C 
ATOM     25  O   UNL     1      14.660  -1.338   8.282  0.00  0.00    +0.000 OA
ATOM     26  H   UNL     1      14.944  -2.334   5.293  0.00  0.00    +0.000 HD
BRANCH  24  27
ATOM     27  C   UNL     1      16.422  -2.626   7.399  0.00  0.00    +0.000 A 
ATOM     28  C   UNL     1      16.929  -2.990   8.639  0.00  0.00    +0.000 A 
ATOM     29  S   UNL     1      18.418  -3.816   8.555  0.00  0.00    +0.000 S 
ATOM     30  C   UNL     1      18.462  -3.673   6.861  0.00  0.00    +0.000 A 
ATOM     31  N   UNL     1      19.512  -4.161   6.146  0.00  0.00    +0.000 NA
ATOM     32  C   UNL     1      19.429  -3.960   4.873  0.00  0.00    +0.000 A 
ATOM     33  N   UNL     1      18.392  -3.316   4.248  0.00  0.00    +0.000 N 
ATOM     34  C   UNL     1      17.297  -2.833   4.928  0.00  0.00    +0.000 A 
ATOM     35  O   UNL     1      16.366  -2.298   4.331  0.00  0.00    +0.000 OA
ATOM     36  C   UNL     1      17.346  -3.022   6.363  0.00  0.00    +0.000 A 
ATOM     37  H   UNL     1      18.384  -3.201   3.244  0.00  0.00    +0.000 HD
ENDBRANCH  24  27
ENDBRANCH  22  23
ENDBRANCH   4  22
TORSDOF 10
