REMARK  Name = 
REMARK  10 active torsions:
REMARK  status: ('A' for Active; 'I' for Inactive)
REMARK    1  A    between atoms: N_1  and  C_2
REMARK    2  A    between atoms: C_2  and  C_3
REMARK    3  A    between atoms: C_3  and  N_4
REMARK    4  A    between atoms: C_3  and  C_20
REMARK    5  A    between atoms: N_4  and  C_5
REMARK    6  A    between atoms: C_5  and  C_6
REMARK    7  A    between atoms: C_9  and  C_10
REMARK    8  A    between atoms: C_10  and  N_11
REMARK    9  A    between atoms: N_11  and  C_12
REMARK   10  A    between atoms: C_12  and  C_13
REMARK                            x       y       z     vdW  Elec       q    Type
REMARK                         _______ _______ _______ _____ _____    ______ ____
ROOT
ATOM      1  N   UNL     1       2.475   0.871  -2.280  0.00  0.00    +0.000 NA
ATOM      2  H   UNL     1       2.749   0.804  -3.264  0.00  0.00    +0.000 HD
ENDROOT
BRANCH   1   3
ATOM      3  C   UNL     1       2.953  -0.328  -1.570  0.00  0.00    +0.000 C 
BRANCH   3   4
ATOM      4  C   UNL     1       4.464  -0.391  -1.808  0.00  0.00    +0.000 A 
ATOM      5  C   UNL     1       5.294   0.721  -1.867  0.00  0.00    +0.000 A 
ATOM      6  S   UNL     1       6.933   0.338  -2.140  0.00  0.00    +0.000 S 
ATOM      7  C   UNL     1       6.600  -1.330  -2.149  0.00  0.00    +0.000 A 
ATOM      8  N   UNL     1       7.598  -2.242  -2.306  0.00  0.00    +0.000 NA
ATOM      9  C   UNL     1       7.203  -3.471  -2.262  0.00  0.00    +0.000 A 
ATOM     10  N   UNL     1       5.903  -3.871  -2.085  0.00  0.00    +0.000 N 
ATOM     11  C   UNL     1       4.854  -2.987  -1.946  0.00  0.00    +0.000 A 
ATOM     12  O   UNL     1       3.700  -3.374  -1.805  0.00  0.00    +0.000 OA
ATOM     13  C   UNL     1       5.254  -1.590  -1.968  0.00  0.00    +0.000 A 
ATOM     14  H   UNL     1       5.666  -4.851  -2.063  0.00  0.00    +0.000 HD
ENDBRANCH   3   4
BRANCH   3  15
ATOM     15  C   UNL     1       2.673  -0.335  -0.026  0.00  0.00    +0.000 C 
BRANCH  15  16
ATOM     16  N   UNL     1       1.260  -0.371   0.384  0.00  0.00    +0.000 NA
ATOM     17  H   UNL     1       1.206  -0.390   1.401  0.00  0.00    +0.000 HD
ATOM     18  H   UNL     1       0.829  -1.230   0.046  0.00  0.00    +0.000 HD
ENDBRANCH  15  16
ENDBRANCH   3  15
ENDBRANCH   1   3
BRANCH   1  19
ATOM     19  C   UNL     1       1.019   1.022  -2.278  0.00  0.00    +0.000 C 
BRANCH  19  20
ATOM     20  C   UNL     1       0.590   2.182  -3.160  0.00  0.00    +0.000 A 
ATOM     21  C   UNL     1      -0.080   3.268  -2.600  0.00  0.00    +0.000 A 
ATOM     22  C   UNL     1      -0.464   4.319  -3.426  0.00  0.00    +0.000 A 
ATOM     23  C   UNL     1      -0.164   4.273  -4.788  0.00  0.00    +0.000 A 
ATOM     24  C   UNL     1       0.513   3.153  -5.256  0.00  0.00    +0.000 A 
ATOM     25  N   UNL     1       0.889   2.108  -4.483  0.00  0.00    +0.000 NA
BRANCH  23  26
ATOM     26  C   UNL     1      -0.588   5.373  -5.724  0.00  0.00    +0.000 C 
BRANCH  26  27
ATOM     27  N   UNL     1      -0.053   6.667  -5.314  0.00  0.00    +0.000 NA
ATOM     28  H   UNL     1       0.968   6.624  -5.299  0.00  0.00    +0.000 HD
BRANCH  27  29
ATOM     29  C   UNL     1      -0.435   7.709  -6.270  0.00  0.00    +0.000 C 
BRANCH  29  30
ATOM     30  C   UNL     1       0.163   8.999  -5.814  0.00  0.00    +0.000 A 
ATOM     31  C   UNL     1      -0.356   9.940  -4.946  0.00  0.00    +0.000 A 
ATOM     32  N   UNL     1       0.599  10.907  -4.850  0.00  0.00    +0.000 N 
ATOM     33  C   UNL     1       1.644  10.539  -5.645  0.00  0.00    +0.000 A 
ATOM     34  N   UNL     1       1.413   9.393  -6.245  0.00  0.00    +0.000 NA
ATOM     35  H   UNL     1       0.551  11.744  -4.283  0.00  0.00    +0.000 HD
ENDBRANCH  29  30
ENDBRANCH  27  29
ENDBRANCH  26  27
ENDBRANCH  23  26
ENDBRANCH  19  20
ENDBRANCH   1  19
TORSDOF 10
