REMARK  Name = 
REMARK  9 active torsions:
REMARK  status: ('A' for Active; 'I' for Inactive)
REMARK    1  A    between atoms: C_1  and  O_2
REMARK    2  A    between atoms: O_2  and  C_3
REMARK    3  A    between atoms: C_10  and  C_11
REMARK    4  A    between atoms: N_13  and  C_14
REMARK    5  A    between atoms: C_14  and  C_15
REMARK    6  A    between atoms: C_18  and  O_19
REMARK    7  A    between atoms: O_19  and  C_20
REMARK    8  A    between atoms: C_20  and  C_21
REMARK    9  A    between atoms: C_21  and  C_22
REMARK                            x       y       z     vdW  Elec       q    Type
REMARK                         _______ _______ _______ _____ _____    ______ ____
ROOT
ATOM      1  C   UNL     1       3.062  -2.309   2.275  0.00  0.00    +0.000 C 
ENDROOT
BRANCH   1   2
ATOM      2  C   UNL     1       2.007  -1.474   2.963  0.00  0.00    +0.000 A 
ATOM      3  C   UNL     1       0.909  -2.093   3.578  0.00  0.00    +0.000 A 
ATOM      4  C   UNL     1      -0.075  -1.334   4.229  0.00  0.00    +0.000 A 
ATOM      5  C   UNL     1       0.000   0.061   4.263  0.00  0.00    +0.000 A 
ATOM      6  C   UNL     1       1.078   0.686   3.636  0.00  0.00    +0.000 A 
ATOM      7  C   UNL     1       2.077  -0.073   3.004  0.00  0.00    +0.000 A 
BRANCH   5   8
ATOM      8  O   UNL     1      -0.929   0.892   4.851  0.00  0.00    +0.000 OA
BRANCH   8   9
ATOM      9  C   UNL     1      -1.609   0.318   5.973  0.00  0.00    +0.000 C 
BRANCH   9  10
ATOM     10  C   UNL     1      -2.620   1.287   6.603  0.00  0.00    +0.000 C 
BRANCH  10  11
ATOM     11  C   UNL     1      -3.341   0.666   7.781  0.00  0.00    +0.000 A 
ATOM     12  N   UNL     1      -4.061  -0.460   7.529  0.00  0.00    +0.000 NA
ATOM     13  C   UNL     1      -4.746  -1.016   8.561  0.00  0.00    +0.000 A 
ATOM     14  C   UNL     1      -4.763  -0.505   9.845  0.00  0.00    +0.000 A 
ATOM     15  C   UNL     1      -4.028   0.647  10.096  0.00  0.00    +0.000 A 
ATOM     16  C   UNL     1      -3.311   1.238   9.057  0.00  0.00    +0.000 A 
ATOM     17  F   UNL     1      -2.603   2.343   9.312  0.00  0.00    +0.000 F 
ENDBRANCH  10  11
ENDBRANCH   9  10
ENDBRANCH   8   9
ENDBRANCH   5   8
ENDBRANCH   1   2
BRANCH   1  20
ATOM     18  C   UNL     1       3.544  -3.286   0.049  0.00  0.00    +0.000 C 
ATOM     19  O   UNL     1       4.595  -3.806   0.433  0.00  0.00    +0.000 OA
ATOM     20  N   UNL     1       2.754  -2.555   0.891  0.00  0.00    +0.000 N 
ATOM     21  H   UNL     1       1.915  -2.114   0.529  0.00  0.00    +0.000 HD
BRANCH  18  29
ATOM     22  C   UNL     1       0.746  -2.178  -1.615  0.00  0.00    +0.000 A 
ATOM     23  N   UNL     1      -0.224  -1.852  -2.489  0.00  0.00    +0.000 NA
ATOM     24  C   UNL     1      -0.095  -2.266  -3.751  0.00  0.00    +0.000 A 
ATOM     25  N   UNL     1       0.897  -2.993  -4.253  0.00  0.00    +0.000 NA
ATOM     26  C   UNL     1       1.846  -3.299  -3.351  0.00  0.00    +0.000 A 
ATOM     27  S   UNL     1       3.192  -4.216  -3.817  0.00  0.00    +0.000 S 
ATOM     28  C   UNL     1       3.848  -4.148  -2.249  0.00  0.00    +0.000 A 
ATOM     29  C   UNL     1       3.075  -3.431  -1.346  0.00  0.00    +0.000 A 
ATOM     30  C   UNL     1       1.866  -2.928  -2.004  0.00  0.00    +0.000 A 
BRANCH  22  32
ATOM     31  C   UNL     1      -0.715  -1.451   0.047  0.00  0.00    +0.000 C 
ATOM     32  O   UNL     1       0.636  -1.686  -0.332  0.00  0.00    +0.000 OA
ENDBRANCH  22  32
ENDBRANCH  18  29
ENDBRANCH   1  20
TORSDOF 8
