REMARK  Name = 
REMARK  10 active torsions:
REMARK  status: ('A' for Active; 'I' for Inactive)
REMARK    1  A    between atoms: C_1  and  C_2
REMARK    2  A    between atoms: C_2  and  C_3
REMARK    3  A    between atoms: C_3  and  N_4
REMARK    4  A    between atoms: C_3  and  C_27
REMARK    5  A    between atoms: N_4  and  C_5
REMARK    6  A    between atoms: C_5  and  C_6
REMARK    7  A    between atoms: C_9  and  C_10
REMARK    8  A    between atoms: C_10  and  C_11
REMARK    9  A    between atoms: C_10  and  N_12
REMARK   10  A    between atoms: C_13  and  C_15
REMARK                            x       y       z     vdW  Elec       q    Type
REMARK                         _______ _______ _______ _____ _____    ______ ____
ROOT
ATOM      1  C   UNL     1       1.521   4.033  -7.123  0.00  0.00    +0.000 A 
ATOM      2  C   UNL     1       2.215   5.203  -6.833  0.00  0.00    +0.000 A 
ATOM      3  C   UNL     1       2.215   5.673  -5.524  0.00  0.00    +0.000 A 
ATOM      4  C   UNL     1       1.523   4.972  -4.531  0.00  0.00    +0.000 A 
ATOM      5  C   UNL     1       0.870   3.807  -4.912  0.00  0.00    +0.000 A 
ATOM      6  N   UNL     1       0.859   3.326  -6.172  0.00  0.00    +0.000 NA
ENDROOT
BRANCH   4   7
ATOM      7  C   UNL     1       1.452   5.447  -3.101  0.00  0.00    +0.000 C 
ATOM      8  C   UNL     1       0.721   6.786  -3.009  0.00  0.00    +0.000 C 
BRANCH   7   9
ATOM      9  N   UNL     1       2.782   5.543  -2.532  0.00  0.00    +0.000 N 
ATOM     10  C   UNL     1       3.042   5.229  -1.224  0.00  0.00    +0.000 C 
ATOM     11  O   UNL     1       2.173   4.794  -0.472  0.00  0.00    +0.000 OA
ATOM     12  H   UNL     1       3.490   6.024  -3.076  0.00  0.00    +0.000 HD
BRANCH  10  13
ATOM     13  C   UNL     1       4.426   5.393  -0.770  0.00  0.00    +0.000 A 
ATOM     14  C   UNL     1       4.879   4.655   0.314  0.00  0.00    +0.000 A 
ATOM     15  S   UNL     1       6.496   4.982   0.739  0.00  0.00    +0.000 S 
ATOM     16  C   UNL     1       6.638   6.150  -0.490  0.00  0.00    +0.000 A 
ATOM     17  N   UNL     1       7.786   6.864  -0.642  0.00  0.00    +0.000 NA
ATOM     18  C   UNL     1       7.746   7.740  -1.589  0.00  0.00    +0.000 A 
ATOM     19  N   UNL     1       6.671   7.954  -2.412  0.00  0.00    +0.000 N 
ATOM     20  C   UNL     1       5.514   7.212  -2.336  0.00  0.00    +0.000 A 
ATOM     21  O   UNL     1       4.612   7.349  -3.158  0.00  0.00    +0.000 OA
ATOM     22  C   UNL     1       5.484   6.254  -1.246  0.00  0.00    +0.000 A 
ATOM     23  H   UNL     1       6.722   8.632  -3.156  0.00  0.00    +0.000 HD
ENDBRANCH  10  13
ENDBRANCH   7   9
ENDBRANCH   4   7
BRANCH   1  24
ATOM     24  C   UNL     1       1.534   3.465  -8.529  0.00  0.00    +0.000 C 
BRANCH  24  25
ATOM     25  N   UNL     1       0.187   3.328  -9.084  0.00  0.00    +0.000 NA
ATOM     26  H   UNL     1      -0.266   4.241  -9.089  0.00  0.00    +0.000 HD
BRANCH  25  27
ATOM     27  C   UNL     1       0.158   2.782 -10.454  0.00  0.00    +0.000 C 
BRANCH  27  28
ATOM     28  C   UNL     1      -1.287   2.814 -10.965  0.00  0.00    +0.000 A 
ATOM     29  C   UNL     1      -2.281   2.049 -10.349  0.00  0.00    +0.000 A 
ATOM     30  C   UNL     1      -3.596   2.156 -10.794  0.00  0.00    +0.000 A 
ATOM     31  C   UNL     1      -3.894   3.027 -11.831  0.00  0.00    +0.000 A 
ATOM     32  C   UNL     1      -2.856   3.756 -12.388  0.00  0.00    +0.000 A 
ATOM     33  N   UNL     1      -1.567   3.670 -11.982  0.00  0.00    +0.000 NA
ENDBRANCH  27  28
BRANCH  27  35
ATOM     34  C   UNL     1       0.875   0.791 -11.920  0.00  0.00    +0.000 C 
ATOM     35  C   UNL     1       0.772   1.364 -10.515  0.00  0.00    +0.000 C 
ENDBRANCH  27  35
ENDBRANCH  25  27
ENDBRANCH  24  25
ENDBRANCH   1  24
TORSDOF 8
