REMARK  Name = 
REMARK  5 active torsions:
REMARK  status: ('A' for Active; 'I' for Inactive)
REMARK    1  A    between atoms: N_1  and  C_2
REMARK    2  A    between atoms: C_2  and  C_3
REMARK    3  A    between atoms: C_6  and  O_7
REMARK    4  A    between atoms: O_7  and  C_8
REMARK    5  A    between atoms: C_8  and  C_9
REMARK                            x       y       z     vdW  Elec       q    Type
REMARK                         _______ _______ _______ _____ _____    ______ ____
ROOT
ATOM      1  C   UNL     1       2.993  -1.065  -0.864  0.00  0.00    +0.000 A 
ATOM      2  C   UNL     1       3.950  -0.832  -1.863  0.00  0.00    +0.000 A 
ATOM      3  C   UNL     1       4.398  -1.871  -2.690  0.00  0.00    +0.000 A 
ATOM      4  C   UNL     1       3.895  -3.160  -2.524  0.00  0.00    +0.000 A 
ATOM      5  C   UNL     1       2.936  -3.397  -1.538  0.00  0.00    +0.000 A 
ATOM      6  C   UNL     1       2.494  -2.363  -0.708  0.00  0.00    +0.000 A 
ENDROOT
BRANCH   1   7
ATOM      7  C   UNL     1       2.522   0.054   0.029  0.00  0.00    +0.000 C 
BRANCH   7   8
ATOM      8  N   UNL     1       1.895   1.128  -0.734  0.00  0.00    +0.000 NA
ATOM      9  H   UNL     1       1.513   1.816  -0.087  0.00  0.00    +0.000 HD
ATOM     10  H   UNL     1       1.102   0.744  -1.246  0.00  0.00    +0.000 HD
ENDBRANCH   7   8
ENDBRANCH   1   7
BRANCH   4  11
ATOM     11  O   UNL     1       4.213  -4.246  -3.291  0.00  0.00    +0.000 OA
BRANCH  11  12
ATOM     12  C   UNL     1       5.522  -4.254  -3.869  0.00  0.00    +0.000 C 
BRANCH  12  13
ATOM     13  C   UNL     1       5.710  -5.530  -4.665  0.00  0.00    +0.000 A 
ATOM     14  N   UNL     1       5.382  -5.504  -5.976  0.00  0.00    +0.000 NA
ATOM     15  C   UNL     1       5.533  -6.654  -6.658  0.00  0.00    +0.000 A 
ATOM     16  C   UNL     1       6.001  -7.817  -6.095  0.00  0.00    +0.000 A 
ATOM     17  C   UNL     1       6.317  -7.740  -4.759  0.00  0.00    +0.000 A 
ATOM     18  N   UNL     1       6.187  -6.620  -4.024  0.00  0.00    +0.000 NA
ENDBRANCH  12  13
ENDBRANCH  11  12
ENDBRANCH   4  11
TORSDOF 5
