REMARK  Name = 
REMARK  5 active torsions:
REMARK  status: ('A' for Active; 'I' for Inactive)
REMARK    1  A    between atoms: C_2  and  C_4
REMARK    2  A    between atoms: C_7  and  N_8
REMARK    3  A    between atoms: N_8  and  C_9
REMARK    4  A    between atoms: C_9  and  C_10
REMARK    5  A    between atoms: C_14  and  N_15
REMARK                            x       y       z     vdW  Elec       q    Type
REMARK                         _______ _______ _______ _____ _____    ______ ____
ROOT
ATOM      1  N   UNL     1       4.254   5.898  -1.794  0.00  0.00    +0.000 N 
ATOM      2  H   UNL     1       5.012   6.457  -1.407  0.00  0.00    +0.000 HD
ENDROOT
BRANCH   1   6
ATOM      3  C   UNL     1       2.189   3.730   1.186  0.00  0.00    +0.000 A 
ATOM      4  C   UNL     1       2.483   3.115  -0.032  0.00  0.00    +0.000 A 
ATOM      5  C   UNL     1       3.175   3.818  -1.024  0.00  0.00    +0.000 A 
ATOM      6  C   UNL     1       3.616   5.131  -0.815  0.00  0.00    +0.000 A 
ATOM      7  C   UNL     1       3.292   5.741   0.405  0.00  0.00    +0.000 A 
ATOM      8  C   UNL     1       2.579   5.054   1.396  0.00  0.00    +0.000 A 
BRANCH   3  10
ATOM      9  N   UNL     1       1.563   1.658   2.298  0.00  0.00    +0.000 N 
ATOM     10  C   UNL     1       1.439   3.020   2.253  0.00  0.00    +0.000 C 
ATOM     11  O   UNL     1       0.768   3.622   3.080  0.00  0.00    +0.000 OA
ATOM     12  H   UNL     1       1.135   1.195   3.089  0.00  0.00    +0.000 HD
ATOM     13  H   UNL     1       2.295   1.166   1.806  0.00  0.00    +0.000 HD
ENDBRANCH   3  10
ENDBRANCH   1   6
BRANCH   1  14
ATOM     14  C   UNL     1       4.561   5.306  -3.090  0.00  0.00    +0.000 C 
BRANCH  14  15
ATOM     15  C   UNL     1       5.245   6.276  -4.014  0.00  0.00    +0.000 A 
ATOM     16  C   UNL     1       6.099   5.785  -4.998  0.00  0.00    +0.000 A 
ATOM     17  N   UNL     1       6.729   6.551  -5.908  0.00  0.00    +0.000 NA
ATOM     18  C   UNL     1       6.487   7.880  -5.833  0.00  0.00    +0.000 A 
ATOM     19  C   UNL     1       5.646   8.506  -4.902  0.00  0.00    +0.000 A 
ATOM     20  C   UNL     1       5.003   7.658  -3.998  0.00  0.00    +0.000 A 
BRANCH  19  21
ATOM     21  N   UNL     1       5.495   9.894  -4.921  0.00  0.00    +0.000 N 
ATOM     22  C   UNL     1       4.248  10.479  -4.418  0.00  0.00    +0.000 C 
ATOM     23  C   UNL     1       4.127  11.903  -4.969  0.00  0.00    +0.000 C 
ATOM     24  C   UNL     1       5.361  12.746  -4.646  0.00  0.00    +0.000 C 
ATOM     25  C   UNL     1       6.651  12.031  -5.050  0.00  0.00    +0.000 C 
ATOM     26  C   UNL     1       6.702  10.615  -4.484  0.00  0.00    +0.000 C 
ENDBRANCH  19  21
ENDBRANCH  14  15
ENDBRANCH   1  14
TORSDOF 5
