REMARK  Name = 
REMARK  4 active torsions:
REMARK  status: ('A' for Active; 'I' for Inactive)
REMARK    1  A    between atoms: C_2  and  C_4
REMARK    2  A    between atoms: N_8  and  C_9
REMARK    3  A    between atoms: C_9  and  C_10
REMARK    4  A    between atoms: C_10  and  C_13
REMARK                            x       y       z     vdW  Elec       q    Type
REMARK                         _______ _______ _______ _____ _____    ______ ____
ROOT
ATOM      1  C   UNL     1       3.033   1.394   0.374  0.00  0.00    +0.000 A 
ATOM      2  C   UNL     1       3.576   2.156  -0.657  0.00  0.00    +0.000 A 
ATOM      3  C   UNL     1       4.319   3.291  -0.336  0.00  0.00    +0.000 A 
ATOM      4  C   UNL     1       4.474   3.672   0.996  0.00  0.00    +0.000 A 
ATOM      5  N   UNL     1       5.217   4.824   1.254  0.00  0.00    +0.000 N 
ATOM      6  N   UNL     1       3.932   2.959   2.001  0.00  0.00    +0.000 NA
ATOM      7  C   UNL     1       3.233   1.837   1.674  0.00  0.00    +0.000 A 
ATOM      8  H   UNL     1       6.191   4.679   0.993  0.00  0.00    +0.000 HD
ENDROOT
BRANCH   1  10
ATOM      9  N   UNL     1       2.473  -0.515  -1.025  0.00  0.00    +0.000 N 
ATOM     10  C   UNL     1       2.247   0.162   0.138  0.00  0.00    +0.000 C 
ATOM     11  O   UNL     1       1.444  -0.246   0.966  0.00  0.00    +0.000 OA
ATOM     12  H   UNL     1       1.996  -1.402  -1.131  0.00  0.00    +0.000 HD
ATOM     13  H   UNL     1       3.275  -0.343  -1.615  0.00  0.00    +0.000 HD
ENDBRANCH   1  10
BRANCH   5  14
ATOM     14  C   UNL     1       5.072   5.423   2.597  0.00  0.00    +0.000 C 
BRANCH  14  15
ATOM     15  C   UNL     1       6.089   6.573   2.820  0.00  0.00    +0.000 C 
ATOM     16  F   UNL     1       7.341   6.016   2.848  0.00  0.00    +0.000 F 
ATOM     17  F   UNL     1       6.098   7.374   1.707  0.00  0.00    +0.000 F 
BRANCH  15  18
ATOM     18  C   UNL     1       5.800   7.378   4.072  0.00  0.00    +0.000 A 
ATOM     19  C   UNL     1       6.342   7.010   5.310  0.00  0.00    +0.000 A 
ATOM     20  C   UNL     1       6.100   7.790   6.447  0.00  0.00    +0.000 A 
ATOM     21  C   UNL     1       5.316   8.936   6.361  0.00  0.00    +0.000 A 
ATOM     22  C   UNL     1       4.762   9.308   5.137  0.00  0.00    +0.000 A 
ATOM     23  C   UNL     1       4.999   8.532   4.000  0.00  0.00    +0.000 A 
ENDBRANCH  15  18
ENDBRANCH  14  15
ENDBRANCH   5  14
TORSDOF 4
