REMARK  Name = 
REMARK  5 active torsions:
REMARK  status: ('A' for Active; 'I' for Inactive)
REMARK    1  A    between atoms: C_2  and  C_4
REMARK    2  A    between atoms: C_7  and  N_8
REMARK    3  A    between atoms: N_8  and  C_9
REMARK    4  A    between atoms: C_9  and  C_10
REMARK    5  A    between atoms: C_14  and  N_15
REMARK                            x       y       z     vdW  Elec       q    Type
REMARK                         _______ _______ _______ _____ _____    ______ ____
ROOT
ATOM      1  N   UNL     1       3.622  -0.573   6.210  0.00  0.00    +0.000 N 
ATOM      2  H   UNL     1       3.095  -0.958   6.989  0.00  0.00    +0.000 HD
ENDROOT
BRANCH   1   6
ATOM      3  C   UNL     1       1.265   1.166   3.180  0.00  0.00    +0.000 A 
ATOM      4  C   UNL     1       2.477   0.560   2.844  0.00  0.00    +0.000 A 
ATOM      5  C   UNL     1       3.249  -0.060   3.833  0.00  0.00    +0.000 A 
ATOM      6  C   UNL     1       2.832  -0.103   5.168  0.00  0.00    +0.000 A 
ATOM      7  C   UNL     1       1.615   0.521   5.487  0.00  0.00    +0.000 A 
ATOM      8  C   UNL     1       0.838   1.151   4.509  0.00  0.00    +0.000 A 
BRANCH   3  10
ATOM      9  N   UNL     1       0.553   1.457   0.871  0.00  0.00    +0.000 N 
ATOM     10  C   UNL     1       0.440   1.874   2.168  0.00  0.00    +0.000 C 
ATOM     11  O   UNL     1      -0.330   2.774   2.477  0.00  0.00    +0.000 OA
ATOM     12  H   UNL     1      -0.082   1.879   0.207  0.00  0.00    +0.000 HD
ATOM     13  H   UNL     1       0.980   0.578   0.616  0.00  0.00    +0.000 HD
ENDBRANCH   3  10
ENDBRANCH   1   6
BRANCH   1  14
ATOM     14  C   UNL     1       4.907  -1.211   5.988  0.00  0.00    +0.000 C 
BRANCH  14  15
ATOM     15  C   UNL     1       5.751  -1.114   7.227  0.00  0.00    +0.000 A 
ATOM     16  C   UNL     1       6.319  -2.242   7.798  0.00  0.00    +0.000 A 
ATOM     17  N   UNL     1       7.155  -2.204   8.853  0.00  0.00    +0.000 NA
ATOM     18  C   UNL     1       7.446  -0.972   9.348  0.00  0.00    +0.000 A 
ATOM     19  C   UNL     1       6.958   0.248   8.867  0.00  0.00    +0.000 A 
ATOM     20  C   UNL     1       6.078   0.135   7.787  0.00  0.00    +0.000 A 
BRANCH  19  21
ATOM     21  N   UNL     1       7.335   1.464   9.391  0.00  0.00    +0.000 N 
ATOM     22  C   UNL     1       6.467   2.650   9.417  0.00  0.00    +0.000 C 
ATOM     23  C   UNL     1       7.176   3.841   8.753  0.00  0.00    +0.000 C 
ATOM     24  O   UNL     1       8.470   4.082   9.334  0.00  0.00    +0.000 OA
ATOM     25  C   UNL     1       9.302   2.920   9.197  0.00  0.00    +0.000 C 
ATOM     26  C   UNL     1       8.692   1.698   9.907  0.00  0.00    +0.000 C 
ENDBRANCH  19  21
ENDBRANCH  14  15
ENDBRANCH   1  14
TORSDOF 5
