REMARK  Name = 
REMARK  5 active torsions:
REMARK  status: ('A' for Active; 'I' for Inactive)
REMARK    1  A    between atoms: C_2  and  C_3
REMARK    2  A    between atoms: C_6  and  N_7
REMARK    3  A    between atoms: N_7  and  C_8
REMARK    4  A    between atoms: C_8  and  C_9
REMARK    5  A    between atoms: C_13  and  C_14
REMARK                            x       y       z     vdW  Elec       q    Type
REMARK                         _______ _______ _______ _____ _____    ______ ____
ROOT
ATOM      1  C   UNL     1       8.570  -0.870  -0.796  0.00  0.00    +0.000 C 
ATOM      2  C   UNL     1       7.752  -1.132   0.469  0.00  0.00    +0.000 C 
ATOM      3  C   UNL     1       7.116  -0.440  -0.686  0.00  0.00    +0.000 C 
ENDROOT
BRANCH   1   4
ATOM      4  C   UNL     1       9.612   0.245  -0.706  0.00  0.00    +0.000 A 
ATOM      5  C   UNL     1       9.658   1.272  -1.657  0.00  0.00    +0.000 A 
ATOM      6  C   UNL     1      10.463   2.391  -1.463  0.00  0.00    +0.000 A 
ATOM      7  C   UNL     1      11.271   2.486  -0.327  0.00  0.00    +0.000 A 
ATOM      8  C   UNL     1      11.328   1.450   0.620  0.00  0.00    +0.000 A 
ATOM      9  C   UNL     1      10.494   0.337   0.394  0.00  0.00    +0.000 A 
BRANCH   8  10
ATOM     10  C   UNL     1      12.194   1.542   1.822  0.00  0.00    +0.000 A 
ATOM     11  C   UNL     1      12.392   2.771   2.484  0.00  0.00    +0.000 A 
ATOM     12  C   UNL     1      13.219   2.875   3.610  0.00  0.00    +0.000 A 
ATOM     13  C   UNL     1      13.859   1.748   4.116  0.00  0.00    +0.000 A 
ATOM     14  C   UNL     1      13.672   0.519   3.493  0.00  0.00    +0.000 A 
ATOM     15  C   UNL     1      12.855   0.425   2.363  0.00  0.00    +0.000 A 
ATOM     16  F   UNL     1      12.731  -0.785   1.794  0.00  0.00    +0.000 F 
ENDBRANCH   8  10
ENDBRANCH   1   4
BRANCH   1  17
ATOM     17  N   UNL     1       9.035  -2.067  -1.492  0.00  0.00    +0.000 N 
ATOM     18  H   UNL     1       9.897  -2.507  -1.182  0.00  0.00    +0.000 HD
BRANCH  17  22
ATOM     19  C   UNL     1       8.088  -3.687  -5.148  0.00  0.00    +0.000 A 
ATOM     20  C   UNL     1       9.169  -4.108  -4.395  0.00  0.00    +0.000 A 
ATOM     21  N   UNL     1       9.497  -3.548  -3.201  0.00  0.00    +0.000 NA
ATOM     22  C   UNL     1       8.711  -2.539  -2.754  0.00  0.00    +0.000 A 
ATOM     23  C   UNL     1       7.641  -2.109  -3.542  0.00  0.00    +0.000 A 
ATOM     24  N   UNL     1       7.302  -2.666  -4.741  0.00  0.00    +0.000 NA
BRANCH  19  26
ATOM     25  N   UNL     1       7.508  -4.909  -7.361  0.00  0.00    +0.000 NA
ATOM     26  C   UNL     1       7.750  -4.341  -6.376  0.00  0.00    +0.000 C 
ENDBRANCH  19  26
ENDBRANCH  17  22
ENDBRANCH   1  17
TORSDOF 5
