REMARK  Name = 
REMARK  7 active torsions:
REMARK  status: ('A' for Active; 'I' for Inactive)
REMARK    1  A    between atoms: C_2  and  C_19
REMARK    2  A    between atoms: N_3  and  C_4
REMARK    3  A    between atoms: C_4  and  C_5
REMARK    4  A    between atoms: C_8  and  O_9
REMARK    5  A    between atoms: O_9  and  C_10
REMARK    6  A    between atoms: C_10  and  C_11
REMARK    7  A    between atoms: C_11  and  N_12
REMARK                            x       y       z     vdW  Elec       q    Type
REMARK                         _______ _______ _______ _____ _____    ______ ____
ROOT
ATOM      1  O   UNL     1      -0.127   2.812  -2.089  0.00  0.00    +0.000 OA
ATOM      2  C   UNL     1      -0.105   1.733  -2.675  0.00  0.00    +0.000 C 
ATOM      3  N   UNL     1       0.992   0.910  -2.654  0.00  0.00    +0.000 N 
ATOM      4  H   UNL     1       1.027   0.126  -3.298  0.00  0.00    +0.000 HD
ENDROOT
BRANCH   2   5
ATOM      5  C   UNL     1      -1.281   1.225  -3.391  0.00  0.00    +0.000 A 
ATOM      6  C   UNL     1      -2.544   1.696  -3.062  0.00  0.00    +0.000 A 
ATOM      7  S   UNL     1      -3.799   0.972  -3.962  0.00  0.00    +0.000 S 
ATOM      8  C   UNL     1      -2.694   0.041  -4.859  0.00  0.00    +0.000 A 
ATOM      9  N   UNL     1      -3.121  -0.801  -5.838  0.00  0.00    +0.000 NA
ATOM     10  C   UNL     1      -2.173  -1.408  -6.472  0.00  0.00    +0.000 A 
ATOM     11  N   UNL     1      -0.836  -1.256  -6.209  0.00  0.00    +0.000 N 
ATOM     12  C   UNL     1      -0.363  -0.475  -5.182  0.00  0.00    +0.000 A 
ATOM     13  O   UNL     1       0.829  -0.457  -4.892  0.00  0.00    +0.000 OA
ATOM     14  C   UNL     1      -1.387   0.263  -4.464  0.00  0.00    +0.000 A 
ATOM     15  H   UNL     1      -0.146  -1.781  -6.726  0.00  0.00    +0.000 HD
ENDBRANCH   2   5
BRANCH   3  16
ATOM     16  C   UNL     1       2.240   1.297  -2.046  0.00  0.00    +0.000 C 
BRANCH  16  17
ATOM     17  C   UNL     1       3.175   1.886  -3.059  0.00  0.00    +0.000 A 
ATOM     18  C   UNL     1       3.218   3.258  -3.320  0.00  0.00    +0.000 A 
ATOM     19  C   UNL     1       4.092   3.751  -4.287  0.00  0.00    +0.000 A 
ATOM     20  C   UNL     1       4.878   2.844  -4.981  0.00  0.00    +0.000 A 
ATOM     21  N   UNL     1       4.856   1.515  -4.756  0.00  0.00    +0.000 NA
ATOM     22  C   UNL     1       4.010   1.068  -3.809  0.00  0.00    +0.000 A 
BRANCH  20  23
ATOM     23  O   UNL     1       5.728   3.345  -5.951  0.00  0.00    +0.000 OA
BRANCH  23  24
ATOM     24  C   UNL     1       6.051   2.334  -6.919  0.00  0.00    +0.000 C 
BRANCH  24  25
ATOM     25  C   UNL     1       7.002   2.895  -7.988  0.00  0.00    +0.000 C 
BRANCH  25  26
ATOM     26  N   UNL     1       7.385   1.891  -9.001  0.00  0.00    +0.000 NA
ATOM     27  C   UNL     1       6.273   1.460  -9.854  0.00  0.00    +0.000 C 
ATOM     28  C   UNL     1       6.203   2.497 -10.960  0.00  0.00    +0.000 C 
ATOM     29  O   UNL     1       7.503   3.095 -11.026  0.00  0.00    +0.000 OA
ATOM     30  C   UNL     1       8.280   2.486  -9.995  0.00  0.00    +0.000 C 
ENDBRANCH  25  26
ENDBRANCH  24  25
ENDBRANCH  23  24
ENDBRANCH  20  23
ENDBRANCH  16  17
ENDBRANCH   3  16
TORSDOF 7
