REMARK  Name = 
REMARK  8 active torsions:
REMARK  status: ('A' for Active; 'I' for Inactive)
REMARK    1  A    between atoms: C_1  and  C_2
REMARK    2  A    between atoms: C_2  and  N_3
REMARK    3  A    between atoms: C_2  and  C_25
REMARK    4  A    between atoms: N_3  and  C_4
REMARK    5  A    between atoms: C_4  and  C_5
REMARK    6  A    between atoms: C_8  and  C_9
REMARK    7  A    between atoms: C_9  and  N_10
REMARK    8  A    between atoms: C_11  and  C_13
REMARK                            x       y       z     vdW  Elec       q    Type
REMARK                         _______ _______ _______ _____ _____    ______ ____
ROOT
ATOM      1  C   UNL     1      -0.910  -0.043   1.372  0.00  0.00    +0.000 A 
ATOM      2  C   UNL     1      -1.604  -0.881   2.258  0.00  0.00    +0.000 A 
ATOM      3  C   UNL     1      -2.997  -0.813   2.365  0.00  0.00    +0.000 A 
ATOM      4  C   UNL     1      -3.727   0.090   1.582  0.00  0.00    +0.000 A 
ATOM      5  C   UNL     1      -3.034   0.926   0.696  0.00  0.00    +0.000 A 
ATOM      6  C   UNL     1      -1.642   0.857   0.588  0.00  0.00    +0.000 A 
ENDROOT
BRANCH   1   7
ATOM      7  C   UNL     1       0.604  -0.048   1.332  0.00  0.00    +0.000 C 
BRANCH   7   8
ATOM      8  N   UNL     1       1.137  -1.383   1.082  0.00  0.00    +0.000 NA
ATOM      9  H   UNL     1       0.749  -1.728   0.203  0.00  0.00    +0.000 HD
BRANCH   8  11
ATOM     10  C   UNL     1       3.315  -0.963   2.263  0.00  0.00    +0.000 C 
ATOM     11  C   UNL     1       2.603  -1.428   0.984  0.00  0.00    +0.000 C 
BRANCH  11  12
ATOM     12  C   UNL     1       3.047  -2.850   0.656  0.00  0.00    +0.000 A 
ATOM     13  C   UNL     1       3.838  -3.113  -0.472  0.00  0.00    +0.000 A 
ATOM     14  C   UNL     1       4.264  -4.414  -0.752  0.00  0.00    +0.000 A 
ATOM     15  C   UNL     1       3.907  -5.466   0.090  0.00  0.00    +0.000 A 
ATOM     16  C   UNL     1       3.119  -5.221   1.211  0.00  0.00    +0.000 A 
ATOM     17  C   UNL     1       2.690  -3.923   1.490  0.00  0.00    +0.000 A 
ENDBRANCH  11  12
ENDBRANCH   8  11
ENDBRANCH   7   8
ENDBRANCH   1   7
BRANCH   4  18
ATOM     18  C   UNL     1      -5.220   0.212   1.731  0.00  0.00    +0.000 C 
BRANCH  18  19
ATOM     19  N   UNL     1      -5.563   1.209   2.716  0.00  0.00    +0.000 N 
ATOM     20  C   UNL     1      -6.865   1.423   3.086  0.00  0.00    +0.000 C 
ATOM     21  O   UNL     1      -7.787   0.749   2.633  0.00  0.00    +0.000 OA
ATOM     22  H   UNL     1      -4.856   1.904   2.937  0.00  0.00    +0.000 HD
BRANCH  20  23
ATOM     23  C   UNL     1      -7.104   2.460   4.097  0.00  0.00    +0.000 A 
ATOM     24  C   UNL     1      -8.265   2.419   4.859  0.00  0.00    +0.000 A 
ATOM     25  S   UNL     1      -8.379   3.674   6.006  0.00  0.00    +0.000 S 
ATOM     26  C   UNL     1      -6.903   4.348   5.495  0.00  0.00    +0.000 A 
ATOM     27  N   UNL     1      -6.421   5.487   6.062  0.00  0.00    +0.000 NA
ATOM     28  C   UNL     1      -5.308   5.901   5.559  0.00  0.00    +0.000 A 
ATOM     29  N   UNL     1      -4.627   5.279   4.546  0.00  0.00    +0.000 N 
ATOM     30  C   UNL     1      -5.060   4.113   3.962  0.00  0.00    +0.000 A 
ATOM     31  O   UNL     1      -4.404   3.558   3.086  0.00  0.00    +0.000 OA
ATOM     32  C   UNL     1      -6.318   3.610   4.479  0.00  0.00    +0.000 A 
ATOM     33  H   UNL     1      -3.751   5.652   4.205  0.00  0.00    +0.000 HD
ENDBRANCH  20  23
ENDBRANCH  18  19
ENDBRANCH   4  18
TORSDOF 7
