REMARK  Name = 
REMARK  4 active torsions:
REMARK  status: ('A' for Active; 'I' for Inactive)
REMARK    1  A    between atoms: C_3  and  O_4
REMARK    2  A    between atoms: O_4  and  C_5
REMARK    3  A    between atoms: C_5  and  C_6
REMARK    4  A    between atoms: C_13  and  C_14
REMARK                            x       y       z     vdW  Elec       q    Type
REMARK                         _______ _______ _______ _____ _____    ______ ____
ROOT
ATOM      1  C   UNL     1       1.611   0.105   0.334  0.00  0.00    +0.000 A 
ATOM      2  C   UNL     1       0.919   1.280   0.055  0.00  0.00    +0.000 A 
ATOM      3  C   UNL     1      -0.385   1.190  -0.404  0.00  0.00    +0.000 A 
ATOM      4  N   UNL     1      -1.006   0.003  -0.595  0.00  0.00    +0.000 NA
ATOM      5  C   UNL     1      -0.337  -1.142  -0.307  0.00  0.00    +0.000 A 
ATOM      6  C   UNL     1       0.980  -1.121   0.147  0.00  0.00    +0.000 A 
ENDROOT
BRANCH   5   7
ATOM      7  C   UNL     1      -1.097  -2.394  -0.501  0.00  0.00    +0.000 A 
ATOM      8  C   UNL     1      -2.086  -2.494  -1.490  0.00  0.00    +0.000 A 
ATOM      9  C   UNL     1      -2.784  -3.681  -1.643  0.00  0.00    +0.000 A 
ATOM     10  N   UNL     1      -2.576  -4.778  -0.883  0.00  0.00    +0.000 NA
ATOM     11  C   UNL     1      -1.636  -4.671   0.074  0.00  0.00    +0.000 A 
ATOM     12  C   UNL     1      -0.886  -3.529   0.300  0.00  0.00    +0.000 A 
ENDBRANCH   5   7
BRANCH   3  13
ATOM     13  O   UNL     1      -1.181   2.252  -0.724  0.00  0.00    +0.000 OA
BRANCH  13  14
ATOM     14  C   UNL     1      -0.797   3.538  -0.232  0.00  0.00    +0.000 C 
BRANCH  14  15
ATOM     15  C   UNL     1      -2.040   4.449  -0.206  0.00  0.00    +0.000 C 
ATOM     16  C   UNL     1      -2.631   4.720  -1.600  0.00  0.00    +0.000 C 
ATOM     17  C   UNL     1      -1.843   5.765  -2.392  0.00  0.00    +0.000 C 
ATOM     18  C   UNL     1      -1.474   6.988  -1.554  0.00  0.00    +0.000 C 
ATOM     19  N   UNL     1      -0.834   6.610  -0.292  0.00  0.00    +0.000 NA
ATOM     20  C   UNL     1      -1.737   5.775   0.502  0.00  0.00    +0.000 C 
ATOM     21  H   UNL     1      -0.613   7.458   0.231  0.00  0.00    +0.000 HD
ENDBRANCH  14  15
ENDBRANCH  13  14
ENDBRANCH   3  13
TORSDOF 4
