REMARK  Name = 
REMARK  4 active torsions:
REMARK  status: ('A' for Active; 'I' for Inactive)
REMARK    1  A    between atoms: C_2  and  C_4
REMARK    2  A    between atoms: N_8  and  C_9
REMARK    3  A    between atoms: C_9  and  C_10
REMARK    4  A    between atoms: C_14  and  N_15
REMARK                            x       y       z     vdW  Elec       q    Type
REMARK                         _______ _______ _______ _____ _____    ______ ____
ROOT
ATOM      1  C   UNL     1       2.006  -3.897  -8.127  0.00  0.00    +0.000 A 
ATOM      2  C   UNL     1       2.036  -4.860  -7.126  0.00  0.00    +0.000 A 
ATOM      3  C   UNL     1       3.027  -4.792  -6.148  0.00  0.00    +0.000 A 
ATOM      4  C   UNL     1       3.972  -3.773  -6.186  0.00  0.00    +0.000 A 
ATOM      5  N   UNL     1       4.919  -3.574  -5.223  0.00  0.00    +0.000 N 
ATOM      6  N   UNL     1       3.973  -2.859  -7.178  0.00  0.00    +0.000 NA
ATOM      7  C   UNL     1       3.004  -2.938  -8.126  0.00  0.00    +0.000 A 
ATOM      8  H   UNL     1       5.590  -2.861  -5.477  0.00  0.00    +0.000 HD
ENDROOT
BRANCH   1  10
ATOM      9  N   UNL     1      -0.253  -4.403  -8.854  0.00  0.00    +0.000 N 
ATOM     10  C   UNL     1       0.962  -3.858  -9.171  0.00  0.00    +0.000 C 
ATOM     11  O   UNL     1       1.154  -3.324 -10.254  0.00  0.00    +0.000 OA
ATOM     12  H   UNL     1      -0.993  -4.268  -9.532  0.00  0.00    +0.000 HD
ATOM     13  H   UNL     1      -0.525  -4.609  -7.904  0.00  0.00    +0.000 HD
ENDBRANCH   1  10
BRANCH   5  14
ATOM     14  C   UNL     1       5.196  -4.425  -4.094  0.00  0.00    +0.000 C 
BRANCH  14  15
ATOM     15  C   UNL     1       6.123  -5.558  -4.454  0.00  0.00    +0.000 A 
ATOM     16  C   UNL     1       7.426  -5.297  -4.890  0.00  0.00    +0.000 A 
ATOM     17  C   UNL     1       8.284  -6.350  -5.184  0.00  0.00    +0.000 A 
ATOM     18  C   UNL     1       7.846  -7.669  -5.042  0.00  0.00    +0.000 A 
ATOM     19  C   UNL     1       6.550  -7.980  -4.604  0.00  0.00    +0.000 A 
ATOM     20  C   UNL     1       5.706  -6.896  -4.318  0.00  0.00    +0.000 A 
BRANCH  19  21
ATOM     21  N   UNL     1       6.157  -9.288  -4.419  0.00  0.00    +0.000 N 
ATOM     22  C   UNL     1       5.115  -9.688  -3.464  0.00  0.00    +0.000 C 
ATOM     23  C   UNL     1       5.577 -10.959  -2.727  0.00  0.00    +0.000 C 
ATOM     24  O   UNL     1       5.925 -12.017  -3.638  0.00  0.00    +0.000 OA
ATOM     25  C   UNL     1       6.978 -11.589  -4.521  0.00  0.00    +0.000 C 
ATOM     26  C   UNL     1       6.553 -10.363  -5.342  0.00  0.00    +0.000 C 
ENDBRANCH  19  21
ENDBRANCH  14  15
ENDBRANCH   5  14
TORSDOF 4
