REMARK  Name = 
REMARK  8 active torsions:
REMARK  status: ('A' for Active; 'I' for Inactive)
REMARK    1  A    between atoms: C_1  and  C_2
REMARK    2  A    between atoms: C_2  and  C_3
REMARK    3  A    between atoms: C_2  and  C_18
REMARK    4  A    between atoms: C_3  and  N_4
REMARK    5  A    between atoms: N_4  and  C_5
REMARK    6  A    between atoms: C_8  and  C_9
REMARK    7  A    between atoms: C_12  and  C_13
REMARK    8  A    between atoms: C_22  and  C_23
REMARK                            x       y       z     vdW  Elec       q    Type
REMARK                         _______ _______ _______ _____ _____    ______ ____
ROOT
ATOM      1  C   UNL     1       2.969  -3.800   0.101  0.00  0.00    +0.000 A 
ATOM      2  C   UNL     1       3.964  -4.246  -0.765  0.00  0.00    +0.000 A 
ATOM      3  C   UNL     1       4.353  -5.590  -0.786  0.00  0.00    +0.000 A 
ATOM      4  C   UNL     1       3.742  -6.550   0.041  0.00  0.00    +0.000 A 
ATOM      5  C   UNL     1       2.751  -6.129   0.938  0.00  0.00    +0.000 A 
ATOM      6  C   UNL     1       2.362  -4.761   0.922  0.00  0.00    +0.000 A 
ENDROOT
BRANCH   4   7
ATOM      7  C   UNL     1       4.252  -7.937  -0.155  0.00  0.00    +0.000 C 
ATOM      8  N   UNL     1       3.379  -8.983  -0.099  0.00  0.00    +0.000 N 
ATOM      9  O   UNL     1       5.428  -8.137  -0.437  0.00  0.00    +0.000 OA
ATOM     10  H   UNL     1       2.458  -8.938   0.312  0.00  0.00    +0.000 HD
ATOM     11  H   UNL     1       3.793  -9.905  -0.172  0.00  0.00    +0.000 HD
ENDBRANCH   4   7
BRANCH   5  12
ATOM     12  C   UNL     1       2.080  -6.990   1.972  0.00  0.00    +0.000 C 
ATOM     13  F   UNL     1       2.538  -8.262   2.088  0.00  0.00    +0.000 F 
ATOM     14  F   UNL     1       2.183  -6.459   3.224  0.00  0.00    +0.000 F 
ATOM     15  F   UNL     1       0.742  -7.113   1.737  0.00  0.00    +0.000 F 
ENDBRANCH   5  12
BRANCH   1  16
ATOM     16  N   UNL     1       2.473  -2.495   0.115  0.00  0.00    +0.000 N 
ATOM     17  H   UNL     1       2.204  -2.185   1.045  0.00  0.00    +0.000 HD
BRANCH  16  18
ATOM     18  C   UNL     1       3.108  -1.457  -0.684  0.00  0.00    +0.000 C 
BRANCH  18  20
ATOM     19  C   UNL     1       0.929  -0.073  -0.807  0.00  0.00    +0.000 C 
ATOM     20  C   UNL     1       2.391  -0.151  -0.478  0.00  0.00    +0.000 C 
BRANCH  20  21
ATOM     21  C   UNL     1       3.173   1.100  -0.398  0.00  0.00    +0.000 A 
ATOM     22  C   UNL     1       4.271   1.206   0.466  0.00  0.00    +0.000 A 
ATOM     23  C   UNL     1       5.000   2.397   0.561  0.00  0.00    +0.000 A 
ATOM     24  C   UNL     1       4.644   3.499  -0.215  0.00  0.00    +0.000 A 
ATOM     25  C   UNL     1       3.561   3.411  -1.090  0.00  0.00    +0.000 A 
ATOM     26  C   UNL     1       2.829   2.216  -1.176  0.00  0.00    +0.000 A 
BRANCH  25  27
ATOM     27  C   UNL     1       3.196   4.535  -1.902  0.00  0.00    +0.000 C 
ATOM     28  N   UNL     1       2.899   5.442  -2.561  0.00  0.00    +0.000 NA
ENDBRANCH  25  27
ENDBRANCH  20  21
ENDBRANCH  18  20
ENDBRANCH  16  18
ENDBRANCH   1  16
TORSDOF 7
