REMARK  Name = 
REMARK  6 active torsions:
REMARK  status: ('A' for Active; 'I' for Inactive)
REMARK    1  A    between atoms: C_1  and  C_2
REMARK    2  A    between atoms: C_2  and  O_3
REMARK    3  A    between atoms: O_3  and  C_4
REMARK    4  A    between atoms: C_8  and  C_9
REMARK    5  A    between atoms: C_10  and  C_11
REMARK    6  A    between atoms: C_14  and  C_15
REMARK                            x       y       z     vdW  Elec       q    Type
REMARK                         _______ _______ _______ _____ _____    ______ ____
ROOT
ATOM      1  C   UNL     1       6.048   1.699  -4.512  0.00  0.00    +0.000 C 
ATOM      2  C   UNL     1       6.806   1.405  -5.581  0.00  0.00    +0.000 C 
ENDROOT
BRANCH   1   7
ATOM      3  C   UNL     1       4.117  -0.136  -1.837  0.00  0.00    +0.000 A 
ATOM      4  C   UNL     1       5.002  -1.163  -1.513  0.00  0.00    +0.000 A 
ATOM      5  C   UNL     1       6.257  -1.226  -2.119  0.00  0.00    +0.000 A 
ATOM      6  C   UNL     1       6.621  -0.281  -3.076  0.00  0.00    +0.000 A 
ATOM      7  C   UNL     1       5.723   0.722  -3.459  0.00  0.00    +0.000 A 
ATOM      8  C   UNL     1       4.486   0.803  -2.809  0.00  0.00    +0.000 A 
BRANCH   3   9
ATOM      9  O   UNL     1       2.873   0.043  -1.288  0.00  0.00    +0.000 OA
BRANCH   9  11
ATOM     10  C   UNL     1       1.920  -2.077  -0.510  0.00  0.00    +0.000 C 
ATOM     11  C   UNL     1       2.460  -0.706  -0.112  0.00  0.00    +0.000 C 
ATOM     12  C   UNL     1       3.335  -0.627   1.163  0.00  0.00    +0.000 C 
ATOM     13  O   UNL     1       2.431   0.312   1.790  0.00  0.00    +0.000 OA
ATOM     14  C   UNL     1       1.438   0.055   0.771  0.00  0.00    +0.000 C 
ENDBRANCH   9  11
ENDBRANCH   3   9
ENDBRANCH   1   7
BRANCH   2  15
ATOM     15  C   UNL     1       7.086   2.325  -6.692  0.00  0.00    +0.000 A 
ATOM     16  C   UNL     1       7.120   3.715  -6.528  0.00  0.00    +0.000 A 
ATOM     17  C   UNL     1       7.361   4.554  -7.619  0.00  0.00    +0.000 A 
ATOM     18  C   UNL     1       7.601   4.016  -8.888  0.00  0.00    +0.000 A 
ATOM     19  C   UNL     1       7.600   2.628  -9.058  0.00  0.00    +0.000 A 
ATOM     20  C   UNL     1       7.349   1.791  -7.963  0.00  0.00    +0.000 A 
BRANCH  18  21
ATOM     21  C   UNL     1       7.813   4.957 -10.018  0.00  0.00    +0.000 C 
ATOM     22  N   UNL     1       8.515   4.503 -11.098  0.00  0.00    +0.000 N 
ATOM     23  O   UNL     1       7.402   6.110  -9.978  0.00  0.00    +0.000 OA
ATOM     24  H   UNL     1       9.066   3.658 -11.078  0.00  0.00    +0.000 HD
ATOM     25  H   UNL     1       8.734   5.193 -11.806  0.00  0.00    +0.000 HD
ENDBRANCH  18  21
ENDBRANCH   2  15
TORSDOF 5
