REMARK  Name = 
REMARK  6 active torsions:
REMARK  status: ('A' for Active; 'I' for Inactive)
REMARK    1  A    between atoms: C_1  and  C_2
REMARK    2  A    between atoms: C_5  and  N_6
REMARK    3  A    between atoms: N_6  and  C_7
REMARK    4  A    between atoms: C_7  and  C_8
REMARK    5  A    between atoms: C_12  and  N_13
REMARK    6  A    between atoms: C_17  and  C_18
REMARK                            x       y       z     vdW  Elec       q    Type
REMARK                         _______ _______ _______ _____ _____    ______ ____
ROOT
ATOM      1  C   UNL     1      -5.420   0.265  -0.020  0.00  0.00    +0.000 A 
ATOM      2  C   UNL     1      -5.740  -1.088  -0.167  0.00  0.00    +0.000 A 
ATOM      3  C   UNL     1      -7.061  -1.508  -0.028  0.00  0.00    +0.000 A 
ATOM      4  C   UNL     1      -8.067  -0.581   0.262  0.00  0.00    +0.000 A 
ATOM      5  C   UNL     1      -7.796   0.786   0.409  0.00  0.00    +0.000 A 
ATOM      6  C   UNL     1      -6.457   1.182   0.237  0.00  0.00    +0.000 A 
ENDROOT
BRANCH   5   7
ATOM      7  N   UNL     1      -8.785   1.692   0.725  0.00  0.00    +0.000 N 
ATOM      8  C   UNL     1      -8.538   2.905   1.515  0.00  0.00    +0.000 C 
ATOM      9  C   UNL     1      -8.952   4.156   0.713  0.00  0.00    +0.000 C 
ATOM     10  N   UNL     1     -10.338   4.107   0.203  0.00  0.00    +0.000 NA
ATOM     11  C   UNL     1     -10.600   2.842  -0.527  0.00  0.00    +0.000 C 
ATOM     12  C   UNL     1      -9.983   2.874  -1.932  0.00  0.00    +0.000 C 
ATOM     13  C   UNL     1     -10.169   1.563   0.252  0.00  0.00    +0.000 C 
ATOM     14  H   UNL     1     -10.488   4.897  -0.422  0.00  0.00    +0.000 HD
ENDBRANCH   5   7
BRANCH   1  15
ATOM     15  C   UNL     1      -3.989   0.746  -0.133  0.00  0.00    +0.000 C 
BRANCH  15  16
ATOM     16  N   UNL     1      -3.686   1.045  -1.524  0.00  0.00    +0.000 N 
ATOM     17  H   UNL     1      -3.899   0.258  -2.130  0.00  0.00    +0.000 HD
BRANCH  16  22
ATOM     18  C   UNL     1       1.444   3.000  -2.754  0.00  0.00    +0.000 C 
ATOM     19  C   UNL     1       0.092   2.460  -2.412  0.00  0.00    +0.000 A 
ATOM     20  C   UNL     1      -0.278   2.174  -1.103  0.00  0.00    +0.000 A 
ATOM     21  N   UNL     1      -1.505   1.695  -0.759  0.00  0.00    +0.000 NA
ATOM     22  C   UNL     1      -2.378   1.497  -1.768  0.00  0.00    +0.000 A 
ATOM     23  C   UNL     1      -1.998   1.799  -3.079  0.00  0.00    +0.000 A 
ATOM     24  N   UNL     1      -0.773   2.270  -3.432  0.00  0.00    +0.000 NA
ENDBRANCH  16  22
ENDBRANCH  15  16
ENDBRANCH   1  15
TORSDOF 4
