REMARK  Name = 
REMARK  5 active torsions:
REMARK  status: ('A' for Active; 'I' for Inactive)
REMARK    1  A    between atoms: N_1  and  C_2
REMARK    2  A    between atoms: C_2  and  C_3
REMARK    3  A    between atoms: C_7  and  C_8
REMARK    4  A    between atoms: C_8  and  N_9
REMARK    5  A    between atoms: C_14  and  C_15
REMARK                            x       y       z     vdW  Elec       q    Type
REMARK                         _______ _______ _______ _____ _____    ______ ____
ROOT
ATOM      1  N   UNL     1       4.829   3.961  -4.282  0.00  0.00    +0.000 N 
ATOM      2  C   UNL     1       6.179   4.044  -4.532  0.00  0.00    +0.000 A 
ATOM      3  C   UNL     1       6.350   4.540  -5.801  0.00  0.00    +0.000 A 
ATOM      4  C   UNL     1       5.060   4.751  -6.357  0.00  0.00    +0.000 A 
ATOM      5  C   UNL     1       4.621   5.238  -7.605  0.00  0.00    +0.000 A 
ATOM      6  C   UNL     1       3.249   5.306  -7.884  0.00  0.00    +0.000 A 
ATOM      7  C   UNL     1       2.327   4.905  -6.909  0.00  0.00    +0.000 A 
ATOM      8  C   UNL     1       2.740   4.435  -5.652  0.00  0.00    +0.000 A 
ATOM      9  C   UNL     1       4.118   4.366  -5.397  0.00  0.00    +0.000 A 
ENDROOT
BRANCH   6  10
ATOM     10  C   UNL     1       2.720   5.782  -9.197  0.00  0.00    +0.000 C 
ATOM     11  N   UNL     1       3.607   6.163 -10.166  0.00  0.00    +0.000 N 
ATOM     12  O   UNL     1       1.515   5.829  -9.424  0.00  0.00    +0.000 OA
ATOM     13  H   UNL     1       4.610   6.140 -10.084  0.00  0.00    +0.000 HD
ATOM     14  H   UNL     1       3.213   6.459 -11.050  0.00  0.00    +0.000 HD
ENDBRANCH   6  10
BRANCH   1  15
ATOM     15  C   UNL     1       4.276   3.576  -2.989  0.00  0.00    +0.000 C 
BRANCH  15  20
ATOM     16  C   UNL     1       2.915   0.319  -1.299  0.00  0.00    +0.000 C 
ATOM     17  C   UNL     1       4.130  -0.584  -1.564  0.00  0.00    +0.000 C 
ATOM     18  C   UNL     1       4.772  -0.296  -2.915  0.00  0.00    +0.000 C 
ATOM     19  C   UNL     1       5.154   1.174  -3.045  0.00  0.00    +0.000 C 
ATOM     20  C   UNL     1       3.928   2.082  -2.859  0.00  0.00    +0.000 C 
ATOM     21  C   UNL     1       3.284   1.805  -1.484  0.00  0.00    +0.000 C 
BRANCH  16  22
ATOM     22  C   UNL     1       2.356   0.017   0.104  0.00  0.00    +0.000 C 
BRANCH  22  23
ATOM     23  N   UNL     1       1.167   0.804   0.408  0.00  0.00    +0.000 NA
ATOM     24  H   UNL     1       0.807   0.530   1.320  0.00  0.00    +0.000 HD
ATOM     25  H   UNL     1       0.431   0.585  -0.265  0.00  0.00    +0.000 HD
ENDBRANCH  22  23
ENDBRANCH  16  22
ENDBRANCH  15  20
ENDBRANCH   1  15
TORSDOF 5
