REMARK  Name = 
REMARK  6 active torsions:
REMARK  status: ('A' for Active; 'I' for Inactive)
REMARK    1  A    between atoms: C_1  and  C_2
REMARK    2  A    between atoms: C_2  and  C_3
REMARK    3  A    between atoms: C_2  and  C_14
REMARK    4  A    between atoms: C_3  and  O_4
REMARK    5  A    between atoms: O_4  and  C_5
REMARK    6  A    between atoms: C_8  and  C_9
REMARK                            x       y       z     vdW  Elec       q    Type
REMARK                         _______ _______ _______ _____ _____    ______ ____
ROOT
ATOM      1  O   UNL     1       2.758   2.222  -1.039  0.00  0.00    +0.000 OA
ENDROOT
BRANCH   1   2
ATOM      2  C   UNL     1       3.170   3.541  -0.971  0.00  0.00    +0.000 A 
ATOM      3  C   UNL     1       2.878   4.359  -2.049  0.00  0.00    +0.000 A 
ATOM      4  C   UNL     1       3.282   5.698  -1.989  0.00  0.00    +0.000 A 
ATOM      5  C   UNL     1       3.958   6.173  -0.860  0.00  0.00    +0.000 A 
ATOM      6  C   UNL     1       4.202   5.268   0.160  0.00  0.00    +0.000 A 
ATOM      7  N   UNL     1       3.825   3.969   0.130  0.00  0.00    +0.000 NA
BRANCH   5   8
ATOM      8  C   UNL     1       4.379   7.593  -0.798  0.00  0.00    +0.000 C 
ATOM      9  N   UNL     1       5.029   8.047   0.318  0.00  0.00    +0.000 N 
ATOM     10  O   UNL     1       4.150   8.359  -1.726  0.00  0.00    +0.000 OA
ATOM     11  H   UNL     1       5.268   7.508   1.134  0.00  0.00    +0.000 HD
ATOM     12  H   UNL     1       5.297   9.024   0.316  0.00  0.00    +0.000 HD
ENDBRANCH   5   8
ENDBRANCH   1   2
BRANCH   1  13
ATOM     13  C   UNL     1       3.093   1.502   0.158  0.00  0.00    +0.000 C 
BRANCH  13  15
ATOM     14  C   UNL     1       1.013   0.060   0.026  0.00  0.00    +0.000 C 
ATOM     15  C   UNL     1       2.544   0.065   0.106  0.00  0.00    +0.000 C 
BRANCH  15  16
ATOM     16  C   UNL     1       2.991  -0.796   1.283  0.00  0.00    +0.000 A 
ATOM     17  C   UNL     1       3.241  -2.163   1.075  0.00  0.00    +0.000 A 
ATOM     18  C   UNL     1       3.579  -3.001   2.142  0.00  0.00    +0.000 A 
ATOM     19  C   UNL     1       3.671  -2.481   3.429  0.00  0.00    +0.000 A 
ATOM     20 CL   UNL     1       4.050  -3.517   4.749  0.00  0.00    +0.000 Cl
ATOM     21  C   UNL     1       3.439  -1.128   3.657  0.00  0.00    +0.000 A 
ATOM     22  C   UNL     1       3.098  -0.291   2.590  0.00  0.00    +0.000 A 
ENDBRANCH  15  16
ENDBRANCH  13  15
ENDBRANCH   1  13
TORSDOF 5
