REMARK  Name = 
REMARK  7 active torsions:
REMARK  status: ('A' for Active; 'I' for Inactive)
REMARK    1  A    between atoms: C_2  and  C_3
REMARK    2  A    between atoms: C_6  and  C_7
REMARK    3  A    between atoms: N_9  and  C_10
REMARK    4  A    between atoms: C_10  and  C_11
REMARK    5  A    between atoms: C_14  and  C_15
REMARK    6  A    between atoms: C_15  and  N_16
REMARK    7  A    between atoms: C_17  and  C_19
REMARK                            x       y       z     vdW  Elec       q    Type
REMARK                         _______ _______ _______ _____ _____    ______ ____
ROOT
ATOM      1  C   UNL     1       7.970   5.015   0.086  0.00  0.00    +0.000 A 
ATOM      2  C   UNL     1       6.749   5.427   0.637  0.00  0.00    +0.000 A 
ATOM      3  C   UNL     1       6.419   6.786   0.711  0.00  0.00    +0.000 A 
ATOM      4  C   UNL     1       7.296   7.761   0.219  0.00  0.00    +0.000 A 
ATOM      5  C   UNL     1       8.531   7.351  -0.301  0.00  0.00    +0.000 A 
ATOM      6  C   UNL     1       8.859   5.993  -0.378  0.00  0.00    +0.000 A 
ENDROOT
BRANCH   1   7
ATOM      7  C   UNL     1       8.321   3.554   0.003  0.00  0.00    +0.000 C 
BRANCH   7  10
ATOM      8  C   UNL     1       8.064   1.584  -1.416  0.00  0.00    +0.000 C 
ATOM      9  O   UNL     1       8.646   0.855  -0.617  0.00  0.00    +0.000 OA
ATOM     10  N   UNL     1       7.839   2.923  -1.202  0.00  0.00    +0.000 N 
ATOM     11  H   UNL     1       7.372   3.462  -1.924  0.00  0.00    +0.000 HD
BRANCH   8  15
ATOM     12  C   UNL     1       6.662   1.008  -4.655  0.00  0.00    +0.000 C 
ATOM     13  C   UNL     1       7.188  -0.337  -4.395  0.00  0.00    +0.000 C 
ATOM     14  C   UNL     1       7.759  -0.210  -3.091  0.00  0.00    +0.000 C 
ATOM     15  C   UNL     1       7.554   1.068  -2.724  0.00  0.00    +0.000 C 
ATOM     16  N   UNL     1       6.877   1.844  -3.667  0.00  0.00    +0.000 NA
BRANCH  12  18
ATOM     17  N   UNL     1       5.452   1.837  -6.798  0.00  0.00    +0.000 NA
ATOM     18  C   UNL     1       5.991   1.495  -5.827  0.00  0.00    +0.000 C 
ENDBRANCH  12  18
ENDBRANCH   8  15
ENDBRANCH   7  10
ENDBRANCH   1   7
BRANCH   4  19
ATOM     19  C   UNL     1       6.933   9.224   0.266  0.00  0.00    +0.000 C 
BRANCH  19  20
ATOM     20  N   UNL     1       7.359   9.837   1.499  0.00  0.00    +0.000 N 
ATOM     21  C   UNL     1       7.059  11.143   1.787  0.00  0.00    +0.000 C 
ATOM     22  O   UNL     1       6.373  11.836   1.038  0.00  0.00    +0.000 OA
ATOM     23  H   UNL     1       8.105   9.372   2.008  0.00  0.00    +0.000 HD
BRANCH  21  24
ATOM     24  C   UNL     1       7.549  11.662   3.072  0.00  0.00    +0.000 A 
ATOM     25  C   UNL     1       6.916  12.746   3.665  0.00  0.00    +0.000 A 
ATOM     26  S   UNL     1       7.579  13.184   5.174  0.00  0.00    +0.000 S 
ATOM     27  C   UNL     1       8.769  11.973   5.064  0.00  0.00    +0.000 A 
ATOM     28  N   UNL     1       9.699  11.816   6.045  0.00  0.00    +0.000 NA
ATOM     29  C   UNL     1      10.557  10.877   5.821  0.00  0.00    +0.000 A 
ATOM     30  N   UNL     1      10.567  10.079   4.707  0.00  0.00    +0.000 N 
ATOM     31  C   UNL     1       9.634  10.185   3.704  0.00  0.00    +0.000 A 
ATOM     32  O   UNL     1       9.651   9.429   2.737  0.00  0.00    +0.000 OA
ATOM     33  C   UNL     1       8.650  11.232   3.902  0.00  0.00    +0.000 A 
ATOM     34  H   UNL     1      11.261   9.355   4.595  0.00  0.00    +0.000 HD
ENDBRANCH  21  24
ENDBRANCH  19  20
ENDBRANCH   4  19
TORSDOF 7
