REMARK  Name = 
REMARK  6 active torsions:
REMARK  status: ('A' for Active; 'I' for Inactive)
REMARK    1  A    between atoms: N_1  and  C_2
REMARK    2  A    between atoms: C_2  and  N_3
REMARK    3  A    between atoms: C_2  and  C_16
REMARK    4  A    between atoms: C_4  and  C_6
REMARK    5  A    between atoms: C_19  and  C_20
REMARK    6  A    between atoms: C_20  and  N_21
REMARK                            x       y       z     vdW  Elec       q    Type
REMARK                         _______ _______ _______ _____ _____    ______ ____
ROOT
ATOM      1  C   UNL     1       2.541   0.019   0.051  0.00  0.00    +0.000 C 
ENDROOT
BRANCH   1   2
ATOM      2  C   UNL     1       2.943   0.397   1.468  0.00  0.00    +0.000 A 
ATOM      3  C   UNL     1       2.962   1.737   1.878  0.00  0.00    +0.000 A 
ATOM      4  C   UNL     1       3.313   2.081   3.191  0.00  0.00    +0.000 A 
ATOM      5  C   UNL     1       3.663   1.094   4.124  0.00  0.00    +0.000 A 
ATOM      6  C   UNL     1       3.634  -0.246   3.724  0.00  0.00    +0.000 A 
ATOM      7  C   UNL     1       3.288  -0.588   2.414  0.00  0.00    +0.000 A 
BRANCH   5   8
ATOM      8  C   UNL     1       4.047   1.457   5.537  0.00  0.00    +0.000 C 
BRANCH   8   9
ATOM      9  N   UNL     1       2.889   1.517   6.401  0.00  0.00    +0.000 N 
ATOM     10  C   UNL     1       3.057   1.748   7.742  0.00  0.00    +0.000 C 
ATOM     11  O   UNL     1       4.163   1.821   8.265  0.00  0.00    +0.000 OA
ATOM     12  N   UNL     1       1.888   1.893   8.456  0.00  0.00    +0.000 N 
ATOM     13  C   UNL     1       0.528   1.659   8.014  0.00  0.00    +0.000 C 
ATOM     14  C   UNL     1      -0.292   2.498   8.976  0.00  0.00    +0.000 C 
ATOM     15  C   UNL     1       0.461   2.355  10.294  0.00  0.00    +0.000 C 
ATOM     16  C   UNL     1       1.921   2.163   9.884  0.00  0.00    +0.000 C 
ATOM     17  H   UNL     1       2.076   1.943   5.991  0.00  0.00    +0.000 HD
ENDBRANCH   8   9
ENDBRANCH   5   8
ENDBRANCH   1   2
BRANCH   1  18
ATOM     18  N   UNL     1       1.491  -0.958   0.087  0.00  0.00    +0.000 N 
ATOM     19  C   UNL     1       0.876  -1.477  -1.023  0.00  0.00    +0.000 C 
ATOM     20  O   UNL     1       1.256  -1.236  -2.165  0.00  0.00    +0.000 OA
ATOM     21  H   UNL     1       0.923  -0.902   0.925  0.00  0.00    +0.000 HD
BRANCH  19  22
ATOM     22  C   UNL     1      -0.187  -2.455  -0.755  0.00  0.00    +0.000 A 
ATOM     23  C   UNL     1      -0.448  -3.464  -1.671  0.00  0.00    +0.000 A 
ATOM     24  S   UNL     1      -1.641  -4.567  -1.149  0.00  0.00    +0.000 S 
ATOM     25  C   UNL     1      -1.890  -3.700   0.294  0.00  0.00    +0.000 A 
ATOM     26  N   UNL     1      -2.810  -4.107   1.210  0.00  0.00    +0.000 NA
ATOM     27  C   UNL     1      -2.910  -3.341   2.244  0.00  0.00    +0.000 A 
ATOM     28  N   UNL     1      -2.173  -2.201   2.447  0.00  0.00    +0.000 N 
ATOM     29  C   UNL     1      -1.221  -1.763   1.559  0.00  0.00    +0.000 A 
ATOM     30  O   UNL     1      -0.555  -0.755   1.774  0.00  0.00    +0.000 OA
ATOM     31  C   UNL     1      -1.068  -2.591   0.379  0.00  0.00    +0.000 A 
ATOM     32  H   UNL     1      -2.298  -1.646   3.280  0.00  0.00    +0.000 HD
ENDBRANCH  19  22
ENDBRANCH   1  18
BRANCH   1  33
ATOM     33  N   UNL     1       3.651  -0.585  -0.654  0.00  0.00    +0.000 NA
ATOM     34  H   UNL     1       3.303  -0.820  -1.587  0.00  0.00    +0.000 HD
ATOM     35  H   UNL     1       3.848  -1.480  -0.216  0.00  0.00    +0.000 HD
ENDBRANCH   1  33
TORSDOF 6
