REMARK  Name = 
REMARK  7 active torsions:
REMARK  status: ('A' for Active; 'I' for Inactive)
REMARK    1  A    between atoms: C_1  and  C_2
REMARK    2  A    between atoms: C_2  and  N_3
REMARK    3  A    between atoms: C_2  and  C_16
REMARK    4  A    between atoms: C_4  and  C_6
REMARK    5  A    between atoms: C_19  and  C_20
REMARK    6  A    between atoms: C_20  and  O_21
REMARK    7  A    between atoms: O_21  and  C_22
REMARK                            x       y       z     vdW  Elec       q    Type
REMARK                         _______ _______ _______ _____ _____    ______ ____
ROOT
ATOM      1  C   UNL     1       3.187  -1.218   0.707  0.00  0.00    +0.000 C 
ATOM      2  C   UNL     1       2.423  -0.102  -0.010  0.00  0.00    +0.000 C 
ENDROOT
BRANCH   2   3
ATOM      3  C   UNL     1       2.950   0.229  -1.396  0.00  0.00    +0.000 A 
ATOM      4  C   UNL     1       2.885   1.558  -1.849  0.00  0.00    +0.000 A 
ATOM      5  C   UNL     1       3.358   1.912  -3.115  0.00  0.00    +0.000 A 
ATOM      6  C   UNL     1       3.889   0.941  -3.970  0.00  0.00    +0.000 A 
ATOM      7  C   UNL     1       3.961  -0.384  -3.524  0.00  0.00    +0.000 A 
ATOM      8  C   UNL     1       3.483  -0.739  -2.258  0.00  0.00    +0.000 A 
BRANCH   6   9
ATOM      9  C   UNL     1       4.345   1.307  -5.360  0.00  0.00    +0.000 C 
BRANCH   9  10
ATOM     10  O   UNL     1       5.720   1.687  -5.352  0.00  0.00    +0.000 OA
BRANCH  10  11
ATOM     11  C   UNL     1       6.243   2.048  -6.564  0.00  0.00    +0.000 A 
ATOM     12  C   UNL     1       5.576   2.032  -7.787  0.00  0.00    +0.000 A 
ATOM     13  C   UNL     1       6.240   2.430  -8.947  0.00  0.00    +0.000 A 
ATOM     14  C   UNL     1       7.561   2.834  -8.846  0.00  0.00    +0.000 A 
ATOM     15  N   UNL     1       8.243   2.863  -7.682  0.00  0.00    +0.000 NA
ATOM     16  C   UNL     1       7.570   2.470  -6.573  0.00  0.00    +0.000 A 
ENDBRANCH  10  11
ENDBRANCH   9  10
ENDBRANCH   6   9
ENDBRANCH   2   3
BRANCH   2  17
ATOM     17  N   UNL     1       1.006  -0.415  -0.076  0.00  0.00    +0.000 N 
ATOM     18  C   UNL     1       0.160  -0.114   0.962  0.00  0.00    +0.000 C 
ATOM     19  O   UNL     1       0.543   0.489   1.962  0.00  0.00    +0.000 OA
ATOM     20  H   UNL     1       0.703  -1.056  -0.802  0.00  0.00    +0.000 HD
BRANCH  18  21
ATOM     21  C   UNL     1      -1.249  -0.494   0.809  0.00  0.00    +0.000 A 
ATOM     22  C   UNL     1      -2.222   0.217   1.499  0.00  0.00    +0.000 A 
ATOM     23  S   UNL     1      -3.806  -0.351   1.231  0.00  0.00    +0.000 S 
ATOM     24  C   UNL     1      -3.243  -1.599   0.219  0.00  0.00    +0.000 A 
ATOM     25  N   UNL     1      -4.104  -2.504  -0.316  0.00  0.00    +0.000 NA
ATOM     26  C   UNL     1      -3.538  -3.422  -1.026  0.00  0.00    +0.000 A 
ATOM     27  N   UNL     1      -2.189  -3.505  -1.265  0.00  0.00    +0.000 N 
ATOM     28  C   UNL     1      -1.286  -2.580  -0.792  0.00  0.00    +0.000 A 
ATOM     29  O   UNL     1      -0.100  -2.625  -1.101  0.00  0.00    +0.000 OA
ATOM     30  C   UNL     1      -1.869  -1.555   0.055  0.00  0.00    +0.000 A 
ATOM     31  H   UNL     1      -1.817  -4.238  -1.850  0.00  0.00    +0.000 HD
ENDBRANCH  18  21
ENDBRANCH   2  17
TORSDOF 6
