REMARK  Name = 
REMARK  8 active torsions:
REMARK  status: ('A' for Active; 'I' for Inactive)
REMARK    1  A    between atoms: C_1  and  O_2
REMARK    2  A    between atoms: O_2  and  C_3
REMARK    3  A    between atoms: C_10  and  C_11
REMARK    4  A    between atoms: N_13  and  C_14
REMARK    5  A    between atoms: C_14  and  C_15
REMARK    6  A    between atoms: C_18  and  N_19
REMARK    7  A    between atoms: N_19  and  C_20
REMARK    8  A    between atoms: C_20  and  C_21
REMARK                            x       y       z     vdW  Elec       q    Type
REMARK                         _______ _______ _______ _____ _____    ______ ____
ROOT
ATOM      1  C   UNL     1       2.870   2.427   2.209  0.00  0.00    +0.000 C 
ENDROOT
BRANCH   1   2
ATOM      2  C   UNL     1       1.674   2.965   1.469  0.00  0.00    +0.000 A 
ATOM      3  C   UNL     1       0.588   2.136   1.163  0.00  0.00    +0.000 A 
ATOM      4  C   UNL     1      -0.527   2.637   0.475  0.00  0.00    +0.000 A 
ATOM      5  C   UNL     1      -0.582   3.977   0.086  0.00  0.00    +0.000 A 
ATOM      6  C   UNL     1       0.534   4.782   0.340  0.00  0.00    +0.000 A 
ATOM      7  C   UNL     1       1.644   4.293   1.034  0.00  0.00    +0.000 A 
BRANCH   5   8
ATOM      8  N   UNL     1      -1.644   4.550  -0.613  0.00  0.00    +0.000 N 
ATOM      9  H   UNL     1      -1.416   4.653  -1.601  0.00  0.00    +0.000 HD
BRANCH   8  10
ATOM     10  C   UNL     1      -2.993   4.004  -0.451  0.00  0.00    +0.000 C 
BRANCH  10  11
ATOM     11  C   UNL     1      -4.023   5.088  -0.728  0.00  0.00    +0.000 A 
ATOM     12  C   UNL     1      -3.993   6.271   0.014  0.00  0.00    +0.000 A 
ATOM     13  C   UNL     1      -4.947   7.252  -0.239  0.00  0.00    +0.000 A 
ATOM     14  C   UNL     1      -5.906   7.029  -1.216  0.00  0.00    +0.000 A 
ATOM     15  C   UNL     1      -5.870   5.829  -1.906  0.00  0.00    +0.000 A 
ATOM     16  N   UNL     1      -4.954   4.855  -1.688  0.00  0.00    +0.000 NA
ENDBRANCH  10  11
ENDBRANCH   8  10
ENDBRANCH   5   8
ENDBRANCH   1   2
BRANCH   1  19
ATOM     17  C   UNL     1       4.998   1.297   1.757  0.00  0.00    +0.000 C 
ATOM     18  O   UNL     1       5.251   1.257   2.959  0.00  0.00    +0.000 OA
ATOM     19  N   UNL     1       3.841   1.869   1.301  0.00  0.00    +0.000 N 
ATOM     20  H   UNL     1       3.633   1.891   0.311  0.00  0.00    +0.000 HD
BRANCH  17  28
ATOM     21  C   UNL     1       4.952   1.053  -1.684  0.00  0.00    +0.000 A 
ATOM     22  N   UNL     1       5.169   0.783  -2.988  0.00  0.00    +0.000 NA
ATOM     23  C   UNL     1       6.287   0.131  -3.317  0.00  0.00    +0.000 A 
ATOM     24  N   UNL     1       7.240  -0.290  -2.491  0.00  0.00    +0.000 NA
ATOM     25  C   UNL     1       6.977  -0.015  -1.202  0.00  0.00    +0.000 A 
ATOM     26  S   UNL     1       8.092  -0.474  -0.007  0.00  0.00    +0.000 S 
ATOM     27  C   UNL     1       7.109   0.162   1.222  0.00  0.00    +0.000 A 
ATOM     28  C   UNL     1       5.926   0.731   0.763  0.00  0.00    +0.000 A 
ATOM     29  C   UNL     1       5.857   0.637  -0.693  0.00  0.00    +0.000 A 
BRANCH  21  31
ATOM     30  C   UNL     1       3.320   2.559  -2.404  0.00  0.00    +0.000 C 
ATOM     31  O   UNL     1       3.797   1.728  -1.347  0.00  0.00    +0.000 OA
ENDBRANCH  21  31
ENDBRANCH  17  28
ENDBRANCH   1  19
TORSDOF 7
