REMARK  Name = 
REMARK  7 active torsions:
REMARK  status: ('A' for Active; 'I' for Inactive)
REMARK    1  A    between atoms: C_1  and  C_2
REMARK    2  A    between atoms: C_2  and  C_3
REMARK    3  A    between atoms: C_2  and  C_15
REMARK    4  A    between atoms: C_3  and  N_4
REMARK    5  A    between atoms: N_4  and  C_5
REMARK    6  A    between atoms: C_8  and  C_9
REMARK    7  A    between atoms: C_19  and  C_20
REMARK                            x       y       z     vdW  Elec       q    Type
REMARK                         _______ _______ _______ _____ _____    ______ ____
ROOT
ATOM      1  N   UNL     1       2.753  -1.711   1.909  0.00  0.00    +0.000 N 
ATOM      2  H   UNL     1       1.753  -1.706   2.121  0.00  0.00    +0.000 HD
ENDROOT
BRANCH   1   3
ATOM      3  C   UNL     1       3.361  -2.845   2.484  0.00  0.00    +0.000 A 
ATOM      4  C   UNL     1       4.624  -3.296   2.084  0.00  0.00    +0.000 A 
ATOM      5  C   UNL     1       5.231  -4.396   2.691  0.00  0.00    +0.000 A 
ATOM      6  C   UNL     1       4.606  -5.056   3.753  0.00  0.00    +0.000 A 
ATOM      7  C   UNL     1       3.365  -4.590   4.203  0.00  0.00    +0.000 A 
ATOM      8  C   UNL     1       2.768  -3.494   3.579  0.00  0.00    +0.000 A 
ATOM      9  F   UNL     1       1.574  -3.071   4.031  0.00  0.00    +0.000 F 
BRANCH   6  10
ATOM     10  C   UNL     1       5.211  -6.235   4.431  0.00  0.00    +0.000 C 
ATOM     11  N   UNL     1       6.431  -6.685   4.003  0.00  0.00    +0.000 N 
ATOM     12  O   UNL     1       4.640  -6.802   5.355  0.00  0.00    +0.000 OA
ATOM     13  H   UNL     1       6.981  -6.282   3.263  0.00  0.00    +0.000 HD
ATOM     14  H   UNL     1       6.814  -7.486   4.488  0.00  0.00    +0.000 HD
ENDBRANCH   6  10
ENDBRANCH   1   3
BRANCH   1  15
ATOM     15  C   UNL     1       3.029  -1.469   0.499  0.00  0.00    +0.000 C 
BRANCH  15  17
ATOM     16  C   UNL     1       2.638   1.069   0.529  0.00  0.00    +0.000 C 
ATOM     17  C   UNL     1       2.225  -0.290   0.059  0.00  0.00    +0.000 C 
BRANCH  17  18
ATOM     18  C   UNL     1       0.941  -0.487  -0.623  0.00  0.00    +0.000 A 
ATOM     19  C   UNL     1      -0.185   0.229  -0.206  0.00  0.00    +0.000 A 
ATOM     20  C   UNL     1      -1.427   0.011  -0.801  0.00  0.00    +0.000 A 
ATOM     21  C   UNL     1      -1.554  -0.912  -1.837  0.00  0.00    +0.000 A 
ATOM     22  C   UNL     1      -0.434  -1.616  -2.300  0.00  0.00    +0.000 A 
ATOM     23  C   UNL     1       0.808  -1.400  -1.679  0.00  0.00    +0.000 A 
BRANCH  22  24
ATOM     24  C   UNL     1      -0.544  -2.583  -3.452  0.00  0.00    +0.000 C 
ATOM     25  F   UNL     1      -1.807  -2.701  -3.950  0.00  0.00    +0.000 F 
ATOM     26  F   UNL     1       0.238  -2.223  -4.508  0.00  0.00    +0.000 F 
ATOM     27  F   UNL     1      -0.156  -3.844  -3.116  0.00  0.00    +0.000 F 
ENDBRANCH  22  24
ENDBRANCH  17  18
ENDBRANCH  15  17
ENDBRANCH   1  15
TORSDOF 6
