REMARK  Name = 
REMARK  7 active torsions:
REMARK  status: ('A' for Active; 'I' for Inactive)
REMARK    1  A    between atoms: C_2  and  C_3
REMARK    2  A    between atoms: C_6  and  N_7
REMARK    3  A    between atoms: N_7  and  C_8
REMARK    4  A    between atoms: C_8  and  C_9
REMARK    5  A    between atoms: C_9  and  C_12
REMARK    6  A    between atoms: C_16  and  O_17
REMARK    7  A    between atoms: O_17  and  C_18
REMARK                            x       y       z     vdW  Elec       q    Type
REMARK                         _______ _______ _______ _____ _____    ______ ____
ROOT
ATOM      1  C   UNL     1       5.996  -1.022   0.244  0.00  0.00    +0.000 C 
ATOM      2  F   UNL     1       5.030  -1.162  -0.712  0.00  0.00    +0.000 F 
ATOM      3  F   UNL     1       6.776   0.018  -0.187  0.00  0.00    +0.000 F 
ENDROOT
BRANCH   1   4
ATOM      4  C   UNL     1       6.797  -2.295   0.428  0.00  0.00    +0.000 A 
ATOM      5  C   UNL     1       8.151  -2.244   0.790  0.00  0.00    +0.000 A 
ATOM      6  C   UNL     1       8.874  -3.422   0.993  0.00  0.00    +0.000 A 
ATOM      7  C   UNL     1       8.261  -4.668   0.830  0.00  0.00    +0.000 A 
ATOM      8  C   UNL     1       6.921  -4.733   0.459  0.00  0.00    +0.000 A 
ATOM      9  C   UNL     1       6.194  -3.554   0.266  0.00  0.00    +0.000 A 
BRANCH   8  10
ATOM     10  O   UNL     1       6.202  -5.891   0.301  0.00  0.00    +0.000 OA
BRANCH  10  11
ATOM     11  C   UNL     1       6.892  -7.132   0.041  0.00  0.00    +0.000 C 
ATOM     12  C   UNL     1       7.550  -7.301  -1.352  0.00  0.00    +0.000 C 
ATOM     13  C   UNL     1       6.969  -8.723  -1.414  0.00  0.00    +0.000 C 
ATOM     14  C   UNL     1       5.948  -8.300  -0.350  0.00  0.00    +0.000 C 
ENDBRANCH  10  11
ENDBRANCH   8  10
ENDBRANCH   1   4
BRANCH   1  15
ATOM     15  C   UNL     1       5.326  -0.594   1.578  0.00  0.00    +0.000 C 
BRANCH  15  16
ATOM     16  N   UNL     1       4.572   0.670   1.473  0.00  0.00    +0.000 N 
ATOM     17  H   UNL     1       4.965   1.337   0.809  0.00  0.00    +0.000 HD
BRANCH  16  21
ATOM     18  C   UNL     1       2.504   2.420   4.710  0.00  0.00    +0.000 A 
ATOM     19  C   UNL     1       3.177   1.212   4.895  0.00  0.00    +0.000 A 
ATOM     20  C   UNL     1       3.889   0.632   3.836  0.00  0.00    +0.000 A 
ATOM     21  C   UNL     1       3.971   1.253   2.585  0.00  0.00    +0.000 A 
ATOM     22  C   UNL     1       3.280   2.463   2.416  0.00  0.00    +0.000 A 
ATOM     23  C   UNL     1       2.556   3.046   3.465  0.00  0.00    +0.000 A 
BRANCH  18  25
ATOM     24  N   UNL     1       1.138   3.459   6.656  0.00  0.00    +0.000 NA
ATOM     25  C   UNL     1       1.749   2.998   5.784  0.00  0.00    +0.000 C 
ENDBRANCH  18  25
ENDBRANCH  16  21
ENDBRANCH  15  16
ENDBRANCH   1  15
TORSDOF 7
