REMARK  Name = 
REMARK  9 active torsions:
REMARK  status: ('A' for Active; 'I' for Inactive)
REMARK    1  A    between atoms: C_1  and  C_2
REMARK    2  A    between atoms: C_2  and  C_3
REMARK    3  A    between atoms: C_2  and  C_4
REMARK    4  A    between atoms: C_2  and  C_5
REMARK    5  A    between atoms: N_7  and  C_8
REMARK    6  A    between atoms: C_8  and  C_9
REMARK    7  A    between atoms: C_12  and  C_13
REMARK    8  A    between atoms: C_13  and  C_14
REMARK    9  A    between atoms: C_14  and  N_15
REMARK                            x       y       z     vdW  Elec       q    Type
REMARK                         _______ _______ _______ _____ _____    ______ ____
ROOT
ATOM      1  C   UNL     1       2.904   1.007  -1.045  0.00  0.00    +0.000 A 
ATOM      2  C   UNL     1       2.589   2.344  -0.851  0.00  0.00    +0.000 A 
ATOM      3  N   UNL     1       3.141   3.100  -1.851  0.00  0.00    +0.000 N 
ATOM      4  C   UNL     1       3.751   2.275  -2.770  0.00  0.00    +0.000 A 
ATOM      5  C   UNL     1       4.387   2.577  -3.989  0.00  0.00    +0.000 A 
ATOM      6  C   UNL     1       4.956   1.537  -4.726  0.00  0.00    +0.000 A 
ATOM      7  C   UNL     1       4.905   0.235  -4.256  0.00  0.00    +0.000 A 
ATOM      8  C   UNL     1       4.266  -0.061  -3.046  0.00  0.00    +0.000 A 
ATOM      9  C   UNL     1       3.658   0.962  -2.278  0.00  0.00    +0.000 A 
ENDROOT
BRANCH   1  11
ATOM     10  C   UNL     1       0.913  -0.179  -0.075  0.00  0.00    +0.000 C 
ATOM     11  C   UNL     1       2.457  -0.110  -0.093  0.00  0.00    +0.000 C 
ATOM     12  C   UNL     1       2.955   0.190   1.340  0.00  0.00    +0.000 C 
ATOM     13  C   UNL     1       2.972  -1.511  -0.462  0.00  0.00    +0.000 C 
ENDBRANCH   1  11
BRANCH   3  14
ATOM     14  C   UNL     1       3.040   4.556  -1.928  0.00  0.00    +0.000 C 
BRANCH  14  15
ATOM     15  C   UNL     1       4.178   5.227  -1.193  0.00  0.00    +0.000 A 
ATOM     16  C   UNL     1       5.383   5.517  -1.847  0.00  0.00    +0.000 A 
ATOM     17  C   UNL     1       6.481   6.009  -1.137  0.00  0.00    +0.000 A 
ATOM     18  C   UNL     1       6.400   6.219   0.245  0.00  0.00    +0.000 A 
ATOM     19  C   UNL     1       5.175   6.005   0.888  0.00  0.00    +0.000 A 
ATOM     20  C   UNL     1       4.077   5.508   0.177  0.00  0.00    +0.000 A 
BRANCH  18  21
ATOM     21  C   UNL     1       7.631   6.602   1.032  0.00  0.00    +0.000 C 
BRANCH  21  22
ATOM     22  C   UNL     1       7.865   8.111   1.117  0.00  0.00    +0.000 C 
BRANCH  22  23
ATOM     23  N   UNL     1       9.089   8.404   1.866  0.00  0.00    +0.000 NA
ATOM     24  H   UNL     1       8.993   8.073   2.826  0.00  0.00    +0.000 HD
ATOM     25  H   UNL     1       9.219   9.413   1.923  0.00  0.00    +0.000 HD
ENDBRANCH  22  23
ENDBRANCH  21  22
ENDBRANCH  18  21
ENDBRANCH  14  15
ENDBRANCH   3  14
TORSDOF 6
