REMARK  Name = 
REMARK  6 active torsions:
REMARK  status: ('A' for Active; 'I' for Inactive)
REMARK    1  A    between atoms: C_2  and  C_3
REMARK    2  A    between atoms: C_6  and  C_7
REMARK    3  A    between atoms: C_11  and  C_12
REMARK    4  A    between atoms: C_12  and  N_13
REMARK    5  A    between atoms: N_13  and  C_14
REMARK    6  A    between atoms: C_17  and  C_18
REMARK                            x       y       z     vdW  Elec       q    Type
REMARK                         _______ _______ _______ _____ _____    ______ ____
ROOT
ATOM      1  C   UNL     1       6.505   1.740   2.057  0.00  0.00    +0.000 C 
ATOM      2  C   UNL     1       7.182   3.033   1.655  0.00  0.00    +0.000 C 
ATOM      3  C   UNL     1       8.030   1.877   2.065  0.00  0.00    +0.000 C 
ENDROOT
BRANCH   1   8
ATOM      4  C   UNL     1       5.870  -1.273  -0.293  0.00  0.00    +0.000 A 
ATOM      5  C   UNL     1       4.823  -0.762  -1.075  0.00  0.00    +0.000 A 
ATOM      6  C   UNL     1       4.303   0.513  -0.847  0.00  0.00    +0.000 A 
ATOM      7  C   UNL     1       4.837   1.317   0.159  0.00  0.00    +0.000 A 
ATOM      8  C   UNL     1       5.892   0.868   0.965  0.00  0.00    +0.000 A 
ATOM      9  C   UNL     1       6.371  -0.438   0.726  0.00  0.00    +0.000 A 
BRANCH   4  13
ATOM     10  C   UNL     1       7.500  -5.234  -0.916  0.00  0.00    +0.000 A 
ATOM     11  C   UNL     1       8.322  -4.192  -0.486  0.00  0.00    +0.000 A 
ATOM     12  C   UNL     1       7.793  -2.908  -0.297  0.00  0.00    +0.000 A 
ATOM     13  C   UNL     1       6.431  -2.630  -0.519  0.00  0.00    +0.000 A 
ATOM     14  C   UNL     1       5.624  -3.695  -0.956  0.00  0.00    +0.000 A 
ATOM     15  C   UNL     1       6.149  -4.980  -1.156  0.00  0.00    +0.000 A 
BRANCH  10  17
ATOM     16  N   UNL     1       8.472  -7.611  -1.270  0.00  0.00    +0.000 NA
ATOM     17  C   UNL     1       8.037  -6.549  -1.113  0.00  0.00    +0.000 C 
ENDBRANCH  10  17
ENDBRANCH   4  13
ENDBRANCH   1   8
BRANCH   1  18
ATOM     18  N   UNL     1       5.946   1.509   3.397  0.00  0.00    +0.000 N 
ATOM     19  H   UNL     1       6.140   0.592   3.786  0.00  0.00    +0.000 HD
BRANCH  18  20
ATOM     20  C   UNL     1       4.823   2.124   3.972  0.00  0.00    +0.000 A 
ATOM     21  C   UNL     1       4.126   3.196   3.414  0.00  0.00    +0.000 A 
ATOM     22  C   UNL     1       3.089   3.830   4.125  0.00  0.00    +0.000 A 
ATOM     23  C   UNL     1       2.752   3.415   5.422  0.00  0.00    +0.000 A 
ATOM     24  C   UNL     1       3.447   2.345   5.973  0.00  0.00    +0.000 A 
ATOM     25  F   UNL     1       3.181   1.896   7.211  0.00  0.00    +0.000 F 
ATOM     26  C   UNL     1       4.465   1.716   5.265  0.00  0.00    +0.000 A 
BRANCH  23  27
ATOM     27  C   UNL     1       1.702   4.153   6.173  0.00  0.00    +0.000 C 
ATOM     28  N   UNL     1       1.405   3.740   7.442  0.00  0.00    +0.000 N 
ATOM     29  O   UNL     1       1.125   5.116   5.683  0.00  0.00    +0.000 OA
ATOM     30  H   UNL     1       1.875   2.966   7.895  0.00  0.00    +0.000 HD
ATOM     31  H   UNL     1       0.720   4.265   7.969  0.00  0.00    +0.000 HD
ENDBRANCH  23  27
ENDBRANCH  18  20
ENDBRANCH   1  18
TORSDOF 6
