REMARK  Name = 
REMARK  4 active torsions:
REMARK  status: ('A' for Active; 'I' for Inactive)
REMARK    1  A    between atoms: C_2  and  C_3
REMARK    2  A    between atoms: C_6  and  C_7
REMARK    3  A    between atoms: C_7  and  N_8
REMARK    4  A    between atoms: C_12  and  C_13
REMARK                            x       y       z     vdW  Elec       q    Type
REMARK                         _______ _______ _______ _____ _____    ______ ____
ROOT
ATOM      1  N   UNL     1       4.114   1.287   0.898  0.00  0.00    +0.000 N 
ATOM      2  C   UNL     1       4.312   2.570   0.401  0.00  0.00    +0.000 A 
ATOM      3  C   UNL     1       3.783   3.029  -0.799  0.00  0.00    +0.000 A 
ATOM      4  C   UNL     1       4.018   4.351  -1.194  0.00  0.00    +0.000 A 
ATOM      5  C   UNL     1       4.777   5.184  -0.375  0.00  0.00    +0.000 A 
ATOM      6  C   UNL     1       5.272   4.647   0.802  0.00  0.00    +0.000 A 
ATOM      7  N   UNL     1       5.046   3.371   1.203  0.00  0.00    +0.000 NA
ATOM      8  H   UNL     1       4.669   1.190   1.743  0.00  0.00    +0.000 HD
ENDROOT
BRANCH   5   9
ATOM      9  C   UNL     1       5.106   6.587  -0.706  0.00  0.00    +0.000 C 
ATOM     10  N   UNL     1       4.269   7.248  -1.561  0.00  0.00    +0.000 N 
ATOM     11  O   UNL     1       6.074   7.149  -0.213  0.00  0.00    +0.000 OA
ATOM     12  H   UNL     1       3.345   6.914  -1.796  0.00  0.00    +0.000 HD
ATOM     13  H   UNL     1       4.458   8.233  -1.699  0.00  0.00    +0.000 HD
ENDBRANCH   5   9
BRANCH   1  14
ATOM     14  C   UNL     1       3.762   0.095   0.123  0.00  0.00    +0.000 C 
ATOM     15  C   UNL     1       4.731  -0.515  -0.872  0.00  0.00    +0.000 C 
ATOM     16  C   UNL     1       4.569  -1.158   0.464  0.00  0.00    +0.000 C 
BRANCH  14  20
ATOM     17  C   UNL     1      -0.511  -0.646  -0.337  0.00  0.00    +0.000 A 
ATOM     18  C   UNL     1       0.279  -0.423  -1.465  0.00  0.00    +0.000 A 
ATOM     19  C   UNL     1       1.646  -0.159  -1.322  0.00  0.00    +0.000 A 
ATOM     20  C   UNL     1       2.260  -0.121  -0.057  0.00  0.00    +0.000 A 
ATOM     21  C   UNL     1       1.433  -0.318   1.063  0.00  0.00    +0.000 A 
ATOM     22  C   UNL     1       0.065  -0.581   0.932  0.00  0.00    +0.000 A 
BRANCH  17  24
ATOM     23  N   UNL     1      -3.028  -1.209  -0.603  0.00  0.00    +0.000 NA
ATOM     24  C   UNL     1      -1.901  -0.955  -0.483  0.00  0.00    +0.000 C 
ENDBRANCH  17  24
ENDBRANCH  14  20
ENDBRANCH   1  14
TORSDOF 4
