REMARK  Name = 
REMARK  6 active torsions:
REMARK  status: ('A' for Active; 'I' for Inactive)
REMARK    1  A    between atoms: C_2  and  C_25
REMARK    2  A    between atoms: N_3  and  C_4
REMARK    3  A    between atoms: C_4  and  C_5
REMARK    4  A    between atoms: C_8  and  C_9
REMARK    5  A    between atoms: C_9  and  N_10
REMARK    6  A    between atoms: C_11  and  C_13
REMARK                            x       y       z     vdW  Elec       q    Type
REMARK                         _______ _______ _______ _____ _____    ______ ____
ROOT
ATOM      1  C   UNL     1       3.172  -3.070  -1.878  0.00  0.00    +0.000 A 
ATOM      2  C   UNL     1       4.380  -2.656  -2.456  0.00  0.00    +0.000 A 
ATOM      3  C   UNL     1       5.275  -3.592  -2.992  0.00  0.00    +0.000 A 
ATOM      4  C   UNL     1       4.970  -4.959  -2.984  0.00  0.00    +0.000 A 
ATOM      5  C   UNL     1       3.764  -5.372  -2.399  0.00  0.00    +0.000 A 
ATOM      6  C   UNL     1       2.870  -4.438  -1.862  0.00  0.00    +0.000 A 
ENDROOT
BRANCH   1   7
ATOM      7  C   UNL     1       2.213  -2.065  -1.296  0.00  0.00    +0.000 C 
BRANCH   7  10
ATOM      8  O   UNL     1       0.163  -0.285  -0.778  0.00  0.00    +0.000 OA
ATOM      9  C   UNL     1       0.267  -0.707  -1.928  0.00  0.00    +0.000 C 
ATOM     10  N   UNL     1       1.258  -1.603  -2.273  0.00  0.00    +0.000 N 
ATOM     11  H   UNL     1       1.378  -1.858  -3.244  0.00  0.00    +0.000 HD
BRANCH   9  12
ATOM     12  C   UNL     1      -0.626  -0.297  -2.992  0.00  0.00    +0.000 A 
ATOM     13  C   UNL     1      -1.629   0.654  -2.921  0.00  0.00    +0.000 A 
ATOM     14  N   UNL     1      -2.365   0.848  -4.076  0.00  0.00    +0.000 NA
ATOM     15  C   UNL     1      -1.917   0.040  -5.010  0.00  0.00    +0.000 A 
ATOM     16  S   UNL     1      -0.598  -0.965  -4.573  0.00  0.00    +0.000 S 
ENDBRANCH   9  12
ENDBRANCH   7  10
ENDBRANCH   1   7
BRANCH   4  17
ATOM     17  C   UNL     1       5.922  -5.980  -3.560  0.00  0.00    +0.000 C 
BRANCH  17  18
ATOM     18  N   UNL     1       6.848  -6.459  -2.562  0.00  0.00    +0.000 N 
ATOM     19  C   UNL     1       7.839  -7.358  -2.872  0.00  0.00    +0.000 C 
ATOM     20  O   UNL     1       8.023  -7.767  -4.013  0.00  0.00    +0.000 OA
ATOM     21  H   UNL     1       6.562  -6.355  -1.597  0.00  0.00    +0.000 HD
BRANCH  19  22
ATOM     22  C   UNL     1       8.728  -7.738  -1.763  0.00  0.00    +0.000 A 
ATOM     23  C   UNL     1      10.020  -8.178  -2.025  0.00  0.00    +0.000 A 
ATOM     24  S   UNL     1      10.924  -8.513  -0.618  0.00  0.00    +0.000 S 
ATOM     25  C   UNL     1       9.607  -8.138   0.390  0.00  0.00    +0.000 A 
ATOM     26  N   UNL     1       9.703  -8.243   1.742  0.00  0.00    +0.000 NA
ATOM     27  C   UNL     1       8.615  -7.956   2.379  0.00  0.00    +0.000 A 
ATOM     28  N   UNL     1       7.442  -7.572   1.785  0.00  0.00    +0.000 N 
ATOM     29  C   UNL     1       7.309  -7.420   0.427  0.00  0.00    +0.000 A 
ATOM     30  O   UNL     1       6.257  -7.024  -0.068  0.00  0.00    +0.000 OA
ATOM     31  C   UNL     1       8.497  -7.744  -0.338  0.00  0.00    +0.000 A 
ATOM     32  H   UNL     1       6.629  -7.351   2.340  0.00  0.00    +0.000 HD
ENDBRANCH  19  22
ENDBRANCH  17  18
ENDBRANCH   4  17
TORSDOF 6
