REMARK  Name = 
REMARK  4 active torsions:
REMARK  status: ('A' for Active; 'I' for Inactive)
REMARK    1  A    between atoms: C_2  and  C_4
REMARK    2  A    between atoms: C_4  and  C_5
REMARK    3  A    between atoms: N_7  and  C_8
REMARK    4  A    between atoms: C_8  and  C_9
REMARK                            x       y       z     vdW  Elec       q    Type
REMARK                         _______ _______ _______ _____ _____    ______ ____
ROOT
ATOM      1  C   UNL     1       4.599   0.623  -0.799  0.00  0.00    +0.000 A 
ATOM      2  C   UNL     1       5.519   1.650  -0.718  0.00  0.00    +0.000 A 
ATOM      3  N   UNL     1       6.765   1.105  -0.530  0.00  0.00    +0.000 N 
ATOM      4  C   UNL     1       6.687  -0.273  -0.554  0.00  0.00    +0.000 A 
ATOM      5  C   UNL     1       7.676  -1.263  -0.425  0.00  0.00    +0.000 A 
ATOM      6  C   UNL     1       7.281  -2.603  -0.459  0.00  0.00    +0.000 A 
ATOM      7  C   UNL     1       5.947  -2.951  -0.633  0.00  0.00    +0.000 A 
ATOM      8  C   UNL     1       4.969  -1.962  -0.773  0.00  0.00    +0.000 A 
ATOM      9  C   UNL     1       5.338  -0.600  -0.729  0.00  0.00    +0.000 A 
ENDROOT
BRANCH   1  10
ATOM     10  C   UNL     1       3.112   0.767  -0.918  0.00  0.00    +0.000 C 
BRANCH  10  12
ATOM     11  N   UNL     1       2.856   0.109   1.449  0.00  0.00    +0.000 N 
ATOM     12  C   UNL     1       2.403   0.888   0.423  0.00  0.00    +0.000 C 
ATOM     13  O   UNL     1       1.405   1.588   0.582  0.00  0.00    +0.000 OA
ATOM     14  H   UNL     1       2.426   0.234   2.355  0.00  0.00    +0.000 HD
ATOM     15  H   UNL     1       3.747  -0.370   1.408  0.00  0.00    +0.000 HD
ENDBRANCH  10  12
ENDBRANCH   1  10
BRANCH   3  16
ATOM     16  C   UNL     1       7.978   1.891  -0.329  0.00  0.00    +0.000 C 
BRANCH  16  17
ATOM     17  C   UNL     1       8.209   2.170   1.121  0.00  0.00    +0.000 A 
ATOM     18  C   UNL     1       8.930   1.325   1.937  0.00  0.00    +0.000 A 
ATOM     19  N   UNL     1       9.131   1.536   3.254  0.00  0.00    +0.000 NA
ATOM     20  C   UNL     1       8.566   2.642   3.758  0.00  0.00    +0.000 A 
ATOM     21  N   UNL     1       7.847   3.541   3.069  0.00  0.00    +0.000 NA
ATOM     22  C   UNL     1       7.681   3.276   1.758  0.00  0.00    +0.000 A 
ENDBRANCH  16  17
ENDBRANCH   3  16
TORSDOF 4
