REMARK  Name = 
REMARK  6 active torsions:
REMARK  status: ('A' for Active; 'I' for Inactive)
REMARK    1  A    between atoms: C_1  and  C_2
REMARK    2  A    between atoms: C_6  and  O_7
REMARK    3  A    between atoms: O_7  and  C_8
REMARK    4  A    between atoms: C_11  and  C_12
REMARK    5  A    between atoms: C_12  and  N_13
REMARK    6  A    between atoms: C_14  and  C_16
REMARK                            x       y       z     vdW  Elec       q    Type
REMARK                         _______ _______ _______ _____ _____    ______ ____
ROOT
ATOM      1  C   UNL     1      -7.523  -2.298  -0.034  0.00  0.00    +0.000 C 
ENDROOT
BRANCH   1   5
ATOM      2  C   UNL     1      -3.209  -2.391  -0.045  0.00  0.00    +0.000 A 
ATOM      3  C   UNL     1      -3.904  -1.953  -1.175  0.00  0.00    +0.000 A 
ATOM      4  C   UNL     1      -5.301  -1.915  -1.169  0.00  0.00    +0.000 A 
ATOM      5  C   UNL     1      -6.019  -2.371  -0.056  0.00  0.00    +0.000 A 
ATOM      6  C   UNL     1      -5.315  -2.930   1.020  0.00  0.00    +0.000 A 
ATOM      7  C   UNL     1      -3.918  -2.931   1.029  0.00  0.00    +0.000 A 
BRANCH   2   8
ATOM      8  O   UNL     1      -1.836  -2.371   0.071  0.00  0.00    +0.000 OA
BRANCH   8  14
ATOM      9  C   UNL     1       2.416  -1.027  -1.887  0.00  0.00    +0.000 C 
ATOM     10  C   UNL     1       1.007  -0.689  -1.500  0.00  0.00    +0.000 A 
ATOM     11  C   UNL     1       0.486   0.587  -1.741  0.00  0.00    +0.000 A 
ATOM     12  C   UNL     1      -0.804   0.912  -1.323  0.00  0.00    +0.000 A 
ATOM     13  C   UNL     1      -1.588  -0.040  -0.672  0.00  0.00    +0.000 A 
ATOM     14  C   UNL     1      -1.115  -1.344  -0.503  0.00  0.00    +0.000 A 
ATOM     15  C   UNL     1       0.194  -1.654  -0.884  0.00  0.00    +0.000 A 
ENDBRANCH   8  14
ENDBRANCH   2   8
ENDBRANCH   1   5
BRANCH   1  16
ATOM     16  N   UNL     1      -8.105  -3.466  -0.639  0.00  0.00    +0.000 N 
ATOM     17  C   UNL     1      -9.460  -3.579  -0.815  0.00  0.00    +0.000 C 
ATOM     18  O   UNL     1     -10.235  -2.682  -0.502  0.00  0.00    +0.000 OA
ATOM     19  H   UNL     1      -7.521  -4.294  -0.688  0.00  0.00    +0.000 HD
BRANCH  17  20
ATOM     20  C   UNL     1      -9.923  -4.809  -1.467  0.00  0.00    +0.000 A 
ATOM     21  C   UNL     1     -11.150  -4.823  -2.117  0.00  0.00    +0.000 A 
ATOM     22  S   UNL     1     -11.498  -6.303  -2.888  0.00  0.00    +0.000 S 
ATOM     23  C   UNL     1     -10.048  -6.998  -2.330  0.00  0.00    +0.000 A 
ATOM     24  N   UNL     1      -9.729  -8.286  -2.630  0.00  0.00    +0.000 NA
ATOM     25  C   UNL     1      -8.619  -8.695  -2.110  0.00  0.00    +0.000 A 
ATOM     26  N   UNL     1      -7.800  -7.932  -1.319  0.00  0.00    +0.000 N 
ATOM     27  C   UNL     1      -8.066  -6.619  -1.015  0.00  0.00    +0.000 A 
ATOM     28  O   UNL     1      -7.293  -5.953  -0.334  0.00  0.00    +0.000 OA
ATOM     29  C   UNL     1      -9.305  -6.111  -1.572  0.00  0.00    +0.000 A 
ATOM     30  H   UNL     1      -6.942  -8.311  -0.944  0.00  0.00    +0.000 HD
ENDBRANCH  17  20
ENDBRANCH   1  16
TORSDOF 5
