REMARK  Name = 
REMARK  7 active torsions:
REMARK  status: ('A' for Active; 'I' for Inactive)
REMARK    1  A    between atoms: C_2  and  C_19
REMARK    2  A    between atoms: N_3  and  C_4
REMARK    3  A    between atoms: C_4  and  C_5
REMARK    4  A    between atoms: C_8  and  C_9
REMARK    5  A    between atoms: C_9  and  N_10
REMARK    6  A    between atoms: N_10  and  C_11
REMARK    7  A    between atoms: C_11  and  C_12
REMARK                            x       y       z     vdW  Elec       q    Type
REMARK                         _______ _______ _______ _____ _____    ______ ____
ROOT
ATOM      1  C   UNL     1       2.297  -2.124   1.215  0.00  0.00    +0.000 C 
ENDROOT
BRANCH   1   2
ATOM      2  C   UNL     1       3.219  -3.122   1.863  0.00  0.00    +0.000 A 
ATOM      3  C   UNL     1       4.292  -2.683   2.647  0.00  0.00    +0.000 A 
ATOM      4  C   UNL     1       5.117  -3.599   3.306  0.00  0.00    +0.000 A 
ATOM      5  C   UNL     1       4.884  -4.979   3.210  0.00  0.00    +0.000 A 
ATOM      6  C   UNL     1       3.840  -5.417   2.381  0.00  0.00    +0.000 A 
ATOM      7  C   UNL     1       3.021  -4.500   1.710  0.00  0.00    +0.000 A 
BRANCH   5   8
ATOM      8  C   UNL     1       5.765  -5.993   3.920  0.00  0.00    +0.000 C 
BRANCH   8   9
ATOM      9  N   UNL     1       6.305  -5.478   5.182  0.00  0.00    +0.000 NA
ATOM     10  H   UNL     1       5.526  -5.206   5.781  0.00  0.00    +0.000 HD
BRANCH   9  11
ATOM     11  C   UNL     1       7.160  -6.448   5.870  0.00  0.00    +0.000 C 
BRANCH  11  12
ATOM     12  C   UNL     1       7.671  -5.848   7.195  0.00  0.00    +0.000 C 
ATOM     13  C   UNL     1       8.542  -4.619   7.006  0.00  0.00    +0.000 C 
ATOM     14  C   UNL     1       9.927  -5.197   6.811  0.00  0.00    +0.000 C 
ATOM     15  O   UNL     1       9.958  -6.463   7.481  0.00  0.00    +0.000 OA
ATOM     16  C   UNL     1       8.630  -6.783   7.919  0.00  0.00    +0.000 C 
ENDBRANCH  11  12
ENDBRANCH   9  11
ENDBRANCH   8   9
ENDBRANCH   5   8
ENDBRANCH   1   2
BRANCH   1  19
ATOM     17  O   UNL     1       3.810   0.202   0.726  0.00  0.00    +0.000 OA
ATOM     18  C   UNL     1       3.543  -0.545  -0.210  0.00  0.00    +0.000 C 
ATOM     19  N   UNL     1       2.781  -1.674  -0.063  0.00  0.00    +0.000 N 
ATOM     20  H   UNL     1       2.715  -2.338  -0.826  0.00  0.00    +0.000 HD
BRANCH  18  21
ATOM     21  C   UNL     1       3.989  -0.244  -1.574  0.00  0.00    +0.000 A 
ATOM     22  C   UNL     1       4.268   1.065  -1.946  0.00  0.00    +0.000 A 
ATOM     23  S   UNL     1       4.826   1.212  -3.552  0.00  0.00    +0.000 S 
ATOM     24  C   UNL     1       4.732  -0.469  -3.797  0.00  0.00    +0.000 A 
ATOM     25  N   UNL     1       5.121  -1.031  -4.974  0.00  0.00    +0.000 NA
ATOM     26  C   UNL     1       5.031  -2.321  -5.001  0.00  0.00    +0.000 A 
ATOM     27  N   UNL     1       4.570  -3.095  -3.971  0.00  0.00    +0.000 N 
ATOM     28  C   UNL     1       4.079  -2.562  -2.808  0.00  0.00    +0.000 A 
ATOM     29  O   UNL     1       3.508  -3.274  -1.981  0.00  0.00    +0.000 OA
ATOM     30  C   UNL     1       4.235  -1.128  -2.686  0.00  0.00    +0.000 A 
ATOM     31  H   UNL     1       4.476  -4.094  -4.076  0.00  0.00    +0.000 HD
ENDBRANCH  18  21
ENDBRANCH   1  19
TORSDOF 7
