REMARK  Name = 
REMARK  7 active torsions:
REMARK  status: ('A' for Active; 'I' for Inactive)
REMARK    1  A    between atoms: C_1  and  O_2
REMARK    2  A    between atoms: O_2  and  C_3
REMARK    3  A    between atoms: C_5  and  C_6
REMARK    4  A    between atoms: C_11  and  N_12
REMARK    5  A    between atoms: N_12  and  C_13
REMARK    6  A    between atoms: C_13  and  C_14
REMARK    7  A    between atoms: C_18  and  C_19
REMARK                            x       y       z     vdW  Elec       q    Type
REMARK                         _______ _______ _______ _____ _____    ______ ____
ROOT
ATOM      1  N   UNL     1       4.491  -0.942   1.399  0.00  0.00    +0.000 N 
ATOM      2  H   UNL     1       5.183  -1.431   1.949  0.00  0.00    +0.000 HD
ENDROOT
BRANCH   1   8
ATOM      3  C   UNL     1       3.163  -1.068  -0.689  0.00  0.00    +0.000 A 
ATOM      4  C   UNL     1       2.920  -1.783  -1.866  0.00  0.00    +0.000 A 
ATOM      5  C   UNL     1       3.610  -2.963  -2.132  0.00  0.00    +0.000 A 
ATOM      6  C   UNL     1       4.536  -3.373  -1.191  0.00  0.00    +0.000 A 
ATOM      7  N   UNL     1       4.810  -2.698  -0.040  0.00  0.00    +0.000 NA
ATOM      8  C   UNL     1       4.135  -1.550   0.214  0.00  0.00    +0.000 A 
BRANCH   5   9
ATOM      9  C   UNL     1       3.297  -3.683  -3.393  0.00  0.00    +0.000 C 
ATOM     10  N   UNL     1       3.960  -4.840  -3.688  0.00  0.00    +0.000 N 
ATOM     11  O   UNL     1       2.449  -3.255  -4.165  0.00  0.00    +0.000 OA
ATOM     12  H   UNL     1       4.677  -5.274  -3.129  0.00  0.00    +0.000 HD
ATOM     13  H   UNL     1       3.706  -5.291  -4.558  0.00  0.00    +0.000 HD
ENDBRANCH   5   9
BRANCH   3  15
ATOM     14  C   UNL     1       1.266   0.337  -1.049  0.00  0.00    +0.000 C 
ATOM     15  O   UNL     1       2.514   0.107  -0.405  0.00  0.00    +0.000 OA
ENDBRANCH   3  15
ENDBRANCH   1   8
BRANCH   1  16
ATOM     16  C   UNL     1       3.843   0.235   1.915  0.00  0.00    +0.000 C 
BRANCH  16  17
ATOM     17  C   UNL     1       4.374   0.680   3.258  0.00  0.00    +0.000 A 
ATOM     18  C   UNL     1       5.548   1.435   3.341  0.00  0.00    +0.000 A 
ATOM     19  C   UNL     1       5.929   2.001   4.555  0.00  0.00    +0.000 A 
ATOM     20  C   UNL     1       5.137   1.822   5.694  0.00  0.00    +0.000 A 
ATOM     21  C   UNL     1       3.948   1.073   5.652  0.00  0.00    +0.000 A 
ATOM     22  C   UNL     1       3.608   0.477   4.422  0.00  0.00    +0.000 A 
BRANCH  21  23
ATOM     23  C   UNL     1       3.028   1.005   6.815  0.00  0.00    +0.000 A 
ATOM     24  C   UNL     1       2.841   2.124   7.653  0.00  0.00    +0.000 A 
ATOM     25  C   UNL     1       1.912   2.109   8.698  0.00  0.00    +0.000 A 
ATOM     26  C   UNL     1       1.150   0.973   8.917  0.00  0.00    +0.000 A 
ATOM     27  F   UNL     1       0.238   0.967   9.898  0.00  0.00    +0.000 F 
ATOM     28  C   UNL     1       1.314  -0.154   8.124  0.00  0.00    +0.000 A 
ATOM     29  C   UNL     1       2.253  -0.140   7.086  0.00  0.00    +0.000 A 
ENDBRANCH  21  23
ENDBRANCH  16  17
ENDBRANCH   1  16
TORSDOF 6
