REMARK  Name = 
REMARK  7 active torsions:
REMARK  status: ('A' for Active; 'I' for Inactive)
REMARK    1  A    between atoms: C_1  and  C_2
REMARK    2  A    between atoms: C_2  and  C_3
REMARK    3  A    between atoms: C_2  and  C_15
REMARK    4  A    between atoms: C_3  and  N_4
REMARK    5  A    between atoms: N_4  and  C_5
REMARK    6  A    between atoms: C_8  and  C_9
REMARK    7  A    between atoms: C_19  and  C_20
REMARK                            x       y       z     vdW  Elec       q    Type
REMARK                         _______ _______ _______ _____ _____    ______ ____
ROOT
ATOM      1  N   UNL     1       2.585  -2.527   0.182  0.00  0.00    +0.000 N 
ATOM      2  H   UNL     1       1.593  -2.576   0.407  0.00  0.00    +0.000 HD
ENDROOT
BRANCH   1   3
ATOM      3  C   UNL     1       3.045  -3.752  -0.330  0.00  0.00    +0.000 A 
ATOM      4  C   UNL     1       4.248  -3.886  -1.036  0.00  0.00    +0.000 A 
ATOM      5  C   UNL     1       4.696  -5.135  -1.486  0.00  0.00    +0.000 A 
ATOM      6  C   UNL     1       3.962  -6.292  -1.209  0.00  0.00    +0.000 A 
ATOM      7  C   UNL     1       2.794  -6.172  -0.459  0.00  0.00    +0.000 A 
ATOM      8  F   UNL     1       2.058  -7.249  -0.145  0.00  0.00    +0.000 F 
ATOM      9  C   UNL     1       2.350  -4.925  -0.010  0.00  0.00    +0.000 A 
BRANCH   6  10
ATOM     10  C   UNL     1       4.475  -7.590  -1.720  0.00  0.00    +0.000 C 
ATOM     11  N   UNL     1       3.758  -8.719  -1.451  0.00  0.00    +0.000 N 
ATOM     12  O   UNL     1       5.512  -7.654  -2.371  0.00  0.00    +0.000 OA
ATOM     13  H   UNL     1       2.903  -8.713  -0.909  0.00  0.00    +0.000 HD
ATOM     14  H   UNL     1       4.114  -9.601  -1.793  0.00  0.00    +0.000 HD
ENDBRANCH   6  10
ENDBRANCH   1   3
BRANCH   1  15
ATOM     15  C   UNL     1       2.903  -1.316  -0.585  0.00  0.00    +0.000 C 
BRANCH  15  17
ATOM     16  C   UNL     1       3.057   0.214   1.441  0.00  0.00    +0.000 C 
ATOM     17  C   UNL     1       2.375  -0.030   0.088  0.00  0.00    +0.000 C 
BRANCH  17  18
ATOM     18  C   UNL     1       0.854   0.057   0.134  0.00  0.00    +0.000 A 
ATOM     19  C   UNL     1       0.157   0.519  -0.996  0.00  0.00    +0.000 A 
ATOM     20  C   UNL     1      -1.230   0.687  -0.966  0.00  0.00    +0.000 A 
ATOM     21  C   UNL     1      -1.945   0.388   0.192  0.00  0.00    +0.000 A 
ATOM     22  C   UNL     1      -1.276  -0.101   1.316  0.00  0.00    +0.000 A 
ATOM     23  C   UNL     1       0.114  -0.274   1.281  0.00  0.00    +0.000 A 
BRANCH  22  24
ATOM     24  C   UNL     1      -2.005  -0.410   2.509  0.00  0.00    +0.000 C 
ATOM     25  N   UNL     1      -2.591  -0.661   3.481  0.00  0.00    +0.000 NA
ENDBRANCH  22  24
ENDBRANCH  17  18
ENDBRANCH  15  17
ENDBRANCH   1  15
TORSDOF 6
