REMARK  Name = 
REMARK  8 active torsions:
REMARK  status: ('A' for Active; 'I' for Inactive)
REMARK    1  A    between atoms: C_1  and  C_2
REMARK    2  A    between atoms: C_2  and  O_3
REMARK    3  A    between atoms: N_5  and  C_6
REMARK    4  A    between atoms: C_10  and  C_11
REMARK    5  A    between atoms: C_11  and  C_12
REMARK    6  A    between atoms: C_12  and  N_13
REMARK    7  A    between atoms: C_23  and  C_24
REMARK    8  A    between atoms: C_24  and  O_25
REMARK                            x       y       z     vdW  Elec       q    Type
REMARK                         _______ _______ _______ _____ _____    ______ ____
ROOT
ATOM      1  C   UNL     1       1.981   1.552  -3.398  0.00  0.00    +0.000 A 
ATOM      2  C   UNL     1       2.409   2.826  -3.761  0.00  0.00    +0.000 A 
ATOM      3  C   UNL     1       1.651   3.581  -4.644  0.00  0.00    +0.000 A 
ATOM      4  N   UNL     1       0.490   3.163  -5.178  0.00  0.00    +0.000 NA
ATOM      5  C   UNL     1       0.049   1.936  -4.827  0.00  0.00    +0.000 A 
ATOM      6  C   UNL     1       0.765   1.117  -3.952  0.00  0.00    +0.000 A 
ENDROOT
BRANCH   1  10
ATOM      7  C   UNL     1       4.597  -1.180  -4.218  0.00  0.00    +0.000 C 
ATOM      8  C   UNL     1       4.107  -1.303  -2.771  0.00  0.00    +0.000 C 
ATOM      9  C   UNL     1       2.680  -0.713  -2.595  0.00  0.00    +0.000 C 
ATOM     10  N   UNL     1       2.728   0.753  -2.559  0.00  0.00    +0.000 N 
ATOM     11  C   UNL     1       3.610   1.262  -1.502  0.00  0.00    +0.000 C 
ATOM     12  C   UNL     1       5.030   0.688  -1.661  0.00  0.00    +0.000 C 
ATOM     13  O   UNL     1       5.079  -0.742  -1.876  0.00  0.00    +0.000 OA
BRANCH   8  14
ATOM     14  O   UNL     1       4.001  -2.694  -2.442  0.00  0.00    +0.000 OA
ATOM     15  H   UNL     1       4.296  -3.218  -3.203  0.00  0.00    +0.000 HD
ENDBRANCH   8  14
BRANCH  12  16
ATOM     16  C   UNL     1       5.855   1.454  -2.702  0.00  0.00    +0.000 C 
BRANCH  16  17
ATOM     17  O   UNL     1       7.177   0.921  -2.778  0.00  0.00    +0.000 OA
ATOM     18  H   UNL     1       7.083  -0.050  -2.727  0.00  0.00    +0.000 HD
ENDBRANCH  16  17
ENDBRANCH  12  16
ENDBRANCH   1  10
BRANCH   5  19
ATOM     19  C   UNL     1      -1.263   1.459  -5.419  0.00  0.00    +0.000 C 
BRANCH  19  20
ATOM     20  C   UNL     1      -1.860   2.493  -6.378  0.00  0.00    +0.000 C 
BRANCH  20  21
ATOM     21  N   UNL     1      -3.081   2.013  -7.022  0.00  0.00    +0.000 N 
ATOM     22  C   UNL     1      -3.724   2.908  -7.875  0.00  0.00    +0.000 A 
ATOM     23  C   UNL     1      -3.034   3.785  -8.714  0.00  0.00    +0.000 A 
ATOM     24  C   UNL     1      -3.736   4.643  -9.560  0.00  0.00    +0.000 A 
ATOM     25  C   UNL     1      -5.115   4.578  -9.567  0.00  0.00    +0.000 A 
ATOM     26  F   UNL     1      -5.827   5.373 -10.373  0.00  0.00    +0.000 F 
ATOM     27  C   UNL     1      -5.737   3.672  -8.729  0.00  0.00    +0.000 A 
ATOM     28  N   UNL     1      -5.073   2.844  -7.880  0.00  0.00    +0.000 NA
ATOM     29  H   UNL     1      -3.799   1.643  -6.401  0.00  0.00    +0.000 HD
ENDBRANCH  20  21
ENDBRANCH  19  20
ENDBRANCH   5  19
TORSDOF 7
