REMARK  Name = 
REMARK  6 active torsions:
REMARK  status: ('A' for Active; 'I' for Inactive)
REMARK    1  A    between atoms: N_1  and  C_2
REMARK    2  A    between atoms: C_2  and  C_3
REMARK    3  A    between atoms: C_3  and  C_4
REMARK    4  A    between atoms: C_7  and  C_8
REMARK    5  A    between atoms: C_8  and  N_9
REMARK    6  A    between atoms: C_14  and  C_15
REMARK                            x       y       z     vdW  Elec       q    Type
REMARK                         _______ _______ _______ _____ _____    ______ ____
ROOT
ATOM      1  N   UNL     1       9.238  -0.784   2.869  0.00  0.00    +0.000 N 
ATOM      2  C   UNL     1       9.715   0.103   3.797  0.00  0.00    +0.000 A 
ATOM      3  N   UNL     1      10.046  -0.493   4.925  0.00  0.00    +0.000 NA
ATOM      4  C   UNL     1       9.775  -1.822   4.711  0.00  0.00    +0.000 A 
ATOM      5  C   UNL     1       9.881  -2.925   5.567  0.00  0.00    +0.000 A 
ATOM      6  C   UNL     1       9.503  -4.171   5.053  0.00  0.00    +0.000 A 
ATOM      7  C   UNL     1       9.082  -4.247   3.720  0.00  0.00    +0.000 A 
ATOM      8  N   UNL     1       8.970  -3.206   2.849  0.00  0.00    +0.000 NA
ATOM      9  C   UNL     1       9.310  -2.034   3.419  0.00  0.00    +0.000 A 
ENDROOT
BRANCH   6  10
ATOM     10  C   UNL     1       9.502  -5.421   5.850  0.00  0.00    +0.000 C 
ATOM     11  N   UNL     1       9.874  -5.364   7.163  0.00  0.00    +0.000 N 
ATOM     12  O   UNL     1       9.163  -6.489   5.354  0.00  0.00    +0.000 OA
ATOM     13  H   UNL     1      10.143  -4.530   7.661  0.00  0.00    +0.000 HD
ATOM     14  H   UNL     1       9.832  -6.229   7.687  0.00  0.00    +0.000 HD
ENDBRANCH   6  10
BRANCH   1  15
ATOM     15  C   UNL     1       8.730  -0.454   1.552  0.00  0.00    +0.000 C 
BRANCH  15  19
ATOM     16  C   UNL     1       4.414  -0.125   1.742  0.00  0.00    +0.000 A 
ATOM     17  C   UNL     1       5.219   1.006   1.923  0.00  0.00    +0.000 A 
ATOM     18  C   UNL     1       6.612   0.910   1.841  0.00  0.00    +0.000 A 
ATOM     19  C   UNL     1       7.226  -0.319   1.567  0.00  0.00    +0.000 A 
ATOM     20  C   UNL     1       6.415  -1.443   1.357  0.00  0.00    +0.000 A 
ATOM     21  C   UNL     1       5.024  -1.347   1.439  0.00  0.00    +0.000 A 
BRANCH  16  22
ATOM     22  C   UNL     1       2.914  -0.036   1.892  0.00  0.00    +0.000 C 
BRANCH  22  23
ATOM     23  C   UNL     1       2.202   0.323   0.585  0.00  0.00    +0.000 C 
BRANCH  23  24
ATOM     24  N   UNL     1       0.758   0.441   0.795  0.00  0.00    +0.000 NA
ATOM     25  H   UNL     1       0.312   0.708  -0.081  0.00  0.00    +0.000 HD
ATOM     26  H   UNL     1       0.568   1.199   1.452  0.00  0.00    +0.000 HD
ENDBRANCH  23  24
ENDBRANCH  22  23
ENDBRANCH  16  22
ENDBRANCH  15  19
ENDBRANCH   1  15
TORSDOF 6
