REMARK  Name = 
REMARK  7 active torsions:
REMARK  status: ('A' for Active; 'I' for Inactive)
REMARK    1  A    between atoms: C_1  and  O_2
REMARK    2  A    between atoms: O_2  and  C_3
REMARK    3  A    between atoms: C_5  and  C_6
REMARK    4  A    between atoms: C_11  and  C_12
REMARK    5  A    between atoms: C_12  and  C_13
REMARK    6  A    between atoms: C_16  and  O_17
REMARK    7  A    between atoms: C_18  and  C_19
REMARK                            x       y       z     vdW  Elec       q    Type
REMARK                         _______ _______ _______ _____ _____    ______ ____
ROOT
ATOM      1  C   UNL     1       3.477   0.250  -2.864  0.00  0.00    +0.000 A 
ATOM      2  C   UNL     1       3.211   1.606  -3.094  0.00  0.00    +0.000 A 
ATOM      3  C   UNL     1       3.388   2.546  -2.071  0.00  0.00    +0.000 A 
ATOM      4  C   UNL     1       3.764   2.127  -0.796  0.00  0.00    +0.000 A 
ATOM      5  C   UNL     1       4.010   0.775  -0.562  0.00  0.00    +0.000 A 
ATOM      6  C   UNL     1       3.903  -0.188  -1.588  0.00  0.00    +0.000 A 
ENDROOT
BRANCH   3   7
ATOM      7  C   UNL     1       3.159   3.981  -2.387  0.00  0.00    +0.000 C 
ATOM      8  N   UNL     1       3.815   4.905  -1.621  0.00  0.00    +0.000 N 
ATOM      9  O   UNL     1       2.452   4.328  -3.323  0.00  0.00    +0.000 OA
ATOM     10  H   UNL     1       4.601   4.663  -1.035  0.00  0.00    +0.000 HD
ATOM     11  H   UNL     1       3.744   5.867  -1.932  0.00  0.00    +0.000 HD
ENDBRANCH   3   7
BRANCH   6  12
ATOM     12  C   UNL     1       4.430  -1.613  -1.343  0.00  0.00    +0.000 C 
ATOM     13  C   UNL     1       3.489  -2.785  -1.568  0.00  0.00    +0.000 C 
ATOM     14  C   UNL     1       3.888  -2.425  -0.174  0.00  0.00    +0.000 C 
BRANCH  12  15
ATOM     15  C   UNL     1       5.922  -1.727  -1.665  0.00  0.00    +0.000 A 
ATOM     16  C   UNL     1       6.375  -2.197  -2.906  0.00  0.00    +0.000 A 
ATOM     17  C   UNL     1       7.696  -1.998  -3.312  0.00  0.00    +0.000 A 
ATOM     18  C   UNL     1       8.584  -1.315  -2.482  0.00  0.00    +0.000 A 
ATOM     19  C   UNL     1       8.193  -0.893  -1.211  0.00  0.00    +0.000 A 
ATOM     20  C   UNL     1       9.102  -0.131  -0.291  0.00  0.00    +0.000 C 
ATOM     21  C   UNL     1       6.875  -1.145  -0.804  0.00  0.00    +0.000 A 
BRANCH  18  22
ATOM     22  O   UNL     1       9.837  -1.012  -2.928  0.00  0.00    +0.000 OA
ATOM     23  H   UNL     1       9.868  -1.177  -3.885  0.00  0.00    +0.000 HD
ENDBRANCH  18  22
ENDBRANCH  12  15
ENDBRANCH   6  12
BRANCH   1  25
ATOM     24  C   UNL     1       3.342  -0.307  -5.184  0.00  0.00    +0.000 C 
ATOM     25  O   UNL     1       3.360  -0.725  -3.824  0.00  0.00    +0.000 OA
ENDBRANCH   1  25
TORSDOF 5
