REMARK  Name = 
REMARK  6 active torsions:
REMARK  status: ('A' for Active; 'I' for Inactive)
REMARK    1  A    between atoms: N_1  and  C_2
REMARK    2  A    between atoms: C_2  and  N_3
REMARK    3  A    between atoms: C_2  and  C_16
REMARK    4  A    between atoms: C_4  and  C_6
REMARK    5  A    between atoms: C_19  and  C_20
REMARK    6  A    between atoms: C_20  and  N_21
REMARK                            x       y       z     vdW  Elec       q    Type
REMARK                         _______ _______ _______ _____ _____    ______ ____
ROOT
ATOM      1  C   UNL     1       2.341   0.021   0.022  0.00  0.00    +0.000 C 
ENDROOT
BRANCH   1   2
ATOM      2  C   UNL     1       2.776  -1.346   0.520  0.00  0.00    +0.000 A 
ATOM      3  C   UNL     1       3.525  -1.466   1.700  0.00  0.00    +0.000 A 
ATOM      4  C   UNL     1       3.900  -2.724   2.189  0.00  0.00    +0.000 A 
ATOM      5  C   UNL     1       3.544  -3.894   1.506  0.00  0.00    +0.000 A 
ATOM      6  C   UNL     1       2.795  -3.779   0.325  0.00  0.00    +0.000 A 
ATOM      7  C   UNL     1       2.425  -2.526  -0.161  0.00  0.00    +0.000 A 
BRANCH   5   8
ATOM      8  C   UNL     1       3.929  -5.251   2.039  0.00  0.00    +0.000 C 
BRANCH   8   9
ATOM      9  N   UNL     1       2.920  -5.762   2.941  0.00  0.00    +0.000 N 
ATOM     10  C   UNL     1       3.105  -6.985   3.535  0.00  0.00    +0.000 C 
ATOM     11  O   UNL     1       4.069  -7.704   3.293  0.00  0.00    +0.000 OA
ATOM     12  N   UNL     1       2.140  -7.321   4.445  0.00  0.00    +0.000 N 
ATOM     13  C   UNL     1       2.210  -8.520   5.227  0.00  0.00    +0.000 C 
ATOM     14  C   UNL     1       1.133  -8.267   6.255  0.00  0.00    +0.000 C 
ATOM     15  O   UNL     1       0.166  -7.412   5.612  0.00  0.00    +0.000 OA
ATOM     16  C   UNL     1       0.780  -6.871   4.434  0.00  0.00    +0.000 C 
ATOM     17  H   UNL     1       2.518  -5.070   3.555  0.00  0.00    +0.000 HD
ENDBRANCH   8   9
ENDBRANCH   5   8
ENDBRANCH   1   2
BRANCH   1  18
ATOM     18  N   UNL     1       0.919   0.085  -0.132  0.00  0.00    +0.000 N 
ATOM     19  C   UNL     1       0.213   1.259  -0.118  0.00  0.00    +0.000 C 
ATOM     20  O   UNL     1       0.764   2.354  -0.043  0.00  0.00    +0.000 OA
ATOM     21  H   UNL     1       0.418  -0.777   0.052  0.00  0.00    +0.000 HD
BRANCH  19  22
ATOM     22  C   UNL     1      -1.244   1.150  -0.290  0.00  0.00    +0.000 A 
ATOM     23  C   UNL     1      -1.961   2.244  -0.756  0.00  0.00    +0.000 A 
ATOM     24  S   UNL     1      -3.629   1.944  -0.946  0.00  0.00    +0.000 S 
ATOM     25  C   UNL     1      -3.464   0.354  -0.367  0.00  0.00    +0.000 A 
ATOM     26  N   UNL     1      -4.546  -0.462  -0.246  0.00  0.00    +0.000 NA
ATOM     27  C   UNL     1      -4.283  -1.632   0.232  0.00  0.00    +0.000 A 
ATOM     28  N   UNL     1      -3.032  -2.064   0.590  0.00  0.00    +0.000 N 
ATOM     29  C   UNL     1      -1.907  -1.289   0.449  0.00  0.00    +0.000 A 
ATOM     30  O   UNL     1      -0.792  -1.727   0.714  0.00  0.00    +0.000 OA
ATOM     31  C   UNL     1      -2.150   0.048  -0.059  0.00  0.00    +0.000 A 
ATOM     32  H   UNL     1      -2.893  -3.001   0.943  0.00  0.00    +0.000 HD
ENDBRANCH  19  22
ENDBRANCH   1  18
BRANCH   1  33
ATOM     33  N   UNL     1       2.879   0.296  -1.294  0.00  0.00    +0.000 NA
ATOM     34  H   UNL     1       2.533   1.216  -1.564  0.00  0.00    +0.000 HD
ATOM     35  H   UNL     1       2.463  -0.357  -1.949  0.00  0.00    +0.000 HD
ENDBRANCH   1  33
TORSDOF 6
