REMARK  Name = 
REMARK  5 active torsions:
REMARK  status: ('A' for Active; 'I' for Inactive)
REMARK    1  A    between atoms: C_8  and  C_9
REMARK    2  A    between atoms: N_11  and  C_12
REMARK    3  A    between atoms: C_12  and  C_13
REMARK    4  A    between atoms: C_16  and  O_17
REMARK    5  A    between atoms: O_17  and  C_18
REMARK                            x       y       z     vdW  Elec       q    Type
REMARK                         _______ _______ _______ _____ _____    ______ ____
ROOT
ATOM      1  C   UNL     1       6.575  -2.893  -0.058  0.00  0.00    +0.000 C 
ATOM      2  O   UNL     1       6.827  -4.099  -0.061  0.00  0.00    +0.000 OA
ATOM      3  N   UNL     1       7.577  -1.959  -0.063  0.00  0.00    +0.000 N 
ATOM      4  H   UNL     1       7.360  -0.966  -0.048  0.00  0.00    +0.000 HD
ENDROOT
BRANCH   1  12
ATOM      5  N   UNL     1       1.070   0.123  -0.097  0.00  0.00    +0.000 N 
ATOM      6  C   UNL     1       2.431   0.124  -0.075  0.00  0.00    +0.000 A 
ATOM      7  N   UNL     1       3.031   1.289  -0.065  0.00  0.00    +0.000 NA
ATOM      8  N   UNL     1       4.409   1.324  -0.052  0.00  0.00    +0.000 N 
ATOM      9  C   UNL     1       5.265   0.240  -0.052  0.00  0.00    +0.000 A 
ATOM     10  O   UNL     1       6.486   0.395  -0.043  0.00  0.00    +0.000 OA
ATOM     11  C   UNL     1       4.624  -1.064  -0.057  0.00  0.00    +0.000 A 
ATOM     12  C   UNL     1       5.179  -2.407  -0.057  0.00  0.00    +0.000 A 
ATOM     13  C   UNL     1       4.137  -3.334  -0.060  0.00  0.00    +0.000 A 
ATOM     14  S   UNL     1       2.581  -2.634  -0.069  0.00  0.00    +0.000 S 
ATOM     15  C   UNL     1       3.242  -1.078  -0.066  0.00  0.00    +0.000 A 
ATOM     16  H   UNL     1       0.583   1.008  -0.066  0.00  0.00    +0.000 HD
ATOM     17  H   UNL     1       0.544  -0.738  -0.067  0.00  0.00    +0.000 HD
ATOM     18  H   UNL     1       4.831   2.244  -0.050  0.00  0.00    +0.000 HD
ENDBRANCH   1  12
BRANCH   3  19
ATOM     19  C   UNL     1       8.972  -2.336  -0.071  0.00  0.00    +0.000 C 
BRANCH  19  20
ATOM     20  C   UNL     1       9.887  -1.135  -0.069  0.00  0.00    +0.000 A 
ATOM     21  C   UNL     1      10.294  -0.560   1.141  0.00  0.00    +0.000 A 
ATOM     22  C   UNL     1      11.116   0.570   1.151  0.00  0.00    +0.000 A 
ATOM     23  C   UNL     1      11.594   1.107  -0.049  0.00  0.00    +0.000 A 
ATOM     24  C   UNL     1      11.176   0.557  -1.259  0.00  0.00    +0.000 A 
ATOM     25  C   UNL     1      10.322  -0.552  -1.269  0.00  0.00    +0.000 A 
BRANCH  23  26
ATOM     26  O   UNL     1      12.435   2.196  -0.140  0.00  0.00    +0.000 OA
BRANCH  26  27
ATOM     27  C   UNL     1      13.374   2.407   0.839  0.00  0.00    +0.000 A 
ATOM     28  C   UNL     1      13.982   1.395   1.580  0.00  0.00    +0.000 A 
ATOM     29  C   UNL     1      14.851   1.729   2.612  0.00  0.00    +0.000 A 
ATOM     30  C   UNL     1      15.146   3.066   2.807  0.00  0.00    +0.000 A 
ATOM     31  N   UNL     1      14.642   4.070   2.058  0.00  0.00    +0.000 NA
ATOM     32  C   UNL     1      13.764   3.713   1.088  0.00  0.00    +0.000 A 
ENDBRANCH  26  27
ENDBRANCH  23  26
ENDBRANCH  19  20
ENDBRANCH   3  19
TORSDOF 5
