REMARK  Name = 
REMARK  6 active torsions:
REMARK  status: ('A' for Active; 'I' for Inactive)
REMARK    1  A    between atoms: C_1  and  S_2
REMARK    2  A    between atoms: S_2  and  C_3
REMARK    3  A    between atoms: C_6  and  C_7
REMARK    4  A    between atoms: C_7  and  N_8
REMARK    5  A    between atoms: N_8  and  C_9
REMARK    6  A    between atoms: C_12  and  C_13
REMARK                            x       y       z     vdW  Elec       q    Type
REMARK                         _______ _______ _______ _____ _____    ______ ____
ROOT
ATOM      1  N   UNL     1       3.746   5.847  -3.161  0.00  0.00    +0.000 N 
ATOM      2  H   UNL     1       4.022   6.041  -2.199  0.00  0.00    +0.000 HD
ENDROOT
BRANCH   1   3
ATOM      3  C   UNL     1       3.986   6.946  -4.000  0.00  0.00    +0.000 A 
ATOM      4  C   UNL     1       4.068   6.849  -5.393  0.00  0.00    +0.000 A 
ATOM      5  C   UNL     1       4.235   7.990  -6.177  0.00  0.00    +0.000 A 
ATOM      6  C   UNL     1       4.286   9.222  -5.546  0.00  0.00    +0.000 A 
ATOM      7  N   UNL     1       4.172   9.385  -4.199  0.00  0.00    +0.000 NA
ATOM      8  C   UNL     1       4.006   8.247  -3.481  0.00  0.00    +0.000 A 
BRANCH   6   9
ATOM      9  C   UNL     1       4.464  10.462  -6.367  0.00  0.00    +0.000 C 
ATOM     10  N   UNL     1       4.499  11.634  -5.664  0.00  0.00    +0.000 N 
ATOM     11  O   UNL     1       4.566  10.437  -7.587  0.00  0.00    +0.000 OA
ATOM     12  H   UNL     1       4.396  11.617  -4.655  0.00  0.00    +0.000 HD
ATOM     13  H   UNL     1       4.596  12.509  -6.159  0.00  0.00    +0.000 HD
ENDBRANCH   6   9
ENDBRANCH   1   3
BRANCH   1  14
ATOM     14  C   UNL     1       4.225   4.541  -3.604  0.00  0.00    +0.000 C 
BRANCH  14  18
ATOM     15  C   UNL     1       3.475   1.301  -0.940  0.00  0.00    +0.000 A 
ATOM     16  C   UNL     1       2.555   2.342  -0.955  0.00  0.00    +0.000 A 
ATOM     17  C   UNL     1       2.781   3.427  -1.805  0.00  0.00    +0.000 A 
ATOM     18  C   UNL     1       3.928   3.459  -2.601  0.00  0.00    +0.000 A 
ATOM     19  C   UNL     1       4.779   2.363  -2.519  0.00  0.00    +0.000 A 
ATOM     20  N   UNL     1       4.582   1.301  -1.711  0.00  0.00    +0.000 NA
BRANCH  15  22
ATOM     21  C   UNL     1       4.648  -1.108  -0.307  0.00  0.00    +0.000 C 
ATOM     22  S   UNL     1       3.191  -0.111   0.112  0.00  0.00    +0.000 S 
ENDBRANCH  15  22
ENDBRANCH  14  18
ENDBRANCH   1  14
TORSDOF 5
