REMARK  Name = 
REMARK  9 active torsions:
REMARK  status: ('A' for Active; 'I' for Inactive)
REMARK    1  A    between atoms: C_1  and  C_2
REMARK    2  A    between atoms: C_2  and  N_3
REMARK    3  A    between atoms: C_2  and  C_19
REMARK    4  A    between atoms: N_3  and  C_4
REMARK    5  A    between atoms: C_4  and  C_5
REMARK    6  A    between atoms: C_8  and  C_9
REMARK    7  A    between atoms: C_9  and  N_10
REMARK    8  A    between atoms: N_10  and  C_11
REMARK    9  A    between atoms: C_11  and  C_12
REMARK                            x       y       z     vdW  Elec       q    Type
REMARK                         _______ _______ _______ _____ _____    ______ ____
ROOT
ATOM      1  C   UNL     1       2.535   1.221  -2.005  0.00  0.00    +0.000 C 
ENDROOT
BRANCH   1   2
ATOM      2  C   UNL     1       3.015   2.581  -2.475  0.00  0.00    +0.000 A 
ATOM      3  C   UNL     1       2.287   3.736  -2.158  0.00  0.00    +0.000 A 
ATOM      4  C   UNL     1       2.695   4.985  -2.629  0.00  0.00    +0.000 A 
ATOM      5  C   UNL     1       3.868   5.125  -3.388  0.00  0.00    +0.000 A 
ATOM      6  C   UNL     1       4.596   3.971  -3.703  0.00  0.00    +0.000 A 
ATOM      7  C   UNL     1       4.174   2.713  -3.253  0.00  0.00    +0.000 A 
BRANCH   5   8
ATOM      8  C   UNL     1       4.307   6.478  -3.911  0.00  0.00    +0.000 C 
BRANCH   8   9
ATOM      9  N   UNL     1       3.931   7.546  -2.988  0.00  0.00    +0.000 NA
ATOM     10  H   UNL     1       4.358   7.364  -2.080  0.00  0.00    +0.000 HD
BRANCH   9  11
ATOM     11  C   UNL     1       4.289   8.877  -3.460  0.00  0.00    +0.000 C 
BRANCH  11  12
ATOM     12  C   UNL     1       3.750   9.922  -2.463  0.00  0.00    +0.000 C 
ATOM     13  C   UNL     1       2.228   9.896  -2.338  0.00  0.00    +0.000 C 
ATOM     14  C   UNL     1       1.789  10.793  -3.474  0.00  0.00    +0.000 C 
ATOM     15  N   UNL     1       2.750  11.901  -3.446  0.00  0.00    +0.000 NA
ATOM     16  C   UNL     1       4.021  11.351  -2.940  0.00  0.00    +0.000 C 
ATOM     17  H   UNL     1       2.414  12.594  -2.775  0.00  0.00    +0.000 HD
ENDBRANCH  11  12
ENDBRANCH   9  11
ENDBRANCH   8   9
ENDBRANCH   5   8
ENDBRANCH   1   2
BRANCH   1  18
ATOM     18  N   UNL     1       1.226   0.923  -2.578  0.00  0.00    +0.000 NA
ATOM     19  H   UNL     1       0.593   1.685  -2.340  0.00  0.00    +0.000 HD
BRANCH  18  21
ATOM     20  C   UNL     1       1.410  -1.563  -2.543  0.00  0.00    +0.000 C 
ATOM     21  C   UNL     1       0.609  -0.328  -2.120  0.00  0.00    +0.000 C 
BRANCH  21  22
ATOM     22  C   UNL     1      -0.786  -0.372  -2.730  0.00  0.00    +0.000 A 
ATOM     23  C   UNL     1      -1.103   0.113  -3.994  0.00  0.00    +0.000 A 
ATOM     24  S   UNL     1      -2.748  -0.065  -4.402  0.00  0.00    +0.000 S 
ATOM     25  C   UNL     1      -3.089  -0.837  -2.926  0.00  0.00    +0.000 A 
ATOM     26  N   UNL     1      -4.342  -1.286  -2.645  0.00  0.00    +0.000 NA
ATOM     27  C   UNL     1      -4.448  -1.873  -1.500  0.00  0.00    +0.000 A 
ATOM     28  N   UNL     1      -3.420  -2.041  -0.605  0.00  0.00    +0.000 N 
ATOM     29  C   UNL     1      -2.138  -1.592  -0.836  0.00  0.00    +0.000 A 
ATOM     30  O   UNL     1      -1.242  -1.747  -0.014  0.00  0.00    +0.000 OA
ATOM     31  C   UNL     1      -1.967  -0.937  -2.122  0.00  0.00    +0.000 A 
ATOM     32  H   UNL     1      -3.576  -2.509   0.275  0.00  0.00    +0.000 HD
ENDBRANCH  21  22
ENDBRANCH  18  21
ENDBRANCH   1  18
TORSDOF 8
