REMARK  Name = 
REMARK  9 active torsions:
REMARK  status: ('A' for Active; 'I' for Inactive)
REMARK    1  A    between atoms: C_1  and  O_2
REMARK    2  A    between atoms: O_2  and  C_3
REMARK    3  A    between atoms: C_10  and  C_11
REMARK    4  A    between atoms: N_13  and  C_14
REMARK    5  A    between atoms: C_14  and  C_15
REMARK    6  A    between atoms: C_18  and  C_19
REMARK    7  A    between atoms: C_19  and  N_20
REMARK    8  A    between atoms: N_20  and  C_21
REMARK    9  A    between atoms: C_21  and  C_22
REMARK                            x       y       z     vdW  Elec       q    Type
REMARK                         _______ _______ _______ _____ _____    ______ ____
ROOT
ATOM      1  C   UNL     1       3.325  -3.015   1.189  0.00  0.00    +0.000 C 
ENDROOT
BRANCH   1   2
ATOM      2  C   UNL     1       2.338  -2.567   2.238  0.00  0.00    +0.000 A 
ATOM      3  C   UNL     1       1.461  -3.485   2.829  0.00  0.00    +0.000 A 
ATOM      4  C   UNL     1       0.522  -3.064   3.777  0.00  0.00    +0.000 A 
ATOM      5  C   UNL     1       0.432  -1.715   4.151  0.00  0.00    +0.000 A 
ATOM      6  C   UNL     1       1.300  -0.795   3.547  0.00  0.00    +0.000 A 
ATOM      7  C   UNL     1       2.239  -1.216   2.598  0.00  0.00    +0.000 A 
BRANCH   5   8
ATOM      8  C   UNL     1      -0.587  -1.268   5.177  0.00  0.00    +0.000 C 
BRANCH   8   9
ATOM      9  N   UNL     1      -0.365  -1.936   6.457  0.00  0.00    +0.000 NA
ATOM     10  H   UNL     1       0.583  -1.732   6.774  0.00  0.00    +0.000 HD
BRANCH   9  11
ATOM     11  C   UNL     1      -1.317  -1.503   7.477  0.00  0.00    +0.000 C 
BRANCH  11  12
ATOM     12  C   UNL     1      -1.038  -2.191   8.787  0.00  0.00    +0.000 A 
ATOM     13  C   UNL     1      -1.087  -3.584   8.905  0.00  0.00    +0.000 A 
ATOM     14  C   UNL     1      -0.788  -4.189  10.122  0.00  0.00    +0.000 A 
ATOM     15  C   UNL     1      -0.457  -3.377  11.193  0.00  0.00    +0.000 A 
ATOM     16  N   UNL     1      -0.417  -2.028  11.128  0.00  0.00    +0.000 NA
ATOM     17  C   UNL     1      -0.708  -1.469   9.930  0.00  0.00    +0.000 A 
ENDBRANCH  11  12
ENDBRANCH   9  11
ENDBRANCH   8   9
ENDBRANCH   5   8
ENDBRANCH   1   2
BRANCH   1  20
ATOM     18  C   UNL     1       3.405  -3.336  -1.256  0.00  0.00    +0.000 C 
ATOM     19  O   UNL     1       4.554  -3.767  -1.201  0.00  0.00    +0.000 OA
ATOM     20  N   UNL     1       2.736  -2.952  -0.127  0.00  0.00    +0.000 N 
ATOM     21  H   UNL     1       1.795  -2.592  -0.194  0.00  0.00    +0.000 HD
BRANCH  18  29
ATOM     22  C   UNL     1       0.225  -2.334  -2.116  0.00  0.00    +0.000 A 
ATOM     23  N   UNL     1      -0.910  -1.932  -2.722  0.00  0.00    +0.000 NA
ATOM     24  C   UNL     1      -0.951  -1.960  -4.057  0.00  0.00    +0.000 A 
ATOM     25  N   UNL     1       0.013  -2.362  -4.880  0.00  0.00    +0.000 NA
ATOM     26  C   UNL     1       1.129  -2.744  -4.235  0.00  0.00    +0.000 A 
ATOM     27  S   UNL     1       2.463  -3.299  -5.127  0.00  0.00    +0.000 S 
ATOM     28  C   UNL     1       3.374  -3.535  -3.710  0.00  0.00    +0.000 A 
ATOM     29  C   UNL     1       2.698  -3.198  -2.543  0.00  0.00    +0.000 A 
ATOM     30  C   UNL     1       1.344  -2.749  -2.860  0.00  0.00    +0.000 A 
BRANCH  22  32
ATOM     31  C   UNL     1      -1.008  -2.378  -0.126  0.00  0.00    +0.000 C 
ATOM     32  O   UNL     1       0.276  -2.289  -0.740  0.00  0.00    +0.000 OA
ENDBRANCH  22  32
ENDBRANCH  18  29
ENDBRANCH   1  20
TORSDOF 8
