REMARK  Name = 
REMARK  8 active torsions:
REMARK  status: ('A' for Active; 'I' for Inactive)
REMARK    1  A    between atoms: C_1  and  C_2
REMARK    2  A    between atoms: C_2  and  N_3
REMARK    3  A    between atoms: C_2  and  C_25
REMARK    4  A    between atoms: N_3  and  C_4
REMARK    5  A    between atoms: C_4  and  C_5
REMARK    6  A    between atoms: C_8  and  C_9
REMARK    7  A    between atoms: C_9  and  N_10
REMARK    8  A    between atoms: C_11  and  C_13
REMARK                            x       y       z     vdW  Elec       q    Type
REMARK                         _______ _______ _______ _____ _____    ______ ____
ROOT
ATOM      1  C   UNL     1      -1.117   0.763  -1.146  0.00  0.00    +0.000 A 
ATOM      2  C   UNL     1      -1.800  -0.404  -0.811  0.00  0.00    +0.000 A 
ATOM      3  C   UNL     1      -3.193  -0.411  -0.863  0.00  0.00    +0.000 A 
ATOM      4  C   UNL     1      -3.878   0.742  -1.250  0.00  0.00    +0.000 A 
ATOM      5  C   UNL     1      -3.118   1.869  -1.530  0.00  0.00    +0.000 A 
ATOM      6  N   UNL     1      -1.768   1.901  -1.500  0.00  0.00    +0.000 NA
ENDROOT
BRANCH   1   7
ATOM      7  C   UNL     1       0.402   0.775  -1.208  0.00  0.00    +0.000 C 
BRANCH   7   8
ATOM      8  N   UNL     1       1.010   1.759  -0.308  0.00  0.00    +0.000 NA
ATOM      9  H   UNL     1       0.672   1.588   0.639  0.00  0.00    +0.000 HD
BRANCH   8  11
ATOM     10  C   UNL     1       3.121   1.965  -1.661  0.00  0.00    +0.000 C 
ATOM     11  C   UNL     1       2.484   1.706  -0.289  0.00  0.00    +0.000 C 
BRANCH  11  12
ATOM     12  C   UNL     1       3.039   2.696   0.737  0.00  0.00    +0.000 A 
ATOM     13  C   UNL     1       2.719   4.054   0.668  0.00  0.00    +0.000 A 
ATOM     14  C   UNL     1       3.206   4.918   1.644  0.00  0.00    +0.000 A 
ATOM     15  C   UNL     1       4.002   4.411   2.663  0.00  0.00    +0.000 A 
ATOM     16  C   UNL     1       4.283   3.055   2.658  0.00  0.00    +0.000 A 
ATOM     17  N   UNL     1       3.821   2.190   1.727  0.00  0.00    +0.000 NA
ENDBRANCH  11  12
ENDBRANCH   8  11
ENDBRANCH   7   8
ENDBRANCH   1   7
BRANCH   4  18
ATOM     18  C   UNL     1      -5.374   0.793  -1.312  0.00  0.00    +0.000 C 
BRANCH  18  19
ATOM     19  N   UNL     1      -5.925   1.182  -0.040  0.00  0.00    +0.000 N 
ATOM     20  C   UNL     1      -7.277   1.198   0.182  0.00  0.00    +0.000 C 
ATOM     21  O   UNL     1      -8.079   0.824  -0.670  0.00  0.00    +0.000 OA
ATOM     22  H   UNL     1      -5.314   1.695   0.589  0.00  0.00    +0.000 HD
BRANCH  20  23
ATOM     23  C   UNL     1      -7.715   1.628   1.516  0.00  0.00    +0.000 A 
ATOM     24  C   UNL     1      -8.966   1.248   1.982  0.00  0.00    +0.000 A 
ATOM     25  S   UNL     1      -9.295   1.779   3.569  0.00  0.00    +0.000 S 
ATOM     26  C   UNL     1      -7.799   2.582   3.670  0.00  0.00    +0.000 A 
ATOM     27  N   UNL     1      -7.451   3.276   4.788  0.00  0.00    +0.000 NA
ATOM     28  C   UNL     1      -6.303   3.862   4.717  0.00  0.00    +0.000 A 
ATOM     29  N   UNL     1      -5.469   3.816   3.630  0.00  0.00    +0.000 N 
ATOM     30  C   UNL     1      -5.765   3.104   2.493  0.00  0.00    +0.000 A 
ATOM     31  O   UNL     1      -4.977   3.042   1.555  0.00  0.00    +0.000 OA
ATOM     32  C   UNL     1      -7.051   2.433   2.516  0.00  0.00    +0.000 A 
ATOM     33  H   UNL     1      -4.577   4.289   3.640  0.00  0.00    +0.000 HD
ENDBRANCH  20  23
ENDBRANCH  18  19
ENDBRANCH   4  18
TORSDOF 7
