REMARK  Name = 
REMARK  6 active torsions:
REMARK  status: ('A' for Active; 'I' for Inactive)
REMARK    1  A    between atoms: N_1  and  C_2
REMARK    2  A    between atoms: C_2  and  C_3
REMARK    3  A    between atoms: C_6  and  O_7
REMARK    4  A    between atoms: O_7  and  C_8
REMARK    5  A    between atoms: C_8  and  C_9
REMARK    6  A    between atoms: C_13  and  C_14
REMARK                            x       y       z     vdW  Elec       q    Type
REMARK                         _______ _______ _______ _____ _____    ______ ____
ROOT
ATOM      1  C   UNL     1       5.390  -5.258  -2.802  0.00  0.00    +0.000 C 
ENDROOT
BRANCH   1   2
ATOM      2  C   UNL     1       5.624  -6.717  -3.140  0.00  0.00    +0.000 A 
ATOM      3  C   UNL     1       5.869  -7.635  -2.127  0.00  0.00    +0.000 A 
ATOM      4  C   UNL     1       6.180  -8.942  -2.480  0.00  0.00    +0.000 A 
ATOM      5  F   UNL     1       6.441  -9.814  -1.490  0.00  0.00    +0.000 F 
ATOM      6  C   UNL     1       6.244  -9.332  -3.810  0.00  0.00    +0.000 A 
ATOM      7  C   UNL     1       5.946  -8.363  -4.754  0.00  0.00    +0.000 A 
ATOM      8  N   UNL     1       5.649  -7.071  -4.450  0.00  0.00    +0.000 NA
BRANCH   6   9
ATOM      9  C   UNL     1       6.646 -10.676  -4.262  0.00  0.00    +0.000 C 
ATOM     10  N   UNL     1       7.002 -11.597  -3.318  0.00  0.00    +0.000 N 
ATOM     11  O   UNL     1       6.691 -10.959  -5.455  0.00  0.00    +0.000 OA
ATOM     12  H   UNL     1       7.002 -11.400  -2.324  0.00  0.00    +0.000 HD
ATOM     13  H   UNL     1       7.331 -12.501  -3.631  0.00  0.00    +0.000 HD
ENDBRANCH   6   9
ENDBRANCH   1   2
BRANCH   1  14
ATOM     14  O   UNL     1       4.287  -5.152  -1.901  0.00  0.00    +0.000 OA
BRANCH  14  18
ATOM     15  C   UNL     1       2.978  -1.428  -0.505  0.00  0.00    +0.000 A 
ATOM     16  C   UNL     1       4.100  -1.482  -1.345  0.00  0.00    +0.000 A 
ATOM     17  C   UNL     1       4.577  -2.704  -1.837  0.00  0.00    +0.000 A 
ATOM     18  C   UNL     1       3.935  -3.894  -1.495  0.00  0.00    +0.000 A 
ATOM     19  C   UNL     1       2.821  -3.847  -0.653  0.00  0.00    +0.000 A 
ATOM     20  C   UNL     1       2.345  -2.628  -0.161  0.00  0.00    +0.000 A 
BRANCH  15  21
ATOM     21  C   UNL     1       2.494  -0.112   0.052  0.00  0.00    +0.000 C 
BRANCH  21  22
ATOM     22  N   UNL     1       2.146   0.836  -1.001  0.00  0.00    +0.000 NA
ATOM     23  H   UNL     1       1.814   1.698  -0.573  0.00  0.00    +0.000 HD
ATOM     24  H   UNL     1       1.363   0.461  -1.535  0.00  0.00    +0.000 HD
ENDBRANCH  21  22
ENDBRANCH  15  21
ENDBRANCH  14  18
ENDBRANCH   1  14
TORSDOF 6
