REMARK  Name = 
REMARK  7 active torsions:
REMARK  status: ('A' for Active; 'I' for Inactive)
REMARK    1  A    between atoms: C_1  and  C_2
REMARK    2  A    between atoms: C_2  and  C_3
REMARK    3  A    between atoms: C_2  and  C_15
REMARK    4  A    between atoms: C_3  and  N_4
REMARK    5  A    between atoms: N_4  and  C_5
REMARK    6  A    between atoms: C_8  and  C_9
REMARK    7  A    between atoms: C_19  and  C_20
REMARK                            x       y       z     vdW  Elec       q    Type
REMARK                         _______ _______ _______ _____ _____    ______ ____
ROOT
ATOM      1  C   UNL     1       2.931  -0.543   1.413  0.00  0.00    +0.000 C 
ENDROOT
BRANCH   1   3
ATOM      2  C   UNL     1       0.797   0.082   0.110  0.00  0.00    +0.000 C 
ATOM      3  C   UNL     1       2.244  -0.301   0.101  0.00  0.00    +0.000 C 
BRANCH   3   4
ATOM      4  C   UNL     1       2.828  -0.899  -1.106  0.00  0.00    +0.000 A 
ATOM      5  C   UNL     1       2.121  -1.876  -1.821  0.00  0.00    +0.000 A 
ATOM      6  C   UNL     1       2.693  -2.496  -2.933  0.00  0.00    +0.000 A 
ATOM      7  C   UNL     1       3.964  -2.120  -3.359  0.00  0.00    +0.000 A 
ATOM      8  C   UNL     1       4.663  -1.116  -2.681  0.00  0.00    +0.000 A 
ATOM      9  C   UNL     1       4.106  -0.528  -1.536  0.00  0.00    +0.000 A 
BRANCH   8  10
ATOM     10  C   UNL     1       5.990  -0.704  -3.209  0.00  0.00    +0.000 C 
ATOM     11  N   UNL     1       6.414   0.564  -2.918  0.00  0.00    +0.000 N 
ATOM     12  O   UNL     1       6.659  -1.444  -3.915  0.00  0.00    +0.000 OA
ATOM     13  H   UNL     1       5.793   1.275  -2.561  0.00  0.00    +0.000 HD
ATOM     14  H   UNL     1       7.248   0.873  -3.400  0.00  0.00    +0.000 HD
ENDBRANCH   8  10
ENDBRANCH   3   4
ENDBRANCH   1   3
BRANCH   1  15
ATOM     15  N   UNL     1       2.366  -1.762   1.967  0.00  0.00    +0.000 N 
ATOM     16  H   UNL     1       2.102  -2.438   1.254  0.00  0.00    +0.000 HD
BRANCH  15  17
ATOM     17  C   UNL     1       2.925  -2.373   3.086  0.00  0.00    +0.000 A 
ATOM     18  C   UNL     1       3.848  -1.752   3.933  0.00  0.00    +0.000 A 
ATOM     19  C   UNL     1       4.293  -2.379   5.105  0.00  0.00    +0.000 A 
ATOM     20  C   UNL     1       3.797  -3.634   5.472  0.00  0.00    +0.000 A 
ATOM     21  C   UNL     1       2.865  -4.248   4.638  0.00  0.00    +0.000 A 
ATOM     22  F   UNL     1       2.342  -5.447   4.942  0.00  0.00    +0.000 F 
ATOM     23  C   UNL     1       2.429  -3.625   3.469  0.00  0.00    +0.000 A 
BRANCH  20  24
ATOM     24  C   UNL     1       4.267  -4.235   6.745  0.00  0.00    +0.000 C 
ATOM     25  N   UNL     1       3.762  -5.450   7.111  0.00  0.00    +0.000 N 
ATOM     26  O   UNL     1       5.079  -3.663   7.458  0.00  0.00    +0.000 OA
ATOM     27  H   UNL     1       3.078  -5.953   6.559  0.00  0.00    +0.000 HD
ATOM     28  H   UNL     1       4.069  -5.848   7.988  0.00  0.00    +0.000 HD
ENDBRANCH  20  24
ENDBRANCH  15  17
ENDBRANCH   1  15
TORSDOF 6
