REMARK  Name = 
REMARK  3 active torsions:
REMARK  status: ('A' for Active; 'I' for Inactive)
REMARK    1  A    between atoms: C_2  and  C_4
REMARK    2  A    between atoms: N_8  and  C_9
REMARK    3  A    between atoms: C_9  and  C_10
REMARK                            x       y       z     vdW  Elec       q    Type
REMARK                         _______ _______ _______ _____ _____    ______ ____
ROOT
ATOM      1  C   UNL     1       2.926   1.429  -0.385  0.00  0.00    +0.000 A 
ATOM      2  C   UNL     1       4.255   1.255  -0.747  0.00  0.00    +0.000 A 
ATOM      3  C   UNL     1       5.021   2.370  -1.067  0.00  0.00    +0.000 A 
ATOM      4  C   UNL     1       4.467   3.647  -0.986  0.00  0.00    +0.000 A 
ATOM      5  N   UNL     1       5.328   4.726  -1.177  0.00  0.00    +0.000 N 
ATOM      6  N   UNL     1       3.169   3.827  -0.660  0.00  0.00    +0.000 NA
ATOM      7  C   UNL     1       2.422   2.722  -0.391  0.00  0.00    +0.000 A 
ATOM      8  H   UNL     1       5.808   4.680  -2.068  0.00  0.00    +0.000 HD
ENDROOT
BRANCH   1  10
ATOM      9  N   UNL     1       2.655  -0.789   0.568  0.00  0.00    +0.000 N 
ATOM     10  C   UNL     1       2.050   0.307   0.005  0.00  0.00    +0.000 C 
ATOM     11  O   UNL     1       0.838   0.360  -0.130  0.00  0.00    +0.000 OA
ATOM     12  H   UNL     1       2.037  -1.505   0.930  0.00  0.00    +0.000 HD
ATOM     13  H   UNL     1       3.602  -0.769   0.918  0.00  0.00    +0.000 HD
ENDBRANCH   1  10
BRANCH   5  14
ATOM     14  C   UNL     1       4.857   6.045  -0.782  0.00  0.00    +0.000 C 
BRANCH  14  15
ATOM     15  C   UNL     1       5.832   7.141  -1.263  0.00  0.00    +0.000 C 
ATOM     16  C   UNL     1       7.293   6.835  -0.881  0.00  0.00    +0.000 C 
ATOM     17  C   UNL     1       8.236   7.963  -1.282  0.00  0.00    +0.000 C 
ATOM     18  C   UNL     1       7.802   9.294  -0.688  0.00  0.00    +0.000 C 
ATOM     19  C   UNL     1       6.363   9.628  -1.072  0.00  0.00    +0.000 C 
ATOM     20  C   UNL     1       5.402   8.503  -0.692  0.00  0.00    +0.000 C 
ENDBRANCH  14  15
ENDBRANCH   5  14
TORSDOF 3
