REMARK  Name = 
REMARK  4 active torsions:
REMARK  status: ('A' for Active; 'I' for Inactive)
REMARK    1  A    between atoms: C_7  and  N_8
REMARK    2  A    between atoms: N_8  and  C_9
REMARK    3  A    between atoms: C_9  and  C_10
REMARK    4  A    between atoms: C_14  and  C_15
REMARK                            x       y       z     vdW  Elec       q    Type
REMARK                         _______ _______ _______ _____ _____    ______ ____
ROOT
ATOM      1  C   UNL     1      -2.310   4.023   0.023  0.00  0.00    +0.000 A 
ATOM      2  C   UNL     1      -1.396   5.066   0.101  0.00  0.00    +0.000 A 
ATOM      3  N   UNL     1      -1.767   6.366   0.085  0.00  0.00    +0.000 NA
ATOM      4  C   UNL     1      -3.101   6.586  -0.016  0.00  0.00    +0.000 A 
ATOM      5  C   UNL     1      -4.048   5.564  -0.086  0.00  0.00    +0.000 A 
ATOM      6  N   UNL     1      -3.650   4.264  -0.052  0.00  0.00    +0.000 NA
ENDROOT
BRANCH   5   7
ATOM      7  C   UNL     1      -5.495   5.808  -0.176  0.00  0.00    +0.000 A 
ATOM      8  C   UNL     1      -6.030   6.920  -0.834  0.00  0.00    +0.000 A 
ATOM      9  N   UNL     1      -7.349   7.228  -0.903  0.00  0.00    +0.000 NA
ATOM     10  C   UNL     1      -8.202   6.373  -0.295  0.00  0.00    +0.000 A 
ATOM     11  C   UNL     1      -7.790   5.225   0.360  0.00  0.00    +0.000 A 
ATOM     12 BR   UNL     1      -9.045   4.086   1.185  0.00  0.00    +0.000 Br
ATOM     13  C   UNL     1      -6.427   4.939   0.413  0.00  0.00    +0.000 A 
ENDBRANCH   5   7
BRANCH   1  14
ATOM     14  C   UNL     1      -1.823   2.587  -0.042  0.00  0.00    +0.000 C 
BRANCH  14  15
ATOM     15  N   UNL     1      -1.686   1.984   1.276  0.00  0.00    +0.000 N 
ATOM     16  H   UNL     1      -1.427   2.627   2.018  0.00  0.00    +0.000 HD
BRANCH  15  23
ATOM     17 CL   UNL     1      -1.069  -0.167  -1.162  0.00  0.00    +0.000 Cl
ATOM     18  C   UNL     1      -1.056  -0.365   0.552  0.00  0.00    +0.000 A 
ATOM     19  N   UNL     1      -0.750  -1.654   0.858  0.00  0.00    +0.000 NA
ATOM     20  C   UNL     1      -0.690  -1.980   2.160  0.00  0.00    +0.000 A 
ATOM     21  C   UNL     1      -0.914  -1.074   3.176  0.00  0.00    +0.000 A 
ATOM     22  C   UNL     1      -1.216   0.244   2.831  0.00  0.00    +0.000 A 
ATOM     23  C   UNL     1      -1.283   0.663   1.488  0.00  0.00    +0.000 A 
ENDBRANCH  15  23
ENDBRANCH  14  15
ENDBRANCH   1  14
TORSDOF 4
