REMARK  Name = 
REMARK  8 active torsions:
REMARK  status: ('A' for Active; 'I' for Inactive)
REMARK    1  A    between atoms: C_1  and  O_2
REMARK    2  A    between atoms: O_2  and  C_3
REMARK    3  A    between atoms: C_5  and  C_6
REMARK    4  A    between atoms: C_11  and  N_12
REMARK    5  A    between atoms: N_12  and  C_13
REMARK    6  A    between atoms: C_13  and  C_14
REMARK    7  A    between atoms: C_17  and  O_18
REMARK    8  A    between atoms: O_18  and  C_19
REMARK                            x       y       z     vdW  Elec       q    Type
REMARK                         _______ _______ _______ _____ _____    ______ ____
ROOT
ATOM      1  N   UNL     1       4.099  -0.117  -1.970  0.00  0.00    +0.000 N 
ATOM      2  H   UNL     1       3.893   0.685  -1.382  0.00  0.00    +0.000 HD
ENDROOT
BRANCH   1   8
ATOM      3  C   UNL     1       3.772   1.428  -3.826  0.00  0.00    +0.000 A 
ATOM      4  C   UNL     1       3.321   1.648  -5.130  0.00  0.00    +0.000 A 
ATOM      5  C   UNL     1       2.734   0.601  -5.855  0.00  0.00    +0.000 A 
ATOM      6  C   UNL     1       2.647  -0.636  -5.244  0.00  0.00    +0.000 A 
ATOM      7  N   UNL     1       3.084  -0.885  -3.994  0.00  0.00    +0.000 NA
ATOM      8  C   UNL     1       3.622   0.134  -3.281  0.00  0.00    +0.000 A 
BRANCH   5   9
ATOM      9  C   UNL     1       2.242   0.855  -7.231  0.00  0.00    +0.000 C 
ATOM     10  N   UNL     1       1.565  -0.133  -7.895  0.00  0.00    +0.000 N 
ATOM     11  O   UNL     1       2.417   1.942  -7.767  0.00  0.00    +0.000 OA
ATOM     12  H   UNL     1       1.323  -1.039  -7.528  0.00  0.00    +0.000 HD
ATOM     13  H   UNL     1       1.224   0.105  -8.823  0.00  0.00    +0.000 HD
ENDBRANCH   5   9
BRANCH   3  15
ATOM     14  C   UNL     1       4.691   3.642  -3.512  0.00  0.00    +0.000 C 
ATOM     15  O   UNL     1       4.316   2.371  -2.995  0.00  0.00    +0.000 OA
ENDBRANCH   3  15
ENDBRANCH   1   8
BRANCH   1  16
ATOM     16  C   UNL     1       3.951  -1.461  -1.380  0.00  0.00    +0.000 C 
ATOM     17  C   UNL     1       2.572  -2.094  -1.282  0.00  0.00    +0.000 C 
ATOM     18  C   UNL     1       3.236  -1.604  -0.041  0.00  0.00    +0.000 C 
BRANCH  16  19
ATOM     19  C   UNL     1       5.163  -2.362  -1.595  0.00  0.00    +0.000 A 
ATOM     20  C   UNL     1       6.287  -2.290  -0.753  0.00  0.00    +0.000 A 
ATOM     21  C   UNL     1       7.377  -3.159  -0.903  0.00  0.00    +0.000 A 
ATOM     22  C   UNL     1       7.352  -4.144  -1.886  0.00  0.00    +0.000 A 
ATOM     23  C   UNL     1       6.280  -4.181  -2.779  0.00  0.00    +0.000 A 
ATOM     24  C   UNL     1       5.205  -3.300  -2.635  0.00  0.00    +0.000 A 
BRANCH  22  25
ATOM     25  O   UNL     1       8.318  -5.074  -2.113  0.00  0.00    +0.000 OA
BRANCH  25  26
ATOM     26  C   UNL     1       9.072  -5.577  -1.020  0.00  0.00    +0.000 C 
ATOM     27  F   UNL     1       8.639  -5.178   0.194  0.00  0.00    +0.000 F 
ATOM     28  F   UNL     1       9.018  -6.929  -1.049  0.00  0.00    +0.000 F 
ATOM     29  F   UNL     1      10.363  -5.208  -1.164  0.00  0.00    +0.000 F 
ENDBRANCH  25  26
ENDBRANCH  22  25
ENDBRANCH  16  19
ENDBRANCH   1  16
TORSDOF 7
