REMARK  Name = 
REMARK  6 active torsions:
REMARK  status: ('A' for Active; 'I' for Inactive)
REMARK    1  A    between atoms: C_2  and  C_25
REMARK    2  A    between atoms: N_3  and  C_4
REMARK    3  A    between atoms: C_4  and  C_5
REMARK    4  A    between atoms: C_8  and  C_9
REMARK    5  A    between atoms: C_9  and  N_10
REMARK    6  A    between atoms: C_11  and  C_13
REMARK                            x       y       z     vdW  Elec       q    Type
REMARK                         _______ _______ _______ _____ _____    ______ ____
ROOT
ATOM      1  C   UNL     1       3.147   2.419   2.896  0.00  0.00    +0.000 A 
ATOM      2  C   UNL     1       3.001   3.803   2.971  0.00  0.00    +0.000 A 
ATOM      3  C   UNL     1       3.852   4.533   3.798  0.00  0.00    +0.000 A 
ATOM      4  C   UNL     1       4.839   3.875   4.533  0.00  0.00    +0.000 A 
ATOM      5  C   UNL     1       4.893   2.490   4.419  0.00  0.00    +0.000 A 
ATOM      6  N   UNL     1       4.080   1.753   3.622  0.00  0.00    +0.000 NA
ENDROOT
BRANCH   1   7
ATOM      7  C   UNL     1       2.247   1.604   1.991  0.00  0.00    +0.000 C 
BRANCH   7  10
ATOM      8  O   UNL     1      -0.155   3.084   2.116  0.00  0.00    +0.000 OA
ATOM      9  C   UNL     1      -0.101   1.976   2.647  0.00  0.00    +0.000 C 
ATOM     10  N   UNL     1       1.021   1.186   2.631  0.00  0.00    +0.000 N 
ATOM     11  H   UNL     1       0.993   0.327   3.170  0.00  0.00    +0.000 HD
BRANCH   9  12
ATOM     12  C   UNL     1      -1.241   1.375   3.340  0.00  0.00    +0.000 A 
ATOM     13  C   UNL     1      -2.482   1.959   3.518  0.00  0.00    +0.000 A 
ATOM     14  N   UNL     1      -3.237   1.028   4.172  0.00  0.00    +0.000 N 
ATOM     15  C   UNL     1      -2.451  -0.068   4.381  0.00  0.00    +0.000 A 
ATOM     16  N   UNL     1      -1.238   0.107   3.901  0.00  0.00    +0.000 NA
ATOM     17  H   UNL     1      -4.206   1.127   4.443  0.00  0.00    +0.000 HD
ENDBRANCH   9  12
ENDBRANCH   7  10
ENDBRANCH   1   7
BRANCH   4  18
ATOM     18  C   UNL     1       5.779   4.618   5.438  0.00  0.00    +0.000 C 
BRANCH  18  19
ATOM     19  N   UNL     1       5.237   4.758   6.767  0.00  0.00    +0.000 N 
ATOM     20  C   UNL     1       5.909   5.450   7.744  0.00  0.00    +0.000 C 
ATOM     21  O   UNL     1       6.959   6.044   7.516  0.00  0.00    +0.000 OA
ATOM     22  H   UNL     1       4.500   4.114   7.035  0.00  0.00    +0.000 HD
BRANCH  20  23
ATOM     23  C   UNL     1       5.276   5.490   9.069  0.00  0.00    +0.000 A 
ATOM     24  C   UNL     1       5.557   6.534   9.940  0.00  0.00    +0.000 A 
ATOM     25  S   UNL     1       4.713   6.436  11.420  0.00  0.00    +0.000 S 
ATOM     26  C   UNL     1       3.976   4.971  10.966  0.00  0.00    +0.000 A 
ATOM     27  N   UNL     1       3.130   4.321  11.809  0.00  0.00    +0.000 NA
ATOM     28  C   UNL     1       2.661   3.211  11.343  0.00  0.00    +0.000 A 
ATOM     29  N   UNL     1       2.959   2.695  10.108  0.00  0.00    +0.000 N 
ATOM     30  C   UNL     1       3.788   3.327   9.215  0.00  0.00    +0.000 A 
ATOM     31  O   UNL     1       4.004   2.861   8.102  0.00  0.00    +0.000 OA
ATOM     32  C   UNL     1       4.353   4.574   9.695  0.00  0.00    +0.000 A 
ATOM     33  H   UNL     1       2.548   1.827   9.796  0.00  0.00    +0.000 HD
ENDBRANCH  20  23
ENDBRANCH  18  19
ENDBRANCH   4  18
TORSDOF 6
