REMARK  Name = 
REMARK  5 active torsions:
REMARK  status: ('A' for Active; 'I' for Inactive)
REMARK    1  A    between atoms: C_1  and  C_2
REMARK    2  A    between atoms: C_2  and  C_3
REMARK    3  A    between atoms: C_2  and  C_14
REMARK    4  A    between atoms: C_3  and  N_4
REMARK    5  A    between atoms: C_8  and  C_9
REMARK                            x       y       z     vdW  Elec       q    Type
REMARK                         _______ _______ _______ _____ _____    ______ ____
ROOT
ATOM      1  N   UNL     1       2.680   2.284  -1.071  0.00  0.00    +0.000 N 
ATOM      2  C   UNL     1       3.229   3.577  -1.099  0.00  0.00    +0.000 A 
ATOM      3  C   UNL     1       3.021   4.407  -2.213  0.00  0.00    +0.000 A 
ATOM      4  N   UNL     1       3.511   5.672  -2.330  0.00  0.00    +0.000 NA
ATOM      5  C   UNL     1       4.248   6.084  -1.263  0.00  0.00    +0.000 A 
ATOM      6  C   UNL     1       4.478   5.276  -0.166  0.00  0.00    +0.000 A 
ATOM      7  N   UNL     1       3.983   4.017  -0.069  0.00  0.00    +0.000 NA
ATOM      8  H   UNL     1       1.678   2.346  -1.221  0.00  0.00    +0.000 HD
ENDROOT
BRANCH   5   9
ATOM      9  C   UNL     1       4.818   7.460  -1.286  0.00  0.00    +0.000 C 
ATOM     10  N   UNL     1       4.566   8.197  -2.412  0.00  0.00    +0.000 N 
ATOM     11  O   UNL     1       5.470   7.913  -0.355  0.00  0.00    +0.000 OA
ATOM     12  H   UNL     1       4.027   7.799  -3.171  0.00  0.00    +0.000 HD
ATOM     13  H   UNL     1       4.930   9.135  -2.478  0.00  0.00    +0.000 HD
ENDBRANCH   5   9
BRANCH   1  14
ATOM     14  C   UNL     1       2.975   1.549   0.157  0.00  0.00    +0.000 C 
BRANCH  14  16
ATOM     15  C   UNL     1       2.799  -0.806  -0.870  0.00  0.00    +0.000 C 
ATOM     16  C   UNL     1       2.263   0.229   0.068  0.00  0.00    +0.000 C 
BRANCH  16  17
ATOM     17  C   UNL     1       0.858   0.176   0.497  0.00  0.00    +0.000 A 
ATOM     18  C   UNL     1       0.490   0.529   1.803  0.00  0.00    +0.000 A 
ATOM     19  C   UNL     1      -0.857   0.594   2.165  0.00  0.00    +0.000 A 
ATOM     20  C   UNL     1      -1.846   0.310   1.225  0.00  0.00    +0.000 A 
ATOM     21  C   UNL     1      -1.488  -0.076  -0.065  0.00  0.00    +0.000 A 
ATOM     22  C   UNL     1      -0.143  -0.155  -0.422  0.00  0.00    +0.000 A 
ENDBRANCH  16  17
ENDBRANCH  14  16
ENDBRANCH   1  14
TORSDOF 4
