REMARK  Name = 
REMARK  8 active torsions:
REMARK  status: ('A' for Active; 'I' for Inactive)
REMARK    1  A    between atoms: C_2  and  C_4
REMARK    2  A    between atoms: C_7  and  N_8
REMARK    3  A    between atoms: N_8  and  C_9
REMARK    4  A    between atoms: C_9  and  C_10
REMARK    5  A    between atoms: C_10  and  C_11
REMARK    6  A    between atoms: C_10  and  C_13
REMARK    7  A    between atoms: C_17  and  O_18
REMARK    8  A    between atoms: O_18  and  C_19
REMARK                            x       y       z     vdW  Elec       q    Type
REMARK                         _______ _______ _______ _____ _____    ______ ____
ROOT
ATOM      1  C   UNL     1       5.714   0.888  -7.255  0.00  0.00    +0.000 C 
ENDROOT
BRANCH   1   2
ATOM      2  C   UNL     1       5.235   1.809  -8.379  0.00  0.00    +0.000 A 
ATOM      3  C   UNL     1       4.307   1.392  -9.344  0.00  0.00    +0.000 A 
ATOM      4  C   UNL     1       3.942   2.233 -10.399  0.00  0.00    +0.000 A 
ATOM      5  C   UNL     1       4.454   3.527 -10.480  0.00  0.00    +0.000 A 
ATOM      6  C   UNL     1       5.305   3.991  -9.481  0.00  0.00    +0.000 A 
ATOM      7  C   UNL     1       5.697   3.135  -8.444  0.00  0.00    +0.000 A 
BRANCH   6   8
ATOM      8  O   UNL     1       5.778   5.277  -9.391  0.00  0.00    +0.000 OA
BRANCH   8   9
ATOM      9  C   UNL     1       5.789   6.109 -10.575  0.00  0.00    +0.000 C 
ATOM     10  C   UNL     1       6.862   5.801 -11.637  0.00  0.00    +0.000 C 
ATOM     11  N   UNL     1       7.337   7.191 -11.590  0.00  0.00    +0.000 NA
ATOM     12  C   UNL     1       6.504   7.466 -10.412  0.00  0.00    +0.000 C 
ATOM     13  H   UNL     1       7.094   7.744 -12.411  0.00  0.00    +0.000 HD
ENDBRANCH   8   9
ENDBRANCH   6   8
ENDBRANCH   1   2
BRANCH   1  14
ATOM     14  C   UNL     1       4.810   1.035  -6.028  0.00  0.00    +0.000 C 
ATOM     15  F   UNL     1       3.531   0.687  -6.343  0.00  0.00    +0.000 F 
ENDBRANCH   1  14
BRANCH   1  16
ATOM     16  C   UNL     1       5.841  -0.592  -7.689  0.00  0.00    +0.000 C 
BRANCH  16  17
ATOM     17  N   UNL     1       6.300  -1.451  -6.597  0.00  0.00    +0.000 N 
ATOM     18  H   UNL     1       5.672  -2.237  -6.429  0.00  0.00    +0.000 HD
BRANCH  17  22
ATOM     19  C   UNL     1      10.266  -2.530  -5.649  0.00  0.00    +0.000 A 
ATOM     20  C   UNL     1      10.029  -1.636  -6.698  0.00  0.00    +0.000 A 
ATOM     21  C   UNL     1       8.717  -1.259  -7.026  0.00  0.00    +0.000 A 
ATOM     22  C   UNL     1       7.622  -1.793  -6.354  0.00  0.00    +0.000 A 
ATOM     23  C   UNL     1       7.882  -2.666  -5.283  0.00  0.00    +0.000 A 
ATOM     24  C   UNL     1       9.183  -3.044  -4.937  0.00  0.00    +0.000 A 
BRANCH  19  26
ATOM     25  N   UNL     1      12.660  -2.105  -5.540  0.00  0.00    +0.000 N 
ATOM     26  C   UNL     1      11.637  -2.973  -5.272  0.00  0.00    +0.000 C 
ATOM     27  O   UNL     1      11.840  -4.038  -4.714  0.00  0.00    +0.000 OA
ATOM     28  H   UNL     1      13.568  -2.366  -5.179  0.00  0.00    +0.000 HD
ATOM     29  H   UNL     1      12.498  -1.130  -5.739  0.00  0.00    +0.000 HD
ENDBRANCH  19  26
ENDBRANCH  17  22
ENDBRANCH  16  17
ENDBRANCH   1  16
TORSDOF 8
