REMARK  Name = 
REMARK  5 active torsions:
REMARK  status: ('A' for Active; 'I' for Inactive)
REMARK    1  A    between atoms: N_1  and  C_2
REMARK    2  A    between atoms: C_2  and  C_3
REMARK    3  A    between atoms: C_3  and  C_4
REMARK    4  A    between atoms: C_7  and  C_8
REMARK    5  A    between atoms: C_8  and  N_9
REMARK                            x       y       z     vdW  Elec       q    Type
REMARK                         _______ _______ _______ _____ _____    ______ ____
ROOT
ATOM      1  C   UNL     1       4.490   1.260   0.851  0.00  0.00    +0.000 A 
ATOM      2  C   UNL     1       5.131   0.780   1.990  0.00  0.00    +0.000 A 
ATOM      3  C   UNL     1       6.524   0.756   2.019  0.00  0.00    +0.000 A 
ATOM      4  C   UNL     1       7.251   1.204   0.915  0.00  0.00    +0.000 A 
ATOM      5  C   UNL     1       6.523   1.662  -0.177  0.00  0.00    +0.000 A 
ATOM      6  N   UNL     1       5.172   1.700  -0.232  0.00  0.00    +0.000 NA
ENDROOT
BRANCH   1   7
ATOM      7  C   UNL     1       2.985   1.265   0.765  0.00  0.00    +0.000 C 
BRANCH   7   8
ATOM      8  C   UNL     1       2.468  -0.046   0.171  0.00  0.00    +0.000 C 
BRANCH   8   9
ATOM      9  N   UNL     1       1.005  -0.057   0.103  0.00  0.00    +0.000 NA
ATOM     10  H   UNL     1       0.702  -0.919  -0.350  0.00  0.00    +0.000 HD
ATOM     11  H   UNL     1       0.693   0.700  -0.506  0.00  0.00    +0.000 HD
ENDBRANCH   8   9
ENDBRANCH   7   8
ENDBRANCH   1   7
BRANCH   4  12
ATOM     12  C   UNL     1       8.751   1.202   0.896  0.00  0.00    +0.000 C 
BRANCH  12  13
ATOM     13  N   UNL     1       9.307  -0.037   0.361  0.00  0.00    +0.000 N 
ATOM     14  C   UNL     1       9.554  -0.253  -0.972  0.00  0.00    +0.000 A 
ATOM     15  C   UNL     1      10.247  -1.437  -1.094  0.00  0.00    +0.000 A 
ATOM     16  C   UNL     1      10.435  -1.968   0.216  0.00  0.00    +0.000 A 
ATOM     17  C   UNL     1      11.081  -3.100   0.757  0.00  0.00    +0.000 A 
ATOM     18 CL   UNL     1      11.874  -4.136  -0.349  0.00  0.00    +0.000 Cl
ATOM     19  C   UNL     1      11.090  -3.348   2.127  0.00  0.00    +0.000 A 
ATOM     20  C   UNL     1      10.438  -2.471   2.986  0.00  0.00    +0.000 A 
ATOM     21  C   UNL     1       9.788  -1.332   2.496  0.00  0.00    +0.000 A 
ATOM     22  C   UNL     1       9.808  -1.088   1.110  0.00  0.00    +0.000 A 
ENDBRANCH  12  13
ENDBRANCH   4  12
TORSDOF 5
