REMARK  Name = 
REMARK  6 active torsions:
REMARK  status: ('A' for Active; 'I' for Inactive)
REMARK    1  A    between atoms: C_1  and  C_2
REMARK    2  A    between atoms: C_5  and  C_6
REMARK    3  A    between atoms: C_6  and  C_7
REMARK    4  A    between atoms: C_6  and  N_8
REMARK    5  A    between atoms: N_8  and  C_9
REMARK    6  A    between atoms: C_12  and  C_13
REMARK                            x       y       z     vdW  Elec       q    Type
REMARK                         _______ _______ _______ _____ _____    ______ ____
ROOT
ATOM      1  C   UNL     1      -5.155   1.647  -0.305  0.00  0.00    +0.000 A 
ATOM      2  N   UNL     1      -5.817   0.664  -0.957  0.00  0.00    +0.000 NA
ATOM      3  C   UNL     1      -7.054   0.931  -1.448  0.00  0.00    +0.000 A 
ATOM      4  C   UNL     1      -7.713   2.139  -1.272  0.00  0.00    +0.000 A 
ATOM      5  C   UNL     1      -7.043   3.153  -0.593  0.00  0.00    +0.000 A 
ATOM      6  C   UNL     1      -5.752   2.911  -0.121  0.00  0.00    +0.000 A 
ATOM      7 CL   UNL     1      -4.913   4.209   0.653  0.00  0.00    +0.000 Cl
ENDROOT
BRANCH   4   8
ATOM      8  C   UNL     1      -9.060   2.305  -1.848  0.00  0.00    +0.000 C 
ATOM      9  N   UNL     1      -9.907   3.180  -1.228  0.00  0.00    +0.000 N 
ATOM     10  O   UNL     1      -9.414   1.663  -2.827  0.00  0.00    +0.000 OA
ATOM     11  H   UNL     1      -9.746   3.541  -0.298  0.00  0.00    +0.000 HD
ATOM     12  H   UNL     1     -10.855   3.217  -1.584  0.00  0.00    +0.000 HD
ENDBRANCH   4   8
BRANCH   1  13
ATOM     13  N   UNL     1      -3.880   1.384   0.227  0.00  0.00    +0.000 N 
ATOM     14  H   UNL     1      -3.248   2.131  -0.055  0.00  0.00    +0.000 HD
BRANCH  13  15
ATOM     15  C   UNL     1      -3.314   0.055  -0.029  0.00  0.00    +0.000 C 
ATOM     16  C   UNL     1      -3.785  -0.939   1.038  0.00  0.00    +0.000 C 
BRANCH  15  21
ATOM     17  C   UNL     1       2.522   0.466  -0.132  0.00  0.00    +0.000 C 
ATOM     18  C   UNL     1       1.028   0.337  -0.103  0.00  0.00    +0.000 A 
ATOM     19  C   UNL     1       0.315  -0.041  -1.244  0.00  0.00    +0.000 A 
ATOM     20  C   UNL     1      -1.080  -0.129  -1.210  0.00  0.00    +0.000 A 
ATOM     21  C   UNL     1      -1.792   0.155  -0.035  0.00  0.00    +0.000 A 
ATOM     22  C   UNL     1      -1.069   0.528   1.109  0.00  0.00    +0.000 A 
ATOM     23  C   UNL     1       0.326   0.615   1.075  0.00  0.00    +0.000 A 
ENDBRANCH  15  21
ENDBRANCH  13  15
ENDBRANCH   1  13
TORSDOF 4
