REMARK  Name = 
REMARK  6 active torsions:
REMARK  status: ('A' for Active; 'I' for Inactive)
REMARK    1  A    between atoms: C_2  and  C_4
REMARK    2  A    between atoms: C_7  and  O_8
REMARK    3  A    between atoms: O_8  and  C_9
REMARK    4  A    between atoms: C_9  and  C_10
REMARK    5  A    between atoms: C_14  and  N_15
REMARK    6  A    between atoms: C_18  and  O_19
REMARK                            x       y       z     vdW  Elec       q    Type
REMARK                         _______ _______ _______ _____ _____    ______ ____
ROOT
ATOM      1  C   UNL     1       6.529  -5.933   3.078  0.00  0.00    +0.000 A 
ATOM      2  C   UNL     1       6.457  -7.318   3.083  0.00  0.00    +0.000 A 
ATOM      3  N   UNL     1       7.368  -8.116   3.669  0.00  0.00    +0.000 NA
ATOM      4  C   UNL     1       8.407  -7.494   4.283  0.00  0.00    +0.000 A 
ATOM      5  C   UNL     1       8.614  -6.112   4.349  0.00  0.00    +0.000 A 
ATOM      6  C   UNL     1       7.624  -5.341   3.725  0.00  0.00    +0.000 A 
ENDROOT
BRANCH   5   7
ATOM      7  N   UNL     1       9.701  -5.534   4.985  0.00  0.00    +0.000 N 
ATOM      8  C   UNL     1      10.377  -6.199   6.099  0.00  0.00    +0.000 C 
ATOM      9  C   UNL     1      11.810  -6.550   5.713  0.00  0.00    +0.000 C 
ATOM     10  C   UNL     1      12.560  -5.343   5.152  0.00  0.00    +0.000 C 
ATOM     11  C   UNL     1      11.781  -4.652   4.035  0.00  0.00    +0.000 C 
ATOM     12  C   UNL     1      10.343  -4.335   4.442  0.00  0.00    +0.000 C 
BRANCH  10  13
ATOM     13  O   UNL     1      12.871  -4.415   6.192  0.00  0.00    +0.000 OA
ATOM     14  H   UNL     1      12.045  -4.085   6.581  0.00  0.00    +0.000 HD
ENDBRANCH  10  13
ENDBRANCH   5   7
BRANCH   1  15
ATOM     15  C   UNL     1       5.485  -5.115   2.369  0.00  0.00    +0.000 C 
BRANCH  15  16
ATOM     16  O   UNL     1       4.393  -4.800   3.243  0.00  0.00    +0.000 OA
BRANCH  16  20
ATOM     17  C   UNL     1       1.456  -2.665   1.268  0.00  0.00    +0.000 A 
ATOM     18  C   UNL     1       1.278  -2.980   2.617  0.00  0.00    +0.000 A 
ATOM     19  C   UNL     1       2.272  -3.705   3.288  0.00  0.00    +0.000 A 
ATOM     20  C   UNL     1       3.412  -4.080   2.583  0.00  0.00    +0.000 A 
ATOM     21  N   UNL     1       3.599  -3.783   1.278  0.00  0.00    +0.000 NA
ATOM     22  C   UNL     1       2.618  -3.099   0.646  0.00  0.00    +0.000 A 
BRANCH  17  24
ATOM     23  N   UNL     1      -0.339  -1.036   1.091  0.00  0.00    +0.000 N 
ATOM     24  C   UNL     1       0.472  -1.929   0.449  0.00  0.00    +0.000 C 
ATOM     25  O   UNL     1       0.411  -2.080  -0.762  0.00  0.00    +0.000 OA
ATOM     26  H   UNL     1      -0.926  -0.463   0.495  0.00  0.00    +0.000 HD
ATOM     27  H   UNL     1      -0.145  -0.693   2.020  0.00  0.00    +0.000 HD
ENDBRANCH  17  24
ENDBRANCH  16  20
ENDBRANCH  15  16
ENDBRANCH   1  15
TORSDOF 6
