REMARK  Name = 
REMARK  6 active torsions:
REMARK  status: ('A' for Active; 'I' for Inactive)
REMARK    1  A    between atoms: N_1  and  C_2
REMARK    2  A    between atoms: C_2  and  C_3
REMARK    3  A    between atoms: C_3  and  C_4
REMARK    4  A    between atoms: C_7  and  C_8
REMARK    5  A    between atoms: C_8  and  N_9
REMARK    6  A    between atoms: C_14  and  C_15
REMARK                            x       y       z     vdW  Elec       q    Type
REMARK                         _______ _______ _______ _____ _____    ______ ____
ROOT
ATOM      1  N   UNL     1       9.314  -2.224  -1.588  0.00  0.00    +0.000 N 
ATOM      2  C   UNL     1       9.787  -3.051  -0.604  0.00  0.00    +0.000 A 
ATOM      3  N   UNL     1      10.159  -4.221  -1.081  0.00  0.00    +0.000 NA
ATOM      4  C   UNL     1       9.919  -4.143  -2.431  0.00  0.00    +0.000 A 
ATOM      5  C   UNL     1      10.083  -5.094  -3.446  0.00  0.00    +0.000 A 
ATOM      6  C   UNL     1       9.729  -4.709  -4.744  0.00  0.00    +0.000 A 
ATOM      7  C   UNL     1       9.268  -3.404  -4.956  0.00  0.00    +0.000 A 
ATOM      8  N   UNL     1       9.100  -2.444  -4.005  0.00  0.00    +0.000 NA
ATOM      9  C   UNL     1       9.425  -2.891  -2.776  0.00  0.00    +0.000 A 
ENDROOT
BRANCH   6  10
ATOM     10  C   UNL     1       9.795  -5.615  -5.916  0.00  0.00    +0.000 C 
ATOM     11  N   UNL     1      10.212  -6.903  -5.729  0.00  0.00    +0.000 N 
ATOM     12  O   UNL     1       9.474  -5.231  -7.034  0.00  0.00    +0.000 OA
ATOM     13  H   UNL     1      10.471  -7.314  -4.845  0.00  0.00    +0.000 HD
ATOM     14  H   UNL     1      10.219  -7.503  -6.545  0.00  0.00    +0.000 HD
ENDBRANCH   6  10
BRANCH   1  15
ATOM     15  C   UNL     1       8.794  -0.884  -1.402  0.00  0.00    +0.000 C 
BRANCH  15  19
ATOM     16  C   UNL     1       4.476  -1.034  -1.086  0.00  0.00    +0.000 A 
ATOM     17  C   UNL     1       5.274  -1.101   0.064  0.00  0.00    +0.000 A 
ATOM     18  C   UNL     1       6.667  -1.037  -0.032  0.00  0.00    +0.000 A 
ATOM     19  C   UNL     1       7.290  -0.893  -1.279  0.00  0.00    +0.000 A 
ATOM     20  C   UNL     1       6.487  -0.806  -2.425  0.00  0.00    +0.000 A 
ATOM     21  C   UNL     1       5.096  -0.871  -2.330  0.00  0.00    +0.000 A 
BRANCH  16  22
ATOM     22  C   UNL     1       2.973  -1.149  -0.990  0.00  0.00    +0.000 C 
BRANCH  22  23
ATOM     23  C   UNL     1       2.290   0.203  -0.768  0.00  0.00    +0.000 C 
BRANCH  23  24
ATOM     24  N   UNL     1       0.839   0.043  -0.660  0.00  0.00    +0.000 NA
ATOM     25  H   UNL     1       0.412   0.951  -0.480  0.00  0.00    +0.000 HD
ATOM     26  H   UNL     1       0.618  -0.541   0.145  0.00  0.00    +0.000 HD
ENDBRANCH  23  24
ENDBRANCH  22  23
ENDBRANCH  16  22
ENDBRANCH  15  19
ENDBRANCH   1  15
TORSDOF 6
