REMARK  Name = 
REMARK  3 active torsions:
REMARK  status: ('A' for Active; 'I' for Inactive)
REMARK    1  A    between atoms: C_2  and  C_3
REMARK    2  A    between atoms: C_10  and  C_11
REMARK    3  A    between atoms: C_15  and  N_16
REMARK                            x       y       z     vdW  Elec       q    Type
REMARK                         _______ _______ _______ _____ _____    ______ ____
ROOT
ATOM      1  C   UNL     1       0.520   0.015   0.059  0.00  0.00    +0.000 A 
ATOM      2  C   UNL     1      -0.114   1.164  -0.397  0.00  0.00    +0.000 A 
ATOM      3  C   UNL     1      -1.507   1.189  -0.453  0.00  0.00    +0.000 A 
ATOM      4  C   UNL     1      -2.248   0.078  -0.052  0.00  0.00    +0.000 A 
ATOM      5  N   UNL     1      -3.619   0.055  -0.147  0.00  0.00    +0.000 N 
ATOM      6  C   UNL     1      -4.388  -0.667   0.858  0.00  0.00    +0.000 C 
ATOM      7  C   UNL     1      -5.393  -1.617   0.203  0.00  0.00    +0.000 C 
ATOM      8  C   UNL     1      -6.243  -0.934  -0.889  0.00  0.00    +0.000 C 
ATOM      9  C   UNL     1      -5.262  -0.313  -1.908  0.00  0.00    +0.000 C 
ATOM     10  C   UNL     1      -4.320   0.694  -1.249  0.00  0.00    +0.000 C 
ATOM     11  N   UNL     1      -1.626  -1.023   0.428  0.00  0.00    +0.000 NA
ATOM     12  C   UNL     1      -0.274  -1.041   0.461  0.00  0.00    +0.000 A 
ENDROOT
BRANCH   8  13
ATOM     13  C   UNL     1      -7.296   0.064  -0.404  0.00  0.00    +0.000 A 
ATOM     14  C   UNL     1      -7.589   0.270   0.948  0.00  0.00    +0.000 A 
ATOM     15  C   UNL     1      -8.492   1.254   1.339  0.00  0.00    +0.000 A 
ATOM     16  C   UNL     1      -9.128   2.040   0.380  0.00  0.00    +0.000 A 
ATOM     17  C   UNL     1      -8.908   1.848  -0.988  0.00  0.00    +0.000 A 
ATOM     18  C   UNL     1      -8.015   0.827  -1.349  0.00  0.00    +0.000 A 
BRANCH  17  19
ATOM     19  N   UNL     1      -9.520   2.645  -1.936  0.00  0.00    +0.000 N 
ATOM     20  C   UNL     1      -9.763   4.066  -1.694  0.00  0.00    +0.000 C 
ATOM     21  C   UNL     1     -11.256   4.325  -1.748  0.00  0.00    +0.000 C 
ATOM     22  C   UNL     1     -11.805   3.799  -3.059  0.00  0.00    +0.000 C 
ATOM     23  F   UNL     1     -13.154   3.963  -3.073  0.00  0.00    +0.000 F 
ATOM     24  F   UNL     1     -11.326   4.559  -4.081  0.00  0.00    +0.000 F 
ATOM     25  C   UNL     1     -11.477   2.344  -3.325  0.00  0.00    +0.000 C 
ATOM     26  C   UNL     1      -9.975   2.123  -3.223  0.00  0.00    +0.000 C 
ENDBRANCH  17  19
ENDBRANCH   8  13
BRANCH   1  28
ATOM     27  N   UNL     1       3.096  -0.158   0.158  0.00  0.00    +0.000 NA
ATOM     28  C   UNL     1       1.941  -0.080   0.117  0.00  0.00    +0.000 C 
ENDBRANCH   1  28
TORSDOF 3
