REMARK  Name = 
REMARK  4 active torsions:
REMARK  status: ('A' for Active; 'I' for Inactive)
REMARK    1  A    between atoms: C_2  and  C_3
REMARK    2  A    between atoms: C_6  and  N_7
REMARK    3  A    between atoms: N_7  and  C_8
REMARK    4  A    between atoms: C_8  and  C_9
REMARK                            x       y       z     vdW  Elec       q    Type
REMARK                         _______ _______ _______ _____ _____    ______ ____
ROOT
ATOM      1  N   UNL     1       7.443  -0.186  -0.540  0.00  0.00    +0.000 N 
ATOM      2  H   UNL     1       7.333   0.515  -1.274  0.00  0.00    +0.000 HD
ENDROOT
BRANCH   1   6
ATOM      3  C   UNL     1       5.653   1.432   2.795  0.00  0.00    +0.000 A 
ATOM      4  C   UNL     1       5.676   2.077   1.566  0.00  0.00    +0.000 A 
ATOM      5  N   UNL     1       6.297   1.555   0.477  0.00  0.00    +0.000 NA
ATOM      6  C   UNL     1       6.918   0.362   0.629  0.00  0.00    +0.000 A 
ATOM      7  C   UNL     1       6.901  -0.268   1.872  0.00  0.00    +0.000 A 
ATOM      8  N   UNL     1       6.276   0.241   2.975  0.00  0.00    +0.000 NA
BRANCH   3  10
ATOM      9  N   UNL     1       4.320   2.467   4.766  0.00  0.00    +0.000 NA
ATOM     10  C   UNL     1       4.925   1.984   3.902  0.00  0.00    +0.000 C 
ENDBRANCH   3  10
ENDBRANCH   1   6
BRANCH   1  11
ATOM     11  C   UNL     1       8.677  -0.989  -0.634  0.00  0.00    +0.000 C 
ATOM     12  C   UNL     1       8.579  -2.174  -1.598  0.00  0.00    +0.000 C 
ATOM     13  C   UNL     1       8.781  -2.423  -0.141  0.00  0.00    +0.000 C 
BRANCH  11  14
ATOM     14  C   UNL     1      10.001  -0.204  -0.687  0.00  0.00    +0.000 A 
ATOM     15  C   UNL     1      10.696   0.084   0.489  0.00  0.00    +0.000 A 
ATOM     16  C   UNL     1      12.024   0.499   0.421  0.00  0.00    +0.000 A 
ATOM     17  C   UNL     1      12.624   0.654  -0.821  0.00  0.00    +0.000 A 
ATOM     18  C   UNL     1      11.850   0.441  -1.946  0.00  0.00    +0.000 A 
ATOM     19  N   UNL     1      10.564   0.031  -1.905  0.00  0.00    +0.000 NA
ENDBRANCH  11  14
ENDBRANCH   1  11
TORSDOF 4
