REMARK  Name = 
REMARK  7 active torsions:
REMARK  status: ('A' for Active; 'I' for Inactive)
REMARK    1  A    between atoms: C_1  and  N_2
REMARK    2  A    between atoms: N_2  and  C_3
REMARK    3  A    between atoms: C_3  and  C_4
REMARK    4  A    between atoms: C_7  and  C_8
REMARK    5  A    between atoms: C_8  and  N_9
REMARK    6  A    between atoms: C_10  and  C_12
REMARK    7  A    between atoms: C_24  and  C_26
REMARK                            x       y       z     vdW  Elec       q    Type
REMARK                         _______ _______ _______ _____ _____    ______ ____
ROOT
ATOM      1  C   UNL     1       2.090   2.351  -0.563  0.00  0.00    +0.000 A 
ATOM      2  C   UNL     1       0.754   2.132  -0.929  0.00  0.00    +0.000 A 
ATOM      3  C   UNL     1      -0.149   3.198  -1.012  0.00  0.00    +0.000 A 
ATOM      4  C   UNL     1       0.268   4.510  -0.751  0.00  0.00    +0.000 A 
ATOM      5  C   UNL     1       1.614   4.734  -0.430  0.00  0.00    +0.000 A 
ATOM      6  C   UNL     1       2.517   3.668  -0.346  0.00  0.00    +0.000 A 
ENDROOT
BRANCH   1   7
ATOM      7  C   UNL     1       3.011   1.186  -0.274  0.00  0.00    +0.000 C 
BRANCH   7   9
ATOM      8  C   UNL     1       3.870   1.284  -2.655  0.00  0.00    +0.000 C 
ATOM      9  N   UNL     1       3.882   0.675  -1.336  0.00  0.00    +0.000 N 
ATOM     10  C   UNL     1       4.879  -0.286  -1.075  0.00  0.00    +0.000 C 
ATOM     11  O   UNL     1       5.698  -0.594  -1.948  0.00  0.00    +0.000 OA
BRANCH  10  12
ATOM     12  C   UNL     1       4.949  -0.946   0.230  0.00  0.00    +0.000 A 
ATOM     13  N   UNL     1       4.164  -0.768   1.280  0.00  0.00    +0.000 NA
ATOM     14  C   UNL     1       4.620  -1.618   2.254  0.00  0.00    +0.000 A 
ATOM     15  C   UNL     1       5.698  -2.335   1.802  0.00  0.00    +0.000 A 
ATOM     16  N   UNL     1       5.901  -1.901   0.523  0.00  0.00    +0.000 N 
ATOM     17  H   UNL     1       6.612  -2.209  -0.128  0.00  0.00    +0.000 HD
ENDBRANCH  10  12
ENDBRANCH   7   9
ENDBRANCH   1   7
BRANCH   4  18
ATOM     18  C   UNL     1      -0.722   5.649  -0.749  0.00  0.00    +0.000 C 
BRANCH  18  19
ATOM     19  N   UNL     1      -1.333   5.816   0.549  0.00  0.00    +0.000 N 
ATOM     20  C   UNL     1      -2.359   6.708   0.740  0.00  0.00    +0.000 C 
ATOM     21  O   UNL     1      -2.832   7.357  -0.190  0.00  0.00    +0.000 OA
ATOM     22  H   UNL     1      -0.826   5.456   1.353  0.00  0.00    +0.000 HD
BRANCH  20  23
ATOM     23  C   UNL     1      -2.911   6.815   2.099  0.00  0.00    +0.000 A 
ATOM     24  C   UNL     1      -4.194   7.318   2.279  0.00  0.00    +0.000 A 
ATOM     25  S   UNL     1      -4.702   7.340   3.907  0.00  0.00    +0.000 S 
ATOM     26  C   UNL     1      -3.208   6.727   4.438  0.00  0.00    +0.000 A 
ATOM     27  N   UNL     1      -2.965   6.530   5.762  0.00  0.00    +0.000 NA
ATOM     28  C   UNL     1      -1.780   6.093   6.028  0.00  0.00    +0.000 A 
ATOM     29  N   UNL     1      -0.818   5.827   5.088  0.00  0.00    +0.000 N 
ATOM     30  C   UNL     1      -1.026   5.984   3.738  0.00  0.00    +0.000 A 
ATOM     31  O   UNL     1      -0.156   5.702   2.921  0.00  0.00    +0.000 OA
ATOM     32  C   UNL     1      -2.340   6.489   3.385  0.00  0.00    +0.000 A 
ATOM     33  H   UNL     1       0.089   5.479   5.362  0.00  0.00    +0.000 HD
ENDBRANCH  20  23
ENDBRANCH  18  19
ENDBRANCH   4  18
TORSDOF 6
