REMARK  Name = 
REMARK  10 active torsions:
REMARK  status: ('A' for Active; 'I' for Inactive)
REMARK    1  A    between atoms: N_1  and  C_2
REMARK    2  A    between atoms: C_2  and  C_3
REMARK    3  A    between atoms: C_3  and  N_4
REMARK    4  A    between atoms: N_4  and  C_5
REMARK    5  A    between atoms: C_5  and  C_6
REMARK    6  A    between atoms: C_8  and  C_9
REMARK    7  A    between atoms: C_9  and  N_10
REMARK    8  A    between atoms: C_11  and  C_13
REMARK    9  A    between atoms: C_25  and  C_26
REMARK   10  A    between atoms: C_26  and  N_27
REMARK                            x       y       z     vdW  Elec       q    Type
REMARK                         _______ _______ _______ _____ _____    ______ ____
ROOT
ATOM      1  C   UNL     1       6.305  -2.084   2.028  0.00  0.00    +0.000 A 
ATOM      2  C   UNL     1       7.097  -2.418   0.906  0.00  0.00    +0.000 A 
ATOM      3  C   UNL     1       8.485  -2.378   0.938  0.00  0.00    +0.000 A 
ATOM      4  C   UNL     1       9.042  -1.979   2.141  0.00  0.00    +0.000 A 
ATOM      5  N   UNL     1       8.332  -1.631   3.247  0.00  0.00    +0.000 NA
ATOM      6  C   UNL     1       6.965  -1.679   3.204  0.00  0.00    +0.000 A 
ENDROOT
BRANCH   1   7
ATOM      7  C   UNL     1       4.813  -2.156   1.759  0.00  0.00    +0.000 C 
BRANCH   7   8
ATOM      8  N   UNL     1       4.038  -1.185   2.525  0.00  0.00    +0.000 NA
ATOM      9  H   UNL     1       3.054  -1.279   2.262  0.00  0.00    +0.000 HD
BRANCH   8  10
ATOM     10  C   UNL     1       4.484   0.172   2.176  0.00  0.00    +0.000 C 
BRANCH  10  11
ATOM     11  C   UNL     1       4.284   0.479   0.692  0.00  0.00    +0.000 C 
BRANCH  11  12
ATOM     12  N   UNL     1       2.874   0.356   0.336  0.00  0.00    +0.000 NA
ATOM     13  H   UNL     1       2.763   0.617  -0.639  0.00  0.00    +0.000 HD
ATOM     14  H   UNL     1       2.340   1.028   0.884  0.00  0.00    +0.000 HD
ENDBRANCH  11  12
ENDBRANCH  10  11
ENDBRANCH   8  10
ENDBRANCH   7   8
ENDBRANCH   1   7
BRANCH   3  15
ATOM     15  C   UNL     1       9.327  -2.738  -0.258  0.00  0.00    +0.000 C 
BRANCH  15  16
ATOM     16  N   UNL     1       9.616  -1.600  -1.104  0.00  0.00    +0.000 N 
ATOM     17  C   UNL     1      10.361  -1.686  -2.248  0.00  0.00    +0.000 C 
ATOM     18  O   UNL     1      10.839  -2.743  -2.666  0.00  0.00    +0.000 OA
ATOM     19  H   UNL     1       9.642  -0.700  -0.636  0.00  0.00    +0.000 HD
BRANCH  17  20
ATOM     20  C   UNL     1      10.507  -0.424  -2.994  0.00  0.00    +0.000 A 
ATOM     21  C   UNL     1      10.655  -0.431  -4.373  0.00  0.00    +0.000 A 
ATOM     22  S   UNL     1      10.767   1.131  -5.054  0.00  0.00    +0.000 S 
ATOM     23  C   UNL     1      10.660   1.871  -3.525  0.00  0.00    +0.000 A 
ATOM     24  N   UNL     1      10.719   3.224  -3.386  0.00  0.00    +0.000 NA
ATOM     25  C   UNL     1      10.648   3.641  -2.169  0.00  0.00    +0.000 A 
ATOM     26  N   UNL     1      10.515   2.825  -1.068  0.00  0.00    +0.000 N 
ATOM     27  C   UNL     1      10.415   1.472  -1.175  0.00  0.00    +0.000 A 
ATOM     28  O   UNL     1      10.222   0.756  -0.165  0.00  0.00    +0.000 OA
ATOM     29  C   UNL     1      10.513   0.939  -2.511  0.00  0.00    +0.000 A 
ATOM     30  H   UNL     1      10.434   3.223  -0.143  0.00  0.00    +0.000 HD
ENDBRANCH  17  20
ENDBRANCH  15  16
ENDBRANCH   3  15
BRANCH   6  31
ATOM     31  C   UNL     1       6.284  -1.225   4.510  0.00  0.00    +0.000 C 
BRANCH  31  32
ATOM     32  N   UNL     1       6.066  -2.350   5.388  0.00  0.00    +0.000 N 
ATOM     33  C   UNL     1       5.481  -2.243   6.622  0.00  0.00    +0.000 A 
ATOM     34  N   UNL     1       4.576  -1.308   6.960  0.00  0.00    +0.000 NA
ATOM     35  C   UNL     1       4.057  -1.407   8.211  0.00  0.00    +0.000 A 
ATOM     36  C   UNL     1       4.409  -2.383   9.120  0.00  0.00    +0.000 A 
ATOM     37 CL   UNL     1       3.741  -2.480  10.688  0.00  0.00    +0.000 Cl
ATOM     38  C   UNL     1       5.343  -3.281   8.675  0.00  0.00    +0.000 A 
ATOM     39  N   UNL     1       5.889  -3.218   7.450  0.00  0.00    +0.000 NA
ATOM     40  H   UNL     1       6.927  -2.851   5.588  0.00  0.00    +0.000 HD
ENDBRANCH  31  32
ENDBRANCH   6  31
TORSDOF 10
