REMARK  Name = 
REMARK  7 active torsions:
REMARK  status: ('A' for Active; 'I' for Inactive)
REMARK    1  A    between atoms: C_2  and  C_19
REMARK    2  A    between atoms: N_3  and  C_4
REMARK    3  A    between atoms: C_4  and  C_5
REMARK    4  A    between atoms: C_8  and  C_9
REMARK    5  A    between atoms: C_9  and  O_10
REMARK    6  A    between atoms: O_10  and  C_11
REMARK    7  A    between atoms: C_11  and  C_12
REMARK                            x       y       z     vdW  Elec       q    Type
REMARK                         _______ _______ _______ _____ _____    ______ ____
ROOT
ATOM      1  O   UNL     1       1.051  -0.165   0.054  0.00  0.00    +0.000 OA
ATOM      2  C   UNL     1       1.954  -0.853   0.524  0.00  0.00    +0.000 C 
ATOM      3  N   UNL     1       2.673  -1.732  -0.247  0.00  0.00    +0.000 N 
ATOM      4  H   UNL     1       3.262  -2.420   0.213  0.00  0.00    +0.000 HD
ENDROOT
BRANCH   2   5
ATOM      5  C   UNL     1       2.344  -0.750   1.935  0.00  0.00    +0.000 A 
ATOM      6  C   UNL     1       2.050   0.403   2.651  0.00  0.00    +0.000 A 
ATOM      7  S   UNL     1       2.597   0.359   4.266  0.00  0.00    +0.000 S 
ATOM      8  C   UNL     1       3.200  -1.221   4.077  0.00  0.00    +0.000 A 
ATOM      9  N   UNL     1       3.786  -1.876   5.116  0.00  0.00    +0.000 NA
ATOM     10  C   UNL     1       4.170  -3.079   4.841  0.00  0.00    +0.000 A 
ATOM     11  N   UNL     1       4.020  -3.686   3.620  0.00  0.00    +0.000 N 
ATOM     12  C   UNL     1       3.459  -3.054   2.536  0.00  0.00    +0.000 A 
ATOM     13  O   UNL     1       3.375  -3.611   1.446  0.00  0.00    +0.000 OA
ATOM     14  C   UNL     1       3.004  -1.702   2.796  0.00  0.00    +0.000 A 
ATOM     15  H   UNL     1       4.350  -4.628   3.465  0.00  0.00    +0.000 HD
ENDBRANCH   2   5
BRANCH   3  16
ATOM     16  C   UNL     1       2.281  -2.009  -1.604  0.00  0.00    +0.000 C 
BRANCH  16  17
ATOM     17  C   UNL     1       3.220  -2.972  -2.265  0.00  0.00    +0.000 A 
ATOM     18  C   UNL     1       3.016  -4.344  -2.172  0.00  0.00    +0.000 A 
ATOM     19  N   UNL     1       3.810  -5.273  -2.749  0.00  0.00    +0.000 NA
ATOM     20  C   UNL     1       4.878  -4.825  -3.454  0.00  0.00    +0.000 A 
ATOM     21  C   UNL     1       5.179  -3.471  -3.578  0.00  0.00    +0.000 A 
ATOM     22  C   UNL     1       4.345  -2.538  -2.968  0.00  0.00    +0.000 A 
BRANCH  20  23
ATOM     23  C   UNL     1       5.796  -5.867  -4.051  0.00  0.00    +0.000 C 
BRANCH  23  24
ATOM     24  O   UNL     1       7.142  -5.750  -3.576  0.00  0.00    +0.000 OA
BRANCH  24  25
ATOM     25  C   UNL     1       7.250  -6.036  -2.183  0.00  0.00    +0.000 C 
BRANCH  25  26
ATOM     26  C   UNL     1       8.687  -5.948  -1.750  0.00  0.00    +0.000 C 
ATOM     27  C   UNL     1       9.816  -6.286  -2.636  0.00  0.00    +0.000 C 
ATOM     28  C   UNL     1      10.961  -6.052  -1.815  0.00  0.00    +0.000 C 
ATOM     29  C   UNL     1      10.477  -5.651  -0.631  0.00  0.00    +0.000 C 
ATOM     30  N   UNL     1       9.096  -5.591  -0.555  0.00  0.00    +0.000 NA
ENDBRANCH  25  26
ENDBRANCH  24  25
ENDBRANCH  23  24
ENDBRANCH  20  23
ENDBRANCH  16  17
ENDBRANCH   3  16
TORSDOF 7
