REMARK  Name = 
REMARK  9 active torsions:
REMARK  status: ('A' for Active; 'I' for Inactive)
REMARK    1  A    between atoms: C_1  and  O_2
REMARK    2  A    between atoms: O_2  and  C_3
REMARK    3  A    between atoms: C_10  and  C_11
REMARK    4  A    between atoms: N_13  and  C_14
REMARK    5  A    between atoms: C_14  and  C_15
REMARK    6  A    between atoms: C_18  and  C_19
REMARK    7  A    between atoms: C_19  and  N_20
REMARK    8  A    between atoms: N_20  and  C_21
REMARK    9  A    between atoms: C_21  and  C_22
REMARK                            x       y       z     vdW  Elec       q    Type
REMARK                         _______ _______ _______ _____ _____    ______ ____
ROOT
ATOM      1  C   UNL     1       1.847  -2.154  -2.623  0.00  0.00    +0.000 A 
ATOM      2  C   UNL     1       1.898  -3.550  -2.520  0.00  0.00    +0.000 A 
ATOM      3  C   UNL     1       0.828  -4.265  -1.967  0.00  0.00    +0.000 A 
ATOM      4  C   UNL     1      -0.317  -3.598  -1.497  0.00  0.00    +0.000 A 
ATOM      5  C   UNL     1      -0.384  -2.210  -1.653  0.00  0.00    +0.000 A 
ATOM      6  C   UNL     1       0.676  -1.497  -2.227  0.00  0.00    +0.000 A 
ENDROOT
BRANCH   1   7
ATOM      7  C   UNL     1       3.027  -1.370  -3.140  0.00  0.00    +0.000 C 
BRANCH   7  10
ATOM      8  C   UNL     1       3.977  -0.559  -5.256  0.00  0.00    +0.000 C 
ATOM      9  O   UNL     1       4.933  -0.065  -4.671  0.00  0.00    +0.000 OA
ATOM     10  N   UNL     1       2.988  -1.222  -4.571  0.00  0.00    +0.000 N 
ATOM     11  H   UNL     1       2.150  -1.519  -5.053  0.00  0.00    +0.000 HD
BRANCH   8  19
ATOM     12  C   UNL     1       1.648  -1.743  -7.516  0.00  0.00    +0.000 A 
ATOM     13  N   UNL     1       0.960  -2.144  -8.606  0.00  0.00    +0.000 NA
ATOM     14  C   UNL     1       1.420  -1.809  -9.809  0.00  0.00    +0.000 A 
ATOM     15  N   UNL     1       2.513  -1.102 -10.071  0.00  0.00    +0.000 NA
ATOM     16  C   UNL     1       3.184  -0.738  -8.964  0.00  0.00    +0.000 A 
ATOM     17  S   UNL     1       4.603   0.180  -9.118  0.00  0.00    +0.000 S 
ATOM     18  C   UNL     1       4.826   0.205  -7.434  0.00  0.00    +0.000 A 
ATOM     19  C   UNL     1       3.845  -0.476  -6.722  0.00  0.00    +0.000 A 
ATOM     20  C   UNL     1       2.845  -1.019  -7.644  0.00  0.00    +0.000 A 
BRANCH  12  22
ATOM     21  C   UNL     1      -0.136  -2.720  -6.369  0.00  0.00    +0.000 C 
ATOM     22  O   UNL     1       1.113  -2.032  -6.276  0.00  0.00    +0.000 OA
ENDBRANCH  12  22
ENDBRANCH   8  19
ENDBRANCH   7  10
ENDBRANCH   1   7
BRANCH   4  23
ATOM     23  C   UNL     1      -1.451  -4.346  -0.822  0.00  0.00    +0.000 C 
BRANCH  23  24
ATOM     24  N   UNL     1      -0.979  -5.022   0.383  0.00  0.00    +0.000 NA
ATOM     25  H   UNL     1      -0.602  -4.319   1.019  0.00  0.00    +0.000 HD
BRANCH  24  26
ATOM     26  C   UNL     1      -2.039  -5.752   1.088  0.00  0.00    +0.000 C 
BRANCH  26  27
ATOM     27  C   UNL     1      -1.504  -6.422   2.336  0.00  0.00    +0.000 A 
ATOM     28  C   UNL     1      -0.189  -6.913   2.421  0.00  0.00    +0.000 A 
ATOM     29  C   UNL     1       0.288  -7.486   3.604  0.00  0.00    +0.000 A 
ATOM     30  C   UNL     1      -0.548  -7.603   4.712  0.00  0.00    +0.000 A 
ATOM     31  C   UNL     1      -1.867  -7.162   4.630  0.00  0.00    +0.000 A 
ATOM     32  C   UNL     1      -2.335  -6.588   3.449  0.00  0.00    +0.000 A 
ATOM     33  F   UNL     1      -3.609  -6.173   3.398  0.00  0.00    +0.000 F 
ENDBRANCH  26  27
ENDBRANCH  24  26
ENDBRANCH  23  24
ENDBRANCH   4  23
TORSDOF 8
