REMARK  Name = 
REMARK  8 active torsions:
REMARK  status: ('A' for Active; 'I' for Inactive)
REMARK    1  A    between atoms: C_1  and  C_2
REMARK    2  A    between atoms: C_2  and  N_3
REMARK    3  A    between atoms: C_2  and  C_16
REMARK    4  A    between atoms: C_4  and  C_6
REMARK    5  A    between atoms: C_19  and  C_20
REMARK    6  A    between atoms: C_20  and  N_21
REMARK    7  A    between atoms: N_21  and  C_22
REMARK    8  A    between atoms: C_22  and  C_23
REMARK                            x       y       z     vdW  Elec       q    Type
REMARK                         _______ _______ _______ _____ _____    ______ ____
ROOT
ATOM      1  C   UNL     1       2.689  -1.289   1.127  0.00  0.00    +0.000 C 
ATOM      2  C   UNL     1       2.445  -0.140   0.141  0.00  0.00    +0.000 C 
ENDROOT
BRANCH   2   3
ATOM      3  C   UNL     1       2.933  -0.439  -1.267  0.00  0.00    +0.000 A 
ATOM      4  C   UNL     1       3.440   0.607  -2.053  0.00  0.00    +0.000 A 
ATOM      5  C   UNL     1       3.936   0.365  -3.338  0.00  0.00    +0.000 A 
ATOM      6  C   UNL     1       3.935  -0.931  -3.872  0.00  0.00    +0.000 A 
ATOM      7  C   UNL     1       3.392  -1.970  -3.107  0.00  0.00    +0.000 A 
ATOM      8  C   UNL     1       2.888  -1.724  -1.826  0.00  0.00    +0.000 A 
BRANCH   6   9
ATOM      9  C   UNL     1       4.494  -1.202  -5.249  0.00  0.00    +0.000 C 
BRANCH   9  10
ATOM     10  N   UNL     1       5.901  -0.817  -5.328  0.00  0.00    +0.000 NA
ATOM     11  H   UNL     1       6.427  -1.347  -4.632  0.00  0.00    +0.000 HD
BRANCH  10  12
ATOM     12  C   UNL     1       6.460  -1.122  -6.651  0.00  0.00    +0.000 C 
BRANCH  12  13
ATOM     13  C   UNL     1       7.922  -0.731  -6.753  0.00  0.00    +0.000 A 
ATOM     14  C   UNL     1       8.306   0.595  -6.544  0.00  0.00    +0.000 A 
ATOM     15  C   UNL     1       9.655   0.929  -6.628  0.00  0.00    +0.000 A 
ATOM     16  C   UNL     1      10.581  -0.062  -6.924  0.00  0.00    +0.000 A 
ATOM     17  C   UNL     1      10.119  -1.353  -7.123  0.00  0.00    +0.000 A 
ATOM     18  N   UNL     1       8.818  -1.709  -7.044  0.00  0.00    +0.000 NA
ENDBRANCH  12  13
ENDBRANCH  10  12
ENDBRANCH   9  10
ENDBRANCH   6   9
ENDBRANCH   2   3
BRANCH   2  19
ATOM     19  N   UNL     1       1.041   0.230   0.115  0.00  0.00    +0.000 N 
ATOM     20  C   UNL     1       0.489   1.065   1.053  0.00  0.00    +0.000 C 
ATOM     21  O   UNL     1       1.173   1.573   1.938  0.00  0.00    +0.000 OA
ATOM     22  H   UNL     1       0.462  -0.211  -0.593  0.00  0.00    +0.000 HD
BRANCH  20  23
ATOM     23  C   UNL     1      -0.958   1.330   0.970  0.00  0.00    +0.000 A 
ATOM     24  C   UNL     1      -1.535   2.197   1.893  0.00  0.00    +0.000 A 
ATOM     25  S   UNL     1      -3.215   2.395   1.702  0.00  0.00    +0.000 S 
ATOM     26  C   UNL     1      -3.242   1.324   0.381  0.00  0.00    +0.000 A 
ATOM     27  N   UNL     1      -4.414   1.029  -0.244  0.00  0.00    +0.000 NA
ATOM     28  C   UNL     1      -4.300   0.203  -1.228  0.00  0.00    +0.000 A 
ATOM     29  N   UNL     1      -3.118  -0.345  -1.652  0.00  0.00    +0.000 N 
ATOM     30  C   UNL     1      -1.909  -0.074  -1.053  0.00  0.00    +0.000 A 
ATOM     31  O   UNL     1      -0.874  -0.588  -1.462  0.00  0.00    +0.000 OA
ATOM     32  C   UNL     1      -1.982   0.838   0.074  0.00  0.00    +0.000 A 
ATOM     33  H   UNL     1      -3.094  -0.981  -2.435  0.00  0.00    +0.000 HD
ENDBRANCH  20  23
ENDBRANCH   2  19
TORSDOF 7
