REMARK  Name = 
REMARK  3 active torsions:
REMARK  status: ('A' for Active; 'I' for Inactive)
REMARK    1  A    between atoms: C_2  and  C_4
REMARK    2  A    between atoms: C_7  and  C_8
REMARK    3  A    between atoms: C_8  and  C_9
REMARK                            x       y       z     vdW  Elec       q    Type
REMARK                         _______ _______ _______ _____ _____    ______ ____
ROOT
ATOM      1  C   UNL     1       3.145   0.490   0.997  0.00  0.00    +0.000 A 
ATOM      2  C   UNL     1       2.454   1.572   1.511  0.00  0.00    +0.000 A 
ATOM      3  N   UNL     1       3.066   2.535   2.252  0.00  0.00    +0.000 NA
ATOM      4  C   UNL     1       4.404   2.396   2.461  0.00  0.00    +0.000 A 
ATOM      5  C   UNL     1       5.073   1.287   1.926  0.00  0.00    +0.000 A 
ATOM      6  N   UNL     1       4.479   0.313   1.192  0.00  0.00    +0.000 NA
ENDROOT
BRANCH   1   8
ATOM      7  N   UNL     1       3.199  -1.604  -0.197  0.00  0.00    +0.000 N 
ATOM      8  C   UNL     1       2.431  -0.543   0.198  0.00  0.00    +0.000 C 
ATOM      9  O   UNL     1       1.244  -0.456  -0.086  0.00  0.00    +0.000 OA
ATOM     10  H   UNL     1       2.787  -2.348  -0.743  0.00  0.00    +0.000 HD
ATOM     11  H   UNL     1       4.178  -1.642   0.065  0.00  0.00    +0.000 HD
ENDBRANCH   1   8
BRANCH   4  12
ATOM     12  C   UNL     1       5.137   3.450   3.284  0.00  0.00    +0.000 C 
ATOM     13  C   UNL     1       5.925   2.992   4.507  0.00  0.00    +0.000 C 
ATOM     14  C   UNL     1       4.625   3.708   4.697  0.00  0.00    +0.000 C 
BRANCH  12  15
ATOM     15  C   UNL     1       5.667   4.670   2.531  0.00  0.00    +0.000 C 
ATOM     16  C   UNL     1       4.561   5.449   1.805  0.00  0.00    +0.000 C 
ATOM     17  C   UNL     1       5.123   6.764   1.270  0.00  0.00    +0.000 C 
ATOM     18  C   UNL     1       6.305   6.525   0.331  0.00  0.00    +0.000 C 
ATOM     19  C   UNL     1       7.376   5.623   0.946  0.00  0.00    +0.000 C 
ATOM     20  C   UNL     1       6.793   4.339   1.542  0.00  0.00    +0.000 C 
ENDBRANCH  12  15
ENDBRANCH   4  12
TORSDOF 3
