REMARK  Name = 
REMARK  7 active torsions:
REMARK  status: ('A' for Active; 'I' for Inactive)
REMARK    1  A    between atoms: C_1  and  C_2
REMARK    2  A    between atoms: C_2  and  C_3
REMARK    3  A    between atoms: C_2  and  C_4
REMARK    4  A    between atoms: C_2  and  C_15
REMARK    5  A    between atoms: C_5  and  C_6
REMARK    6  A    between atoms: C_9  and  C_10
REMARK    7  A    between atoms: C_20  and  C_21
REMARK                            x       y       z     vdW  Elec       q    Type
REMARK                         _______ _______ _______ _____ _____    ______ ____
ROOT
ATOM      1  C   UNL     1       0.865   0.112   0.024  0.00  0.00    +0.000 C 
ATOM      2  C   UNL     1       2.412   0.048   0.047  0.00  0.00    +0.000 C 
ATOM      3  C   UNL     1       2.911   1.507   0.180  0.00  0.00    +0.000 C 
ENDROOT
BRANCH   2   4
ATOM      4  C   UNL     1       2.880  -0.646  -1.252  0.00  0.00    +0.000 A 
ATOM      5  C   UNL     1       2.530  -1.985  -1.487  0.00  0.00    +0.000 A 
ATOM      6  C   UNL     1       2.897  -2.634  -2.668  0.00  0.00    +0.000 A 
ATOM      7  C   UNL     1       3.627  -1.965  -3.653  0.00  0.00    +0.000 A 
ATOM      8 CL   UNL     1       4.007  -2.868  -5.072  0.00  0.00    +0.000 Cl
ATOM      9  C   UNL     1       4.005  -0.634  -3.461  0.00  0.00    +0.000 A 
ATOM     10  C   UNL     1       3.629   0.004  -2.251  0.00  0.00    +0.000 A 
BRANCH   9  11
ATOM     11  C   UNL     1       4.773   0.190  -4.464  0.00  0.00    +0.000 C 
ATOM     12  F   UNL     1       5.125  -0.426  -5.622  0.00  0.00    +0.000 F 
ATOM     13  F   UNL     1       4.069   1.297  -4.845  0.00  0.00    +0.000 F 
ATOM     14  F   UNL     1       5.938   0.670  -3.940  0.00  0.00    +0.000 F 
ENDBRANCH   9  11
ENDBRANCH   2   4
BRANCH   2  15
ATOM     15  C   UNL     1       2.968  -0.703   1.261  0.00  0.00    +0.000 C 
ATOM     16  C   UNL     1       2.273  -1.291   2.254  0.00  0.00    +0.000 C 
BRANCH  16  17
ATOM     17  C   UNL     1       2.892  -1.972   3.403  0.00  0.00    +0.000 A 
ATOM     18  C   UNL     1       2.114  -2.552   4.409  0.00  0.00    +0.000 A 
ATOM     19  N   UNL     1       2.637  -3.168   5.503  0.00  0.00    +0.000 NA
ATOM     20  C   UNL     1       3.998  -3.182   5.546  0.00  0.00    +0.000 A 
ATOM     21  C   UNL     1       4.781  -2.618   4.550  0.00  0.00    +0.000 A 
ATOM     22  N   UNL     1       4.246  -2.004   3.463  0.00  0.00    +0.000 NA
BRANCH  20  23
ATOM     23  C   UNL     1       4.655  -3.817   6.723  0.00  0.00    +0.000 C 
ATOM     24  N   UNL     1       3.816  -4.328   7.675  0.00  0.00    +0.000 N 
ATOM     25  O   UNL     1       5.871  -3.872   6.840  0.00  0.00    +0.000 OA
ATOM     26  H   UNL     1       2.811  -4.260   7.562  0.00  0.00    +0.000 HD
ATOM     27  H   UNL     1       4.209  -4.751   8.503  0.00  0.00    +0.000 HD
ENDBRANCH  20  23
ENDBRANCH  16  17
ENDBRANCH   2  15
TORSDOF 5
