REMARK  Name = 
REMARK  7 active torsions:
REMARK  status: ('A' for Active; 'I' for Inactive)
REMARK    1  A    between atoms: C_2  and  C_3
REMARK    2  A    between atoms: C_6  and  N_7
REMARK    3  A    between atoms: N_7  and  C_8
REMARK    4  A    between atoms: C_8  and  C_9
REMARK    5  A    between atoms: C_9  and  C_12
REMARK    6  A    between atoms: C_16  and  O_17
REMARK    7  A    between atoms: O_17  and  C_18
REMARK                            x       y       z     vdW  Elec       q    Type
REMARK                         _______ _______ _______ _____ _____    ______ ____
ROOT
ATOM      1  C   UNL     1      10.140  -0.726  -0.023  0.00  0.00    +0.000 C 
ATOM      2  F   UNL     1      10.790   0.263   0.659  0.00  0.00    +0.000 F 
ATOM      3  F   UNL     1       8.942  -0.877   0.628  0.00  0.00    +0.000 F 
ENDROOT
BRANCH   1   4
ATOM      4  C   UNL     1      10.942  -2.017  -0.042  0.00  0.00    +0.000 A 
ATOM      5  C   UNL     1      10.299  -3.260  -0.048  0.00  0.00    +0.000 A 
ATOM      6  C   UNL     1      11.047  -4.438  -0.121  0.00  0.00    +0.000 A 
ATOM      7  C   UNL     1      12.445  -4.389  -0.165  0.00  0.00    +0.000 A 
ATOM      8  C   UNL     1      13.100  -3.160  -0.105  0.00  0.00    +0.000 A 
ATOM      9  C   UNL     1      12.347  -1.981  -0.066  0.00  0.00    +0.000 A 
BRANCH   8  10
ATOM     10  O   UNL     1      14.466  -2.995  -0.111  0.00  0.00    +0.000 OA
BRANCH  10  11
ATOM     11  C   UNL     1      15.304  -4.081   0.351  0.00  0.00    +0.000 C 
ATOM     12  C   UNL     1      15.243  -4.427   1.860  0.00  0.00    +0.000 C 
ATOM     13  C   UNL     1      16.774  -4.543   1.866  0.00  0.00    +0.000 C 
ATOM     14  C   UNL     1      16.799  -3.719   0.569  0.00  0.00    +0.000 C 
ENDBRANCH  10  11
ENDBRANCH   8  10
ENDBRANCH   1   4
BRANCH   1  15
ATOM     15  C   UNL     1       9.835  -0.226  -1.463  0.00  0.00    +0.000 C 
BRANCH  15  16
ATOM     16  N   UNL     1       9.020   1.005  -1.469  0.00  0.00    +0.000 N 
ATOM     17  H   UNL     1       8.211   0.968  -0.853  0.00  0.00    +0.000 HD
BRANCH  16  21
ATOM     18  C   UNL     1       8.268   2.737  -5.191  0.00  0.00    +0.000 A 
ATOM     19  C   UNL     1       8.932   1.530  -5.035  0.00  0.00    +0.000 A 
ATOM     20  N   UNL     1       9.158   0.936  -3.835  0.00  0.00    +0.000 NA
ATOM     21  C   UNL     1       8.698   1.549  -2.718  0.00  0.00    +0.000 A 
ATOM     22  C   UNL     1       7.993   2.763  -2.803  0.00  0.00    +0.000 A 
ATOM     23 CL   UNL     1       7.380   3.558  -1.394  0.00  0.00    +0.000 Cl
ATOM     24  C   UNL     1       7.784   3.364  -4.046  0.00  0.00    +0.000 A 
BRANCH  18  26
ATOM     25  N   UNL     1       7.967   3.783  -7.540  0.00  0.00    +0.000 NA
ATOM     26  C   UNL     1       8.099   3.315  -6.488  0.00  0.00    +0.000 C 
ENDBRANCH  18  26
ENDBRANCH  16  21
ENDBRANCH  15  16
ENDBRANCH   1  15
TORSDOF 7
