REMARK  Name = 
REMARK  5 active torsions:
REMARK  status: ('A' for Active; 'I' for Inactive)
REMARK    1  A    between atoms: C_2  and  C_4
REMARK    2  A    between atoms: C_7  and  N_8
REMARK    3  A    between atoms: N_8  and  C_9
REMARK    4  A    between atoms: C_9  and  C_10
REMARK    5  A    between atoms: C_14  and  C_15
REMARK                            x       y       z     vdW  Elec       q    Type
REMARK                         _______ _______ _______ _____ _____    ______ ____
ROOT
ATOM      1  C   UNL     1       4.902  -2.905  -5.368  0.00  0.00    +0.000 C 
ENDROOT
BRANCH   1   2
ATOM      2  C   UNL     1       5.736  -3.898  -6.136  0.00  0.00    +0.000 A 
ATOM      3  C   UNL     1       5.155  -5.043  -6.682  0.00  0.00    +0.000 A 
ATOM      4  C   UNL     1       5.944  -5.884  -7.443  0.00  0.00    +0.000 A 
ATOM      5  N   UNL     1       7.254  -5.668  -7.687  0.00  0.00    +0.000 NA
ATOM      6  C   UNL     1       7.833  -4.565  -7.147  0.00  0.00    +0.000 A 
ATOM      7  C   UNL     1       7.096  -3.662  -6.378  0.00  0.00    +0.000 A 
BRANCH   6   8
ATOM      8  C   UNL     1       9.271  -4.388  -7.439  0.00  0.00    +0.000 A 
ATOM      9  C   UNL     1       9.829  -4.880  -8.638  0.00  0.00    +0.000 A 
ATOM     10  C   UNL     1      11.188  -4.719  -8.937  0.00  0.00    +0.000 A 
ATOM     11  C   UNL     1      12.022  -4.069  -8.034  0.00  0.00    +0.000 A 
ATOM     12  C   UNL     1      11.491  -3.589  -6.845  0.00  0.00    +0.000 A 
ATOM     13  F   UNL     1      12.294  -2.971  -5.968  0.00  0.00    +0.000 F 
ATOM     14  C   UNL     1      10.140  -3.743  -6.543  0.00  0.00    +0.000 A 
ENDBRANCH   6   8
ENDBRANCH   1   2
BRANCH   1  15
ATOM     15  N   UNL     1       5.454  -2.677  -4.042  0.00  0.00    +0.000 N 
ATOM     16  H   UNL     1       5.789  -3.521  -3.581  0.00  0.00    +0.000 HD
BRANCH  15  20
ATOM     17  C   UNL     1       3.684   0.062  -1.354  0.00  0.00    +0.000 A 
ATOM     18  C   UNL     1       3.124  -0.118  -2.620  0.00  0.00    +0.000 A 
ATOM     19  C   UNL     1       3.692  -1.033  -3.513  0.00  0.00    +0.000 A 
ATOM     20  C   UNL     1       4.805  -1.809  -3.160  0.00  0.00    +0.000 A 
ATOM     21  C   UNL     1       5.368  -1.596  -1.894  0.00  0.00    +0.000 A 
ATOM     22  C   UNL     1       4.820  -0.668  -0.998  0.00  0.00    +0.000 A 
BRANCH  17  24
ATOM     23  N   UNL     1       1.787   1.311  -0.479  0.00  0.00    +0.000 N 
ATOM     24  C   UNL     1       3.125   1.043  -0.389  0.00  0.00    +0.000 C 
ATOM     25  O   UNL     1       3.818   1.569   0.472  0.00  0.00    +0.000 OA
ATOM     26  H   UNL     1       1.399   1.899   0.248  0.00  0.00    +0.000 HD
ATOM     27  H   UNL     1       1.151   0.722  -0.996  0.00  0.00    +0.000 HD
ENDBRANCH  17  24
ENDBRANCH  15  20
ENDBRANCH   1  15
TORSDOF 5
