REMARK  Name = 
REMARK  6 active torsions:
REMARK  status: ('A' for Active; 'I' for Inactive)
REMARK    1  A    between atoms: C_2  and  C_25
REMARK    2  A    between atoms: N_3  and  C_4
REMARK    3  A    between atoms: C_4  and  C_5
REMARK    4  A    between atoms: C_8  and  C_9
REMARK    5  A    between atoms: C_9  and  N_10
REMARK    6  A    between atoms: C_11  and  C_13
REMARK                            x       y       z     vdW  Elec       q    Type
REMARK                         _______ _______ _______ _____ _____    ______ ____
ROOT
ATOM      1  C   UNL     1       3.299  -3.411   1.322  0.00  0.00    +0.000 A 
ATOM      2  C   UNL     1       4.476  -3.082   2.006  0.00  0.00    +0.000 A 
ATOM      3  C   UNL     1       5.341  -4.086   2.454  0.00  0.00    +0.000 A 
ATOM      4  C   UNL     1       5.054  -5.435   2.209  0.00  0.00    +0.000 A 
ATOM      5  C   UNL     1       3.874  -5.762   1.528  0.00  0.00    +0.000 A 
ATOM      6  C   UNL     1       3.010  -4.760   1.080  0.00  0.00    +0.000 A 
ENDROOT
BRANCH   1   7
ATOM      7  C   UNL     1       2.351  -2.333   0.866  0.00  0.00    +0.000 C 
BRANCH   7  10
ATOM      8  O   UNL     1       0.892  -0.391  -0.500  0.00  0.00    +0.000 OA
ATOM      9  C   UNL     1       1.908  -0.841  -1.024  0.00  0.00    +0.000 C 
ATOM     10  N   UNL     1       2.693  -1.799  -0.426  0.00  0.00    +0.000 N 
ATOM     11  H   UNL     1       3.530  -2.098  -0.919  0.00  0.00    +0.000 HD
BRANCH   9  12
ATOM     12  C   UNL     1       2.381  -0.400  -2.321  0.00  0.00    +0.000 A 
ATOM     13  N   UNL     1       3.441  -0.875  -2.957  0.00  0.00    +0.000 NA
ATOM     14  C   UNL     1       3.495  -0.181  -4.141  0.00  0.00    +0.000 A 
ATOM     15  C   UNL     1       2.473   0.735  -4.223  0.00  0.00    +0.000 A 
ATOM     16  N   UNL     1       1.771   0.584  -3.061  0.00  0.00    +0.000 N 
ATOM     17  H   UNL     1       0.945   1.089  -2.767  0.00  0.00    +0.000 HD
ENDBRANCH   9  12
ENDBRANCH   7  10
ENDBRANCH   1   7
BRANCH   4  18
ATOM     18  C   UNL     1       5.978  -6.524   2.685  0.00  0.00    +0.000 C 
BRANCH  18  19
ATOM     19  N   UNL     1       5.649  -6.954   4.021  0.00  0.00    +0.000 N 
ATOM     20  C   UNL     1       4.902  -8.074   4.276  0.00  0.00    +0.000 C 
ATOM     21  O   UNL     1       4.462  -8.788   3.378  0.00  0.00    +0.000 OA
ATOM     22  H   UNL     1       5.831  -6.292   4.768  0.00  0.00    +0.000 HD
BRANCH  20  23
ATOM     23  C   UNL     1       4.710  -8.426   5.690  0.00  0.00    +0.000 A 
ATOM     24  C   UNL     1       4.373  -9.730   6.029  0.00  0.00    +0.000 A 
ATOM     25  S   UNL     1       4.231  -9.990   7.707  0.00  0.00    +0.000 S 
ATOM     26  C   UNL     1       4.570  -8.357   8.043  0.00  0.00    +0.000 A 
ATOM     27  N   UNL     1       4.581  -7.896   9.322  0.00  0.00    +0.000 NA
ATOM     28  C   UNL     1       4.815  -6.631   9.432  0.00  0.00    +0.000 A 
ATOM     29  N   UNL     1       5.052  -5.788   8.378  0.00  0.00    +0.000 N 
ATOM     30  C   UNL     1       5.115  -6.221   7.076  0.00  0.00    +0.000 A 
ATOM     31  O   UNL     1       5.440  -5.459   6.170  0.00  0.00    +0.000 OA
ATOM     32  C   UNL     1       4.814  -7.628   6.891  0.00  0.00    +0.000 A 
ATOM     33  H   UNL     1       5.255  -4.811   8.534  0.00  0.00    +0.000 HD
ENDBRANCH  20  23
ENDBRANCH  18  19
ENDBRANCH   4  18
TORSDOF 6
