REMARK  Name = 
REMARK  7 active torsions:
REMARK  status: ('A' for Active; 'I' for Inactive)
REMARK    1  A    between atoms: N_1  and  C_2
REMARK    2  A    between atoms: C_2  and  N_3
REMARK    3  A    between atoms: C_2  and  C_16
REMARK    4  A    between atoms: C_4  and  C_6
REMARK    5  A    between atoms: C_19  and  C_20
REMARK    6  A    between atoms: C_20  and  N_21
REMARK    7  A    between atoms: C_22  and  C_24
REMARK                            x       y       z     vdW  Elec       q    Type
REMARK                         _______ _______ _______ _____ _____    ______ ____
ROOT
ATOM      1  C   UNL     1       2.419  -0.119  -0.091  0.00  0.00    +0.000 C 
ENDROOT
BRANCH   1   2
ATOM      2  C   UNL     1       2.808   1.289   0.328  0.00  0.00    +0.000 A 
ATOM      3  C   UNL     1       2.391   2.398  -0.422  0.00  0.00    +0.000 A 
ATOM      4  C   UNL     1       2.712   3.700  -0.016  0.00  0.00    +0.000 A 
ATOM      5  C   UNL     1       3.471   3.925   1.141  0.00  0.00    +0.000 A 
ATOM      6  C   UNL     1       3.899   2.821   1.887  0.00  0.00    +0.000 A 
ATOM      7  C   UNL     1       3.576   1.522   1.484  0.00  0.00    +0.000 A 
BRANCH   5   8
ATOM      8  C   UNL     1       3.832   5.320   1.579  0.00  0.00    +0.000 C 
BRANCH   8   9
ATOM      9  N   UNL     1       2.847   5.898   2.459  0.00  0.00    +0.000 N 
ATOM     10  C   UNL     1       3.009   7.161   2.986  0.00  0.00    +0.000 C 
ATOM     11  O   UNL     1       3.985   7.867   2.746  0.00  0.00    +0.000 OA
ATOM     12  H   UNL     1       2.127   5.324   2.889  0.00  0.00    +0.000 HD
BRANCH  10  13
ATOM     13  C   UNL     1       1.848   7.646   3.866  0.00  0.00    +0.000 C 
ATOM     14  C   UNL     1       2.268   7.955   5.290  0.00  0.00    +0.000 C 
ATOM     15  C   UNL     1       0.948   7.939   6.036  0.00  0.00    +0.000 C 
ATOM     16  C   UNL     1       0.083   6.944   5.274  0.00  0.00    +0.000 C 
ATOM     17  N   UNL     1       0.802   6.605   4.041  0.00  0.00    +0.000 NA
ATOM     18  H   UNL     1       0.167   6.640   3.242  0.00  0.00    +0.000 HD
ENDBRANCH  10  13
ENDBRANCH   8   9
ENDBRANCH   5   8
ENDBRANCH   1   2
BRANCH   1  19
ATOM     19  N   UNL     1       1.748  -0.795   0.983  0.00  0.00    +0.000 N 
ATOM     20  C   UNL     1       1.239  -2.064   0.867  0.00  0.00    +0.000 C 
ATOM     21  O   UNL     1       1.405  -2.751  -0.138  0.00  0.00    +0.000 OA
ATOM     22  H   UNL     1       1.270  -0.176   1.630  0.00  0.00    +0.000 HD
BRANCH  20  23
ATOM     23  C   UNL     1       0.595  -2.615   2.064  0.00  0.00    +0.000 A 
ATOM     24  C   UNL     1       0.634  -3.982   2.297  0.00  0.00    +0.000 A 
ATOM     25  S   UNL     1      -0.124  -4.449   3.752  0.00  0.00    +0.000 S 
ATOM     26  C   UNL     1      -0.570  -2.843   4.098  0.00  0.00    +0.000 A 
ATOM     27  N   UNL     1      -1.292  -2.537   5.206  0.00  0.00    +0.000 NA
ATOM     28  C   UNL     1      -1.583  -1.282   5.327  0.00  0.00    +0.000 A 
ATOM     29  N   UNL     1      -1.202  -0.306   4.443  0.00  0.00    +0.000 N 
ATOM     30  C   UNL     1      -0.447  -0.565   3.326  0.00  0.00    +0.000 A 
ATOM     31  O   UNL     1      -0.080   0.332   2.569  0.00  0.00    +0.000 OA
ATOM     32  C   UNL     1      -0.117  -1.962   3.131  0.00  0.00    +0.000 A 
ATOM     33  H   UNL     1      -1.449   0.659   4.603  0.00  0.00    +0.000 HD
ENDBRANCH  20  23
ENDBRANCH   1  19
BRANCH   1  34
ATOM     34  N   UNL     1       3.594  -0.905  -0.404  0.00  0.00    +0.000 NA
ATOM     35  H   UNL     1       3.250  -1.831  -0.675  0.00  0.00    +0.000 HD
ATOM     36  H   UNL     1       4.103  -1.060   0.460  0.00  0.00    +0.000 HD
ENDBRANCH   1  34
TORSDOF 7
