REMARK  Name = 
REMARK  7 active torsions:
REMARK  status: ('A' for Active; 'I' for Inactive)
REMARK    1  A    between atoms: N_1  and  C_2
REMARK    2  A    between atoms: C_2  and  C_3
REMARK    3  A    between atoms: C_3  and  N_4
REMARK    4  A    between atoms: C_3  and  C_17
REMARK    5  A    between atoms: C_5  and  C_7
REMARK    6  A    between atoms: C_20  and  O_21
REMARK    7  A    between atoms: O_21  and  C_22
REMARK                            x       y       z     vdW  Elec       q    Type
REMARK                         _______ _______ _______ _____ _____    ______ ____
ROOT
ATOM      1  C   UNL     1       2.799   1.204   0.280  0.00  0.00    +0.000 C 
ENDROOT
BRANCH   1   2
ATOM      2  C   UNL     1       4.328   1.279   0.305  0.00  0.00    +0.000 A 
ATOM      3  C   UNL     1       4.996   2.152  -0.567  0.00  0.00    +0.000 A 
ATOM      4  C   UNL     1       6.393   2.236  -0.569  0.00  0.00    +0.000 A 
ATOM      5  C   UNL     1       7.151   1.484   0.331  0.00  0.00    +0.000 A 
ATOM      6  C   UNL     1       6.500   0.591   1.184  0.00  0.00    +0.000 A 
ATOM      7  C   UNL     1       5.101   0.492   1.176  0.00  0.00    +0.000 A 
BRANCH   5   8
ATOM      8  O   UNL     1       8.528   1.510   0.383  0.00  0.00    +0.000 OA
BRANCH   8   9
ATOM      9  C   UNL     1       9.175   2.729   0.199  0.00  0.00    +0.000 A 
ATOM     10  C   UNL     1      10.493   2.682  -0.231  0.00  0.00    +0.000 A 
ATOM     11  C   UNL     1      11.161   3.886  -0.450  0.00  0.00    +0.000 A 
ATOM     12  C   UNL     1      10.491   5.086  -0.231  0.00  0.00    +0.000 A 
ATOM     13  C   UNL     1       9.186   5.034   0.223  0.00  0.00    +0.000 A 
ATOM     14  N   UNL     1       8.522   3.885   0.461  0.00  0.00    +0.000 NA
ENDBRANCH   8   9
ENDBRANCH   5   8
ENDBRANCH   1   2
BRANCH   1  15
ATOM     15  N   UNL     1       2.270   1.667   1.560  0.00  0.00    +0.000 N 
ATOM     16  C   UNL     1       0.929   1.868   1.770  0.00  0.00    +0.000 C 
ATOM     17  O   UNL     1       0.068   1.567   0.949  0.00  0.00    +0.000 OA
ATOM     18  H   UNL     1       2.930   2.157   2.158  0.00  0.00    +0.000 HD
BRANCH  16  19
ATOM     19  C   UNL     1       0.554   2.436   3.069  0.00  0.00    +0.000 A 
ATOM     20  C   UNL     1      -0.663   2.108   3.653  0.00  0.00    +0.000 A 
ATOM     21  S   UNL     1      -0.947   2.921   5.126  0.00  0.00    +0.000 S 
ATOM     22  C   UNL     1       0.527   3.765   5.009  0.00  0.00    +0.000 A 
ATOM     23  N   UNL     1       0.879   4.701   5.931  0.00  0.00    +0.000 NA
ATOM     24  C   UNL     1       2.005   5.290   5.685  0.00  0.00    +0.000 A 
ATOM     25  N   UNL     1       2.819   5.009   4.621  0.00  0.00    +0.000 N 
ATOM     26  C   UNL     1       2.540   4.023   3.708  0.00  0.00    +0.000 A 
ATOM     27  O   UNL     1       3.344   3.702   2.842  0.00  0.00    +0.000 OA
ATOM     28  C   UNL     1       1.252   3.384   3.896  0.00  0.00    +0.000 A 
ATOM     29  H   UNL     1       3.713   5.472   4.510  0.00  0.00    +0.000 HD
ENDBRANCH  16  19
ENDBRANCH   1  15
BRANCH   1  30
ATOM     30  C   UNL     1       2.287  -0.227  -0.067  0.00  0.00    +0.000 C 
BRANCH  30  31
ATOM     31  N   UNL     1       2.784  -0.776  -1.335  0.00  0.00    +0.000 NA
ATOM     32  H   UNL     1       2.586  -1.776  -1.352  0.00  0.00    +0.000 HD
ATOM     33  H   UNL     1       3.798  -0.682  -1.373  0.00  0.00    +0.000 HD
ENDBRANCH  30  31
ENDBRANCH   1  30
TORSDOF 7
