REMARK  Name = 
REMARK  8 active torsions:
REMARK  status: ('A' for Active; 'I' for Inactive)
REMARK    1  A    between atoms: C_1  and  C_2
REMARK    2  A    between atoms: C_2  and  N_3
REMARK    3  A    between atoms: C_2  and  C_25
REMARK    4  A    between atoms: N_3  and  C_4
REMARK    5  A    between atoms: C_4  and  C_5
REMARK    6  A    between atoms: C_8  and  C_9
REMARK    7  A    between atoms: C_9  and  N_10
REMARK    8  A    between atoms: C_11  and  C_13
REMARK                            x       y       z     vdW  Elec       q    Type
REMARK                         _______ _______ _______ _____ _____    ______ ____
ROOT
ATOM      1  C   UNL     1      -0.962  -1.013  -0.819  0.00  0.00    +0.000 A 
ATOM      2  C   UNL     1      -1.576  -1.903  -1.702  0.00  0.00    +0.000 A 
ATOM      3  C   UNL     1      -2.955  -2.107  -1.639  0.00  0.00    +0.000 A 
ATOM      4  C   UNL     1      -3.704  -1.398  -0.701  0.00  0.00    +0.000 A 
ATOM      5  N   UNL     1      -3.134  -0.516   0.158  0.00  0.00    +0.000 NA
ATOM      6  C   UNL     1      -1.792  -0.344   0.076  0.00  0.00    +0.000 A 
ENDROOT
BRANCH   1   7
ATOM      7  C   UNL     1       0.537  -0.869  -0.734  0.00  0.00    +0.000 C 
BRANCH   7   8
ATOM      8  N   UNL     1       1.155  -0.553  -2.023  0.00  0.00    +0.000 NA
ATOM      9  H   UNL     1       0.877   0.397  -2.282  0.00  0.00    +0.000 HD
BRANCH   8  11
ATOM     10  C   UNL     1       3.203  -0.292  -3.326  0.00  0.00    +0.000 C 
ATOM     11  C   UNL     1       2.642  -0.554  -1.925  0.00  0.00    +0.000 C 
BRANCH  11  12
ATOM     12  C   UNL     1       3.243   0.482  -0.969  0.00  0.00    +0.000 A 
ATOM     13  N   UNL     1       4.375   0.154  -0.311  0.00  0.00    +0.000 NA
ATOM     14  C   UNL     1       4.910   1.107   0.477  0.00  0.00    +0.000 A 
ATOM     15  C   UNL     1       4.362   2.357   0.638  0.00  0.00    +0.000 A 
ATOM     16  C   UNL     1       3.201   2.589  -0.061  0.00  0.00    +0.000 A 
ATOM     17  N   UNL     1       2.625   1.681  -0.870  0.00  0.00    +0.000 NA
ENDBRANCH  11  12
ENDBRANCH   8  11
ENDBRANCH   7   8
ENDBRANCH   1   7
BRANCH   4  18
ATOM     18  C   UNL     1      -5.188  -1.652  -0.559  0.00  0.00    +0.000 C 
BRANCH  18  19
ATOM     19  N   UNL     1      -5.453  -2.709   0.397  0.00  0.00    +0.000 N 
ATOM     20  C   UNL     1      -6.553  -3.518   0.299  0.00  0.00    +0.000 C 
ATOM     21  O   UNL     1      -7.345  -3.437  -0.637  0.00  0.00    +0.000 OA
ATOM     22  H   UNL     1      -4.974  -2.618   1.288  0.00  0.00    +0.000 HD
BRANCH  20  23
ATOM     23  C   UNL     1      -6.697  -4.553   1.330  0.00  0.00    +0.000 A 
ATOM     24  C   UNL     1      -7.395  -5.718   1.043  0.00  0.00    +0.000 A 
ATOM     25  S   UNL     1      -7.430  -6.832   2.335  0.00  0.00    +0.000 S 
ATOM     26  C   UNL     1      -6.552  -5.773   3.339  0.00  0.00    +0.000 A 
ATOM     27  N   UNL     1      -6.256  -6.113   4.624  0.00  0.00    +0.000 NA
ATOM     28  C   UNL     1      -5.616  -5.204   5.280  0.00  0.00    +0.000 A 
ATOM     29  N   UNL     1      -5.231  -3.992   4.764  0.00  0.00    +0.000 N 
ATOM     30  C   UNL     1      -5.474  -3.620   3.463  0.00  0.00    +0.000 A 
ATOM     31  O   UNL     1      -5.069  -2.556   3.014  0.00  0.00    +0.000 OA
ATOM     32  C   UNL     1      -6.216  -4.599   2.689  0.00  0.00    +0.000 A 
ATOM     33  H   UNL     1      -4.714  -3.332   5.325  0.00  0.00    +0.000 HD
ENDBRANCH  20  23
ENDBRANCH  18  19
ENDBRANCH   4  18
TORSDOF 7
