REMARK  Name = 
REMARK  5 active torsions:
REMARK  status: ('A' for Active; 'I' for Inactive)
REMARK    1  A    between atoms: N_1  and  C_2
REMARK    2  A    between atoms: C_2  and  C_3
REMARK    3  A    between atoms: C_6  and  O_7
REMARK    4  A    between atoms: O_7  and  C_8
REMARK    5  A    between atoms: C_8  and  C_9
REMARK                            x       y       z     vdW  Elec       q    Type
REMARK                         _______ _______ _______ _____ _____    ______ ____
ROOT
ATOM      1  C   UNL     1       2.384  -0.513   1.435  0.00  0.00    +0.000 A 
ATOM      2  C   UNL     1       2.984   0.168   2.505  0.00  0.00    +0.000 A 
ATOM      3  C   UNL     1       3.443  -0.527   3.633  0.00  0.00    +0.000 A 
ATOM      4  C   UNL     1       3.303  -1.911   3.706  0.00  0.00    +0.000 A 
ATOM      5  C   UNL     1       2.736  -2.596   2.626  0.00  0.00    +0.000 A 
ATOM      6  C   UNL     1       2.279  -1.906   1.503  0.00  0.00    +0.000 A 
ENDROOT
BRANCH   1   7
ATOM      7  C   UNL     1       1.817   0.244   0.260  0.00  0.00    +0.000 C 
BRANCH   7   8
ATOM      8  N   UNL     1       2.816   1.083  -0.390  0.00  0.00    +0.000 NA
ATOM      9  H   UNL     1       2.425   1.452  -1.254  0.00  0.00    +0.000 HD
ATOM     10  H   UNL     1       3.607   0.499  -0.659  0.00  0.00    +0.000 HD
ENDBRANCH   7   8
ENDBRANCH   1   7
BRANCH   4  11
ATOM     11  O   UNL     1       3.673  -2.708   4.754  0.00  0.00    +0.000 OA
BRANCH  11  12
ATOM     12  C   UNL     1       4.150  -2.062   5.938  0.00  0.00    +0.000 C 
BRANCH  12  13
ATOM     13  C   UNL     1       4.431  -3.141   7.000  0.00  0.00    +0.000 C 
ATOM     14  C   UNL     1       3.166  -3.913   7.420  0.00  0.00    +0.000 C 
ATOM     15  C   UNL     1       2.270  -3.106   8.358  0.00  0.00    +0.000 C 
ATOM     16  C   UNL     1       3.055  -2.457   9.496  0.00  0.00    +0.000 C 
ATOM     17  N   UNL     1       4.202  -1.690   9.005  0.00  0.00    +0.000 NA
ATOM     18  C   UNL     1       5.111  -2.543   8.238  0.00  0.00    +0.000 C 
ATOM     19  H   UNL     1       4.704  -1.300   9.804  0.00  0.00    +0.000 HD
ENDBRANCH  12  13
ENDBRANCH  11  12
ENDBRANCH   4  11
TORSDOF 5
