REMARK  Name = 
REMARK  7 active torsions:
REMARK  status: ('A' for Active; 'I' for Inactive)
REMARK    1  A    between atoms: C_2  and  C_4
REMARK    2  A    between atoms: C_7  and  N_8
REMARK    3  A    between atoms: N_8  and  C_9
REMARK    4  A    between atoms: C_9  and  C_10
REMARK    5  A    between atoms: C_10  and  C_13
REMARK    6  A    between atoms: C_17  and  O_18
REMARK    7  A    between atoms: O_18  and  C_19
REMARK                            x       y       z     vdW  Elec       q    Type
REMARK                         _______ _______ _______ _____ _____    ______ ____
ROOT
ATOM      1  C   UNL     1       5.295   5.426  -5.324  0.00  0.00    +0.000 C 
ATOM      2  F   UNL     1       6.634   5.481  -5.067  0.00  0.00    +0.000 F 
ATOM      3  F   UNL     1       5.167   4.615  -6.417  0.00  0.00    +0.000 F 
ENDROOT
BRANCH   1   4
ATOM      4  C   UNL     1       4.694   6.801  -5.548  0.00  0.00    +0.000 A 
ATOM      5  C   UNL     1       3.596   6.976  -6.401  0.00  0.00    +0.000 A 
ATOM      6  C   UNL     1       2.975   8.223  -6.503  0.00  0.00    +0.000 A 
ATOM      7  C   UNL     1       3.444   9.310  -5.760  0.00  0.00    +0.000 A 
ATOM      8  C   UNL     1       4.548   9.152  -4.926  0.00  0.00    +0.000 A 
ATOM      9  C   UNL     1       5.166   7.905  -4.820  0.00  0.00    +0.000 A 
BRANCH   8  10
ATOM     10  O   UNL     1       5.075  10.128  -4.120  0.00  0.00    +0.000 OA
BRANCH  10  11
ATOM     11  C   UNL     1       4.838  11.516  -4.444  0.00  0.00    +0.000 C 
ATOM     12  C   UNL     1       5.530  12.098  -5.697  0.00  0.00    +0.000 C 
ATOM     13  N   UNL     1       5.934  13.285  -4.914  0.00  0.00    +0.000 NA
ATOM     14  C   UNL     1       5.729  12.515  -3.671  0.00  0.00    +0.000 C 
ATOM     15  H   UNL     1       5.300  14.079  -5.011  0.00  0.00    +0.000 HD
ENDBRANCH  10  11
ENDBRANCH   8  10
ENDBRANCH   1   4
BRANCH   1  16
ATOM     16  C   UNL     1       4.566   4.757  -4.131  0.00  0.00    +0.000 C 
BRANCH  16  17
ATOM     17  N   UNL     1       5.053   3.409  -3.792  0.00  0.00    +0.000 N 
ATOM     18  H   UNL     1       5.308   2.836  -4.595  0.00  0.00    +0.000 HD
BRANCH  17  22
ATOM     19  C   UNL     1       3.424   1.234  -0.560  0.00  0.00    +0.000 A 
ATOM     20  C   UNL     1       2.934   2.508  -0.849  0.00  0.00    +0.000 A 
ATOM     21  C   UNL     1       3.453   3.230  -1.928  0.00  0.00    +0.000 A 
ATOM     22  C   UNL     1       4.449   2.695  -2.756  0.00  0.00    +0.000 A 
ATOM     23  C   UNL     1       4.951   1.427  -2.432  0.00  0.00    +0.000 A 
ATOM     24  C   UNL     1       4.451   0.702  -1.343  0.00  0.00    +0.000 A 
BRANCH  19  26
ATOM     25  N   UNL     1       1.615   0.681   0.973  0.00  0.00    +0.000 N 
ATOM     26  C   UNL     1       2.908   0.446   0.590  0.00  0.00    +0.000 C 
ATOM     27  O   UNL     1       3.589  -0.403   1.146  0.00  0.00    +0.000 OA
ATOM     28  H   UNL     1       1.243   0.061   1.681  0.00  0.00    +0.000 HD
ATOM     29  H   UNL     1       0.958   1.171   0.386  0.00  0.00    +0.000 HD
ENDBRANCH  19  26
ENDBRANCH  17  22
ENDBRANCH  16  17
ENDBRANCH   1  16
TORSDOF 7
