REMARK  Name = 
REMARK  4 active torsions:
REMARK  status: ('A' for Active; 'I' for Inactive)
REMARK    1  A    between atoms: N_1  and  C_2
REMARK    2  A    between atoms: C_2  and  C_3
REMARK    3  A    between atoms: C_6  and  C_7
REMARK    4  A    between atoms: C_7  and  N_8
REMARK                            x       y       z     vdW  Elec       q    Type
REMARK                         _______ _______ _______ _____ _____    ______ ____
ROOT
ATOM      1  C   UNL     1       3.035  -1.111  -0.788  0.00  0.00    +0.000 A 
ATOM      2  C   UNL     1       2.330  -1.404  -1.963  0.00  0.00    +0.000 A 
ATOM      3  C   UNL     1       2.708  -2.475  -2.777  0.00  0.00    +0.000 A 
ATOM      4  C   UNL     1       3.802  -3.281  -2.434  0.00  0.00    +0.000 A 
ATOM      5  C   UNL     1       4.514  -2.982  -1.264  0.00  0.00    +0.000 A 
ATOM      6  C   UNL     1       4.134  -1.911  -0.449  0.00  0.00    +0.000 A 
ENDROOT
BRANCH   1   7
ATOM      7  C   UNL     1       2.633   0.058   0.076  0.00  0.00    +0.000 C 
BRANCH   7   8
ATOM      8  N   UNL     1       1.269  -0.080   0.575  0.00  0.00    +0.000 NA
ATOM      9  H   UNL     1       1.066   0.693   1.205  0.00  0.00    +0.000 HD
ATOM     10  H   UNL     1       1.210  -0.931   1.132  0.00  0.00    +0.000 HD
ENDBRANCH   7   8
ENDBRANCH   1   7
BRANCH   4  11
ATOM     11  C   UNL     1       4.196  -4.455  -3.293  0.00  0.00    +0.000 C 
BRANCH  11  12
ATOM     12  N   UNL     1       5.174  -4.101  -4.315  0.00  0.00    +0.000 N 
ATOM     13  C   UNL     1       6.538  -4.143  -4.129  0.00  0.00    +0.000 A 
ATOM     14  C   UNL     1       7.144  -3.874  -5.336  0.00  0.00    +0.000 A 
ATOM     15  C   UNL     1       6.120  -3.675  -6.289  0.00  0.00    +0.000 A 
ATOM     16  N   UNL     1       6.238  -3.410  -7.613  0.00  0.00    +0.000 NA
ATOM     17  C   UNL     1       5.068  -3.282  -8.270  0.00  0.00    +0.000 A 
ATOM     18  C   UNL     1       3.807  -3.396  -7.704  0.00  0.00    +0.000 A 
ATOM     19  C   UNL     1       3.694  -3.671  -6.344  0.00  0.00    +0.000 A 
ATOM     20  C   UNL     1       4.893  -3.813  -5.637  0.00  0.00    +0.000 A 
ENDBRANCH  11  12
ENDBRANCH   4  11
TORSDOF 4
