REMARK  Name = 
REMARK  6 active torsions:
REMARK  status: ('A' for Active; 'I' for Inactive)
REMARK    1  A    between atoms: C_2  and  C_25
REMARK    2  A    between atoms: N_3  and  C_4
REMARK    3  A    between atoms: C_4  and  C_5
REMARK    4  A    between atoms: C_8  and  C_9
REMARK    5  A    between atoms: C_9  and  N_10
REMARK    6  A    between atoms: C_11  and  C_13
REMARK                            x       y       z     vdW  Elec       q    Type
REMARK                         _______ _______ _______ _____ _____    ______ ____
ROOT
ATOM      1  C   UNL     1       3.291   3.521   0.630  0.00  0.00    +0.000 A 
ATOM      2  C   UNL     1       2.851   4.825   0.367  0.00  0.00    +0.000 A 
ATOM      3  C   UNL     1       3.697   5.920   0.580  0.00  0.00    +0.000 A 
ATOM      4  C   UNL     1       5.007   5.732   1.040  0.00  0.00    +0.000 A 
ATOM      5  C   UNL     1       5.444   4.428   1.307  0.00  0.00    +0.000 A 
ATOM      6  C   UNL     1       4.600   3.333   1.093  0.00  0.00    +0.000 A 
ENDROOT
BRANCH   1   7
ATOM      7  C   UNL     1       2.370   2.347   0.427  0.00  0.00    +0.000 C 
BRANCH   7  10
ATOM      8  O   UNL     1       0.880   0.219  -0.476  0.00  0.00    +0.000 OA
ATOM      9  C   UNL     1       1.616   0.772  -1.292  0.00  0.00    +0.000 C 
ATOM     10  N   UNL     1       2.399   1.848  -0.926  0.00  0.00    +0.000 N 
ATOM     11  H   UNL     1       2.961   2.320  -1.623  0.00  0.00    +0.000 HD
BRANCH   9  12
ATOM     12  C   UNL     1       1.702   0.343  -2.672  0.00  0.00    +0.000 A 
ATOM     13  C   UNL     1       0.947  -0.642  -3.285  0.00  0.00    +0.000 A 
ATOM     14  N   UNL     1       1.230  -0.885  -4.617  0.00  0.00    +0.000 NA
ATOM     15  C   UNL     1       2.200  -0.086  -5.000  0.00  0.00    +0.000 A 
ATOM     16  S   UNL     1       2.807   0.993  -3.812  0.00  0.00    +0.000 S 
ENDBRANCH   9  12
ENDBRANCH   7  10
ENDBRANCH   1   7
BRANCH   4  17
ATOM     17  C   UNL     1       5.924   6.906   1.266  0.00  0.00    +0.000 C 
BRANCH  17  18
ATOM     18  N   UNL     1       5.833   7.406   2.616  0.00  0.00    +0.000 N 
ATOM     19  C   UNL     1       6.526   8.530   2.997  0.00  0.00    +0.000 C 
ATOM     20  O   UNL     1       7.204   9.172   2.198  0.00  0.00    +0.000 OA
ATOM     21  H   UNL     1       5.474   6.773   3.325  0.00  0.00    +0.000 HD
BRANCH  19  22
ATOM     22  C   UNL     1       6.371   8.965   4.390  0.00  0.00    +0.000 A 
ATOM     23  C   UNL     1       6.628  10.287   4.726  0.00  0.00    +0.000 A 
ATOM     24  S   UNL     1       6.352  10.644   6.371  0.00  0.00    +0.000 S 
ATOM     25  C   UNL     1       5.931   9.030   6.705  0.00  0.00    +0.000 A 
ATOM     26  N   UNL     1       5.600   8.642   7.967  0.00  0.00    +0.000 NA
ATOM     27  C   UNL     1       5.337   7.383   8.086  0.00  0.00    +0.000 A 
ATOM     28  N   UNL     1       5.372   6.478   7.056  0.00  0.00    +0.000 N 
ATOM     29  C   UNL     1       5.671   6.830   5.761  0.00  0.00    +0.000 A 
ATOM     30  O   UNL     1       5.653   6.003   4.855  0.00  0.00    +0.000 OA
ATOM     31  C   UNL     1       5.985   8.234   5.575  0.00  0.00    +0.000 A 
ATOM     32  H   UNL     1       5.150   5.507   7.215  0.00  0.00    +0.000 HD
ENDBRANCH  19  22
ENDBRANCH  17  18
ENDBRANCH   4  17
TORSDOF 6
