REMARK  Name = 
REMARK  6 active torsions:
REMARK  status: ('A' for Active; 'I' for Inactive)
REMARK    1  A    between atoms: C_2  and  C_26
REMARK    2  A    between atoms: N_3  and  C_4
REMARK    3  A    between atoms: C_4  and  C_5
REMARK    4  A    between atoms: C_8  and  C_9
REMARK    5  A    between atoms: C_9  and  N_10
REMARK    6  A    between atoms: C_11  and  C_13
REMARK                            x       y       z     vdW  Elec       q    Type
REMARK                         _______ _______ _______ _____ _____    ______ ____
ROOT
ATOM      1  C   UNL     1       3.155   3.132   1.946  0.00  0.00    +0.000 A 
ATOM      2  C   UNL     1       2.935   4.514   1.837  0.00  0.00    +0.000 A 
ATOM      3  C   UNL     1       3.813   5.428   2.429  0.00  0.00    +0.000 A 
ATOM      4  C   UNL     1       4.930   4.982   3.147  0.00  0.00    +0.000 A 
ATOM      5  C   UNL     1       5.160   3.608   3.225  0.00  0.00    +0.000 A 
ATOM      6  F   UNL     1       6.231   3.145   3.886  0.00  0.00    +0.000 F 
ATOM      7  C   UNL     1       4.292   2.689   2.632  0.00  0.00    +0.000 A 
ENDROOT
BRANCH   1   8
ATOM      8  C   UNL     1       2.194   2.152   1.323  0.00  0.00    +0.000 C 
BRANCH   8  11
ATOM      9  O   UNL     1       0.852   0.347  -0.319  0.00  0.00    +0.000 OA
ATOM     10  C   UNL     1       1.789   0.983  -0.794  0.00  0.00    +0.000 C 
ATOM     11  N   UNL     1       2.515   1.893  -0.059  0.00  0.00    +0.000 N 
ATOM     12  H   UNL     1       3.166   2.508  -0.524  0.00  0.00    +0.000 HD
BRANCH  10  13
ATOM     13  C   UNL     1       2.186   0.849  -2.171  0.00  0.00    +0.000 A 
ATOM     14  C   UNL     1       3.258   1.334  -2.895  0.00  0.00    +0.000 A 
ATOM     15  N   UNL     1       3.206   0.928  -4.204  0.00  0.00    +0.000 NA
ATOM     16  C   UNL     1       2.126   0.186  -4.290  0.00  0.00    +0.000 A 
ATOM     17  N   UNL     1       1.482   0.103  -3.091  0.00  0.00    +0.000 N 
ATOM     18  H   UNL     1       0.635  -0.414  -2.894  0.00  0.00    +0.000 HD
ENDBRANCH  10  13
ENDBRANCH   8  11
ENDBRANCH   1   8
BRANCH   4  19
ATOM     19  C   UNL     1       5.874   5.963   3.786  0.00  0.00    +0.000 C 
BRANCH  19  20
ATOM     20  N   UNL     1       6.908   6.378   2.870  0.00  0.00    +0.000 N 
ATOM     21  C   UNL     1       7.913   7.225   3.263  0.00  0.00    +0.000 C 
ATOM     22  O   UNL     1       7.992   7.653   4.411  0.00  0.00    +0.000 OA
ATOM     23  H   UNL     1       6.761   6.199   1.882  0.00  0.00    +0.000 HD
BRANCH  21  24
ATOM     24  C   UNL     1       8.926   7.552   2.251  0.00  0.00    +0.000 A 
ATOM     25  C   UNL     1      10.193   7.956   2.653  0.00  0.00    +0.000 A 
ATOM     26  S   UNL     1      11.260   8.250   1.356  0.00  0.00    +0.000 S 
ATOM     27  C   UNL     1      10.053   7.896   0.210  0.00  0.00    +0.000 A 
ATOM     28  N   UNL     1      10.309   7.979  -1.123  0.00  0.00    +0.000 NA
ATOM     29  C   UNL     1       9.295   7.717  -1.878  0.00  0.00    +0.000 A 
ATOM     30  N   UNL     1       8.049   7.374  -1.421  0.00  0.00    +0.000 N 
ATOM     31  C   UNL     1       7.754   7.240  -0.085  0.00  0.00    +0.000 A 
ATOM     32  O   UNL     1       6.645   6.872   0.288  0.00  0.00    +0.000 OA
ATOM     33  C   UNL     1       8.857   7.541   0.809  0.00  0.00    +0.000 A 
ATOM     34  H   UNL     1       7.302   7.169  -2.067  0.00  0.00    +0.000 HD
ENDBRANCH  21  24
ENDBRANCH  19  20
ENDBRANCH   4  19
TORSDOF 6
