REMARK  Name = 
REMARK  4 active torsions:
REMARK  status: ('A' for Active; 'I' for Inactive)
REMARK    1  A    between atoms: C_1  and  S_2
REMARK    2  A    between atoms: S_2  and  N_5
REMARK    3  A    between atoms: C_10  and  C_11
REMARK    4  A    between atoms: C_11  and  N_12
REMARK                            x       y       z     vdW  Elec       q    Type
REMARK                         _______ _______ _______ _____ _____    ______ ____
ROOT
ATOM      1  N   UNL     1       6.168   0.457   0.069  0.00  0.00    +0.000 N 
ATOM      2  C   UNL     1       6.108  -0.598  -0.846  0.00  0.00    +0.000 A 
ATOM      3  N   UNL     1       5.698  -1.769  -0.386  0.00  0.00    +0.000 NA
ATOM      4  C   UNL     1       5.677  -2.710  -1.323  0.00  0.00    +0.000 A 
ATOM      5  N   UNL     1       6.076  -2.566  -2.587  0.00  0.00    +0.000 NA
ATOM      6  C   UNL     1       6.499  -1.337  -2.915  0.00  0.00    +0.000 A 
ATOM      7  N   UNL     1       6.506  -0.298  -2.073  0.00  0.00    +0.000 NA
ATOM      8  H   UNL     1       6.089   1.346  -0.419  0.00  0.00    +0.000 HD
ENDROOT
BRANCH   1  10
ATOM      9  C   UNL     1       7.106  -0.472   2.425  0.00  0.00    +0.000 C 
ATOM     10  S   UNL     1       7.563   0.479   0.989  0.00  0.00    +0.000 S 
ATOM     11  O   UNL     1       7.723   1.853   1.419  0.00  0.00    +0.000 OA
ATOM     12  O   UNL     1       8.634  -0.205   0.295  0.00  0.00    +0.000 OA
ENDBRANCH   1  10
BRANCH   6  13
ATOM     13  C   UNL     1       7.071  -1.132  -4.291  0.00  0.00    +0.000 C 
BRANCH  13  14
ATOM     14  N   UNL     1       6.045  -0.741  -5.249  0.00  0.00    +0.000 N 
ATOM     15  C   UNL     1       5.754   0.562  -5.579  0.00  0.00    +0.000 A 
ATOM     16  C   UNL     1       4.825   0.546  -6.593  0.00  0.00    +0.000 A 
ATOM     17  C   UNL     1       4.538  -0.813  -6.899  0.00  0.00    +0.000 A 
ATOM     18  C   UNL     1       3.702  -1.445  -7.828  0.00  0.00    +0.000 A 
ATOM     19  N   UNL     1       3.635  -2.797  -7.891  0.00  0.00    +0.000 NA
ATOM     20  C   UNL     1       4.385  -3.524  -7.036  0.00  0.00    +0.000 A 
ATOM     21  C   UNL     1       5.242  -2.997  -6.082  0.00  0.00    +0.000 A 
ATOM     22  C   UNL     1       5.306  -1.602  -6.036  0.00  0.00    +0.000 A 
ENDBRANCH  13  14
ENDBRANCH   6  13
TORSDOF 3
