REMARK  Name = 
REMARK  6 active torsions:
REMARK  status: ('A' for Active; 'I' for Inactive)
REMARK    1  A    between atoms: C_2  and  C_4
REMARK    2  A    between atoms: C_7  and  C_8
REMARK    3  A    between atoms: C_8  and  C_9
REMARK    4  A    between atoms: C_12  and  C_13
REMARK    5  A    between atoms: C_13  and  N_14
REMARK    6  A    between atoms: C_15  and  C_17
REMARK                            x       y       z     vdW  Elec       q    Type
REMARK                         _______ _______ _______ _____ _____    ______ ____
ROOT
ATOM      1  C   UNL     1       4.841   5.107   3.352  0.00  0.00    +0.000 A 
ATOM      2  C   UNL     1       4.799   4.262   4.469  0.00  0.00    +0.000 A 
ATOM      3  C   UNL     1       4.326   4.729   5.700  0.00  0.00    +0.000 A 
ATOM      4  C   UNL     1       3.872   6.047   5.836  0.00  0.00    +0.000 A 
ATOM      5  C   UNL     1       3.953   6.903   4.730  0.00  0.00    +0.000 A 
ATOM      6  C   UNL     1       4.424   6.436   3.500  0.00  0.00    +0.000 A 
ENDROOT
BRANCH   1   7
ATOM      7  C   UNL     1       5.318   4.594   2.013  0.00  0.00    +0.000 C 
BRANCH   7  11
ATOM      8  C   UNL     1       2.268   3.085  -0.541  0.00  0.00    +0.000 A 
ATOM      9  C   UNL     1       2.876   2.197   0.336  0.00  0.00    +0.000 A 
ATOM     10  C   UNL     1       3.868   2.684   1.184  0.00  0.00    +0.000 A 
ATOM     11  C   UNL     1       4.227   4.036   1.133  0.00  0.00    +0.000 A 
ATOM     12  C   UNL     1       3.541   4.846   0.230  0.00  0.00    +0.000 A 
ATOM     13  N   UNL     1       2.577   4.409  -0.616  0.00  0.00    +0.000 NA
BRANCH   8  15
ATOM     14  N   UNL     1       0.711   3.515  -2.352  0.00  0.00    +0.000 N 
ATOM     15  C   UNL     1       1.217   2.584  -1.483  0.00  0.00    +0.000 C 
ATOM     16  O   UNL     1       0.832   1.421  -1.493  0.00  0.00    +0.000 OA
ATOM     17  H   UNL     1       0.002   3.246  -3.017  0.00  0.00    +0.000 HD
ATOM     18  H   UNL     1       1.059   4.467  -2.321  0.00  0.00    +0.000 HD
ENDBRANCH   8  15
ENDBRANCH   7  11
ENDBRANCH   1   7
BRANCH   4  19
ATOM     19  C   UNL     1       3.318   6.545   7.145  0.00  0.00    +0.000 C 
BRANCH  19  20
ATOM     20  N   UNL     1       4.344   7.115   7.979  0.00  0.00    +0.000 N 
ATOM     21  C   UNL     1       4.055   7.541   9.251  0.00  0.00    +0.000 C 
ATOM     22  O   UNL     1       2.940   7.404   9.745  0.00  0.00    +0.000 OA
ATOM     23  H   UNL     1       5.191   7.438   7.521  0.00  0.00    +0.000 HD
BRANCH  21  24
ATOM     24  C   UNL     1       5.164   8.119  10.023  0.00  0.00    +0.000 A 
ATOM     25  C   UNL     1       5.098   8.133  11.411  0.00  0.00    +0.000 A 
ATOM     26  S   UNL     1       6.481   8.794  12.156  0.00  0.00    +0.000 S 
ATOM     27  C   UNL     1       7.196   9.135  10.651  0.00  0.00    +0.000 A 
ATOM     28  N   UNL     1       8.410   9.743  10.577  0.00  0.00    +0.000 NA
ATOM     29  C   UNL     1       8.819   9.974   9.374  0.00  0.00    +0.000 A 
ATOM     30  N   UNL     1       8.126   9.644   8.238  0.00  0.00    +0.000 N 
ATOM     31  C   UNL     1       6.912   8.999   8.263  0.00  0.00    +0.000 A 
ATOM     32  O   UNL     1       6.340   8.678   7.227  0.00  0.00    +0.000 OA
ATOM     33  C   UNL     1       6.399   8.731   9.593  0.00  0.00    +0.000 A 
ATOM     34  H   UNL     1       8.506   9.844   7.325  0.00  0.00    +0.000 HD
ENDBRANCH  21  24
ENDBRANCH  19  20
ENDBRANCH   4  19
TORSDOF 6
