REMARK  Name = 
REMARK  10 active torsions:
REMARK  status: ('A' for Active; 'I' for Inactive)
REMARK    1  A    between atoms: C_1  and  O_2
REMARK    2  A    between atoms: O_2  and  C_3
REMARK    3  A    between atoms: C_10  and  C_11
REMARK    4  A    between atoms: N_13  and  C_14
REMARK    5  A    between atoms: C_14  and  C_15
REMARK    6  A    between atoms: C_18  and  C_19
REMARK    7  A    between atoms: C_19  and  N_20
REMARK    8  A    between atoms: N_20  and  C_21
REMARK    9  A    between atoms: C_21  and  C_22
REMARK   10  A    between atoms: C_24  and  C_25
REMARK                            x       y       z     vdW  Elec       q    Type
REMARK                         _______ _______ _______ _____ _____    ______ ____
ROOT
ATOM      1  C   UNL     1       2.257  -3.253   1.366  0.00  0.00    +0.000 A 
ATOM      2  C   UNL     1       1.507  -4.366   1.767  0.00  0.00    +0.000 A 
ATOM      3  C   UNL     1       0.522  -4.245   2.752  0.00  0.00    +0.000 A 
ATOM      4  C   UNL     1       0.258  -3.008   3.357  0.00  0.00    +0.000 A 
ATOM      5  C   UNL     1       1.009  -1.895   2.957  0.00  0.00    +0.000 A 
ATOM      6  C   UNL     1       1.995  -2.016   1.970  0.00  0.00    +0.000 A 
ENDROOT
BRANCH   1   7
ATOM      7  C   UNL     1       3.270  -3.373   0.254  0.00  0.00    +0.000 C 
BRANCH   7  10
ATOM      8  C   UNL     1       3.335  -3.158  -2.206  0.00  0.00    +0.000 C 
ATOM      9  O   UNL     1       4.538  -3.415  -2.235  0.00  0.00    +0.000 OA
ATOM     10  N   UNL     1       2.647  -3.130  -1.026  0.00  0.00    +0.000 N 
ATOM     11  H   UNL     1       1.647  -2.985  -1.029  0.00  0.00    +0.000 HD
BRANCH   8  19
ATOM     12  C   UNL     1       0.042  -2.370  -2.836  0.00  0.00    +0.000 A 
ATOM     13  N   UNL     1      -1.134  -1.944  -3.340  0.00  0.00    +0.000 NA
ATOM     14  C   UNL     1      -1.193  -1.658  -4.643  0.00  0.00    +0.000 A 
ATOM     15  N   UNL     1      -0.208  -1.761  -5.531  0.00  0.00    +0.000 NA
ATOM     16  C   UNL     1       0.948  -2.177  -4.986  0.00  0.00    +0.000 A 
ATOM     17  S   UNL     1       2.312  -2.384  -5.976  0.00  0.00    +0.000 S 
ATOM     18  C   UNL     1       3.267  -2.844  -4.648  0.00  0.00    +0.000 A 
ATOM     19  C   UNL     1       2.585  -2.845  -3.436  0.00  0.00    +0.000 A 
ATOM     20  C   UNL     1       1.183  -2.487  -3.651  0.00  0.00    +0.000 A 
BRANCH  12  22
ATOM     21  C   UNL     1      -1.115  -2.498  -0.790  0.00  0.00    +0.000 C 
ATOM     22  O   UNL     1       0.098  -2.719  -1.503  0.00  0.00    +0.000 OA
ENDBRANCH  12  22
ENDBRANCH   8  19
ENDBRANCH   7  10
ENDBRANCH   1   7
BRANCH   4  23
ATOM     23  C   UNL     1      -0.823  -2.880   4.411  0.00  0.00    +0.000 C 
BRANCH  23  24
ATOM     24  N   UNL     1      -0.523  -3.728   5.558  0.00  0.00    +0.000 NA
ATOM     25  H   UNL     1       0.371  -3.441   5.957  0.00  0.00    +0.000 HD
BRANCH  24  26
ATOM     26  C   UNL     1      -1.544  -3.617   6.608  0.00  0.00    +0.000 C 
BRANCH  26  27
ATOM     27  C   UNL     1      -1.212  -4.515   7.788  0.00  0.00    +0.000 A 
ATOM     28  C   UNL     1      -1.086  -5.891   7.594  0.00  0.00    +0.000 A 
ATOM     29  C   UNL     1      -0.720  -6.707   8.665  0.00  0.00    +0.000 A 
ATOM     30  C   UNL     1      -0.537  -8.182   8.481  0.00  0.00    +0.000 C 
ATOM     31  C   UNL     1      -0.509  -6.113   9.908  0.00  0.00    +0.000 A 
ATOM     32  C   UNL     1      -0.667  -4.739  10.021  0.00  0.00    +0.000 A 
ATOM     33  N   UNL     1      -1.008  -3.929   8.995  0.00  0.00    +0.000 NA
ENDBRANCH  26  27
ENDBRANCH  24  26
ENDBRANCH  23  24
ENDBRANCH   4  23
TORSDOF 8
