REMARK  Name = 
REMARK  6 active torsions:
REMARK  status: ('A' for Active; 'I' for Inactive)
REMARK    1  A    between atoms: C_1  and  O_2
REMARK    2  A    between atoms: O_2  and  C_3
REMARK    3  A    between atoms: C_5  and  N_6
REMARK    4  A    between atoms: N_6  and  C_7
REMARK    5  A    between atoms: C_7  and  C_8
REMARK    6  A    between atoms: C_16  and  C_17
REMARK                            x       y       z     vdW  Elec       q    Type
REMARK                         _______ _______ _______ _____ _____    ______ ____
ROOT
ATOM      1  C   UNL     1       3.067  -1.230  -0.210  0.00  0.00    +0.000 A 
ATOM      2  C   UNL     1       2.688  -2.134  -1.205  0.00  0.00    +0.000 A 
ATOM      3  C   UNL     1       3.435  -3.287  -1.436  0.00  0.00    +0.000 A 
ATOM      4  N   UNL     1       4.510  -3.591  -0.693  0.00  0.00    +0.000 NA
ATOM      5  C   UNL     1       4.856  -2.718   0.294  0.00  0.00    +0.000 A 
ATOM      6  C   UNL     1       4.193  -1.525   0.568  0.00  0.00    +0.000 A 
ENDROOT
BRANCH   6   7
ATOM      7  C   UNL     1       4.738  -0.673   1.660  0.00  0.00    +0.000 C 
ATOM      8  N   UNL     1       4.130   0.523   1.913  0.00  0.00    +0.000 N 
ATOM      9  O   UNL     1       5.709  -1.026   2.316  0.00  0.00    +0.000 OA
ATOM     10  H   UNL     1       3.357   0.856   1.349  0.00  0.00    +0.000 HD
ATOM     11  H   UNL     1       4.517   1.122   2.630  0.00  0.00    +0.000 HD
ENDBRANCH   6   7
BRANCH   1  13
ATOM     12  C   UNL     1       1.077   0.056  -0.465  0.00  0.00    +0.000 C 
ATOM     13  O   UNL     1       2.422  -0.036  -0.004  0.00  0.00    +0.000 OA
ENDBRANCH   1  13
BRANCH   3  14
ATOM     14  N   UNL     1       3.054  -4.075  -2.521  0.00  0.00    +0.000 N 
ATOM     15  H   UNL     1       2.109  -4.424  -2.405  0.00  0.00    +0.000 HD
BRANCH  14  16
ATOM     16  C   UNL     1       3.983  -5.091  -2.977  0.00  0.00    +0.000 C 
BRANCH  16  17
ATOM     17  C   UNL     1       3.571  -5.469  -4.376  0.00  0.00    +0.000 A 
ATOM     18  C   UNL     1       2.784  -6.590  -4.650  0.00  0.00    +0.000 A 
ATOM     19  C   UNL     1       2.389  -6.850  -5.961  0.00  0.00    +0.000 A 
ATOM     20  C   UNL     1       2.788  -5.973  -6.957  0.00  0.00    +0.000 A 
ATOM     21  N   UNL     1       3.536  -4.874  -6.731  0.00  0.00    +0.000 NA
ATOM     22  C   UNL     1       3.903  -4.644  -5.449  0.00  0.00    +0.000 A 
ENDBRANCH  16  17
ENDBRANCH  14  16
ENDBRANCH   3  14
TORSDOF 5
