REMARK  Name = 
REMARK  7 active torsions:
REMARK  status: ('A' for Active; 'I' for Inactive)
REMARK    1  A    between atoms: C_2  and  C_3
REMARK    2  A    between atoms: C_6  and  N_7
REMARK    3  A    between atoms: N_7  and  C_8
REMARK    4  A    between atoms: C_8  and  C_9
REMARK    5  A    between atoms: C_9  and  C_10
REMARK    6  A    between atoms: C_15  and  C_16
REMARK    7  A    between atoms: C_16  and  O_17
REMARK                            x       y       z     vdW  Elec       q    Type
REMARK                         _______ _______ _______ _____ _____    ______ ____
ROOT
ATOM      1  C   UNL     1       8.652  -1.151   0.113  0.00  0.00    +0.000 C 
ENDROOT
BRANCH   1   2
ATOM      2  N   UNL     1       7.879   0.076   0.158  0.00  0.00    +0.000 N 
ATOM      3  H   UNL     1       8.333   0.971   0.028  0.00  0.00    +0.000 HD
BRANCH   2   7
ATOM      4  C   UNL     1       3.714  -0.006   0.095  0.00  0.00    +0.000 A 
ATOM      5  C   UNL     1       4.496  -1.151   0.092  0.00  0.00    +0.000 A 
ATOM      6  N   UNL     1       5.857  -1.140   0.091  0.00  0.00    +0.000 NA
ATOM      7  C   UNL     1       6.494   0.049   0.091  0.00  0.00    +0.000 A 
ATOM      8  C   UNL     1       5.761   1.254   0.096  0.00  0.00    +0.000 A 
ATOM      9 CL   UNL     1       6.551   2.791   0.090  0.00  0.00    +0.000 Cl
ATOM     10  C   UNL     1       4.362   1.221   0.092  0.00  0.00    +0.000 A 
BRANCH   4  12
ATOM     11  N   UNL     1       1.126  -0.157   0.103  0.00  0.00    +0.000 NA
ATOM     12  C   UNL     1       2.289  -0.099   0.095  0.00  0.00    +0.000 C 
ENDBRANCH   4  12
ENDBRANCH   2   7
ENDBRANCH   1   2
BRANCH   1  13
ATOM     13  C   UNL     1      10.156  -0.837   0.111  0.00  0.00    +0.000 C 
BRANCH  13  14
ATOM     14  C   UNL     1      11.007  -2.085   0.126  0.00  0.00    +0.000 A 
ATOM     15  C   UNL     1      11.403  -2.697  -1.071  0.00  0.00    +0.000 A 
ATOM     16  C   UNL     1      12.170  -3.862  -1.041  0.00  0.00    +0.000 A 
ATOM     17 CL   UNL     1      12.647  -4.608  -2.517  0.00  0.00    +0.000 Cl
ATOM     18  C   UNL     1      12.552  -4.433   0.173  0.00  0.00    +0.000 A 
ATOM     19  C   UNL     1      12.164  -3.840   1.381  0.00  0.00    +0.000 A 
ATOM     20  C   UNL     1      11.390  -2.668   1.345  0.00  0.00    +0.000 A 
BRANCH  19  21
ATOM     21  C   UNL     1      12.543  -4.457   2.700  0.00  0.00    +0.000 C 
BRANCH  21  22
ATOM     22  O   UNL     1      13.314  -3.545   3.469  0.00  0.00    +0.000 OA
ATOM     23  H   UNL     1      14.041  -3.240   2.901  0.00  0.00    +0.000 HD
ENDBRANCH  21  22
ENDBRANCH  19  21
ENDBRANCH  13  14
ENDBRANCH   1  13
TORSDOF 7
