REMARK  Name = 
REMARK  10 active torsions:
REMARK  status: ('A' for Active; 'I' for Inactive)
REMARK    1  A    between atoms: C_1  and  C_2
REMARK    2  A    between atoms: C_4  and  N_5
REMARK    3  A    between atoms: N_5  and  C_6
REMARK    4  A    between atoms: C_6  and  C_7
REMARK    5  A    between atoms: C_7  and  C_8
REMARK    6  A    between atoms: C_7  and  C_9
REMARK    7  A    between atoms: C_13  and  O_14
REMARK    8  A    between atoms: O_14  and  C_15
REMARK    9  A    between atoms: N_17  and  C_18
REMARK   10  A    between atoms: C_23  and  C_24
REMARK                            x       y       z     vdW  Elec       q    Type
REMARK                         _______ _______ _______ _____ _____    ______ ____
ROOT
ATOM      1  C   UNL     1       2.996  -4.710   1.261  0.00  0.00    +0.000 C 
ENDROOT
BRANCH   1   2
ATOM      2  N   UNL     1       4.014  -5.743   1.375  0.00  0.00    +0.000 N 
ATOM      3  H   UNL     1       4.085  -6.226   2.266  0.00  0.00    +0.000 HD
BRANCH   2   7
ATOM      4  C   UNL     1       7.086  -3.976  -2.035  0.00  0.00    +0.000 C 
ATOM      5  C   UNL     1       6.846  -4.834  -0.825  0.00  0.00    +0.000 A 
ATOM      6  C   UNL     1       5.554  -4.860  -0.284  0.00  0.00    +0.000 A 
ATOM      7  C   UNL     1       5.268  -5.634   0.830  0.00  0.00    +0.000 A 
ATOM      8  N   UNL     1       6.214  -6.381   1.425  0.00  0.00    +0.000 NA
ATOM      9  C   UNL     1       7.464  -6.357   0.895  0.00  0.00    +0.000 A 
ATOM     10  C   UNL     1       7.834  -5.622  -0.226  0.00  0.00    +0.000 A 
BRANCH  10  11
ATOM     11  C   UNL     1       9.232  -5.665  -0.723  0.00  0.00    +0.000 C 
ATOM     12  N   UNL     1       9.948  -6.814  -0.515  0.00  0.00    +0.000 N 
ATOM     13  O   UNL     1       9.749  -4.727  -1.320  0.00  0.00    +0.000 OA
ATOM     14  H   UNL     1       9.537  -7.689  -0.221  0.00  0.00    +0.000 HD
ATOM     15  H   UNL     1      10.860  -6.849  -0.951  0.00  0.00    +0.000 HD
ENDBRANCH  10  11
ENDBRANCH   2   7
ENDBRANCH   1   2
BRANCH   1  16
ATOM     16  C   UNL     1       2.071  -4.900   0.023  0.00  0.00    +0.000 C 
ATOM     17  C   UNL     1       1.178  -3.648  -0.071  0.00  0.00    +0.000 C 
BRANCH  16  18
ATOM     18  C   UNL     1       1.210  -6.165   0.008  0.00  0.00    +0.000 A 
ATOM     19  C   UNL     1       1.237  -7.111   1.039  0.00  0.00    +0.000 A 
ATOM     20  C   UNL     1       0.389  -8.220   1.029  0.00  0.00    +0.000 A 
ATOM     21  C   UNL     1      -0.496  -8.417  -0.026  0.00  0.00    +0.000 A 
ATOM     22  C   UNL     1      -0.502  -7.526  -1.092  0.00  0.00    +0.000 A 
ATOM     23  C   UNL     1       0.350  -6.415  -1.078  0.00  0.00    +0.000 A 
BRANCH  22  24
ATOM     24  O   UNL     1      -1.327  -7.616  -2.186  0.00  0.00    +0.000 OA
BRANCH  24  25
ATOM     25  C   UNL     1      -1.953  -8.883  -2.489  0.00  0.00    +0.000 C 
ATOM     26  C   UNL     1      -1.062 -10.017  -3.050  0.00  0.00    +0.000 C 
ATOM     27  N   UNL     1      -2.045 -10.262  -4.130  0.00  0.00    +0.000 NA
ATOM     28  C   UNL     1      -2.964 -11.340  -3.763  0.00  0.00    +0.000 C 
ATOM     29  C   UNL     1      -2.659  -8.944  -3.863  0.00  0.00    +0.000 C 
ENDBRANCH  24  25
ENDBRANCH  22  24
ENDBRANCH  16  18
ENDBRANCH   1  16
TORSDOF 7
