REMARK  Name = 
REMARK  5 active torsions:
REMARK  status: ('A' for Active; 'I' for Inactive)
REMARK    1  A    between atoms: C_2  and  C_4
REMARK    2  A    between atoms: C_7  and  N_8
REMARK    3  A    between atoms: N_8  and  C_9
REMARK    4  A    between atoms: C_9  and  C_10
REMARK    5  A    between atoms: C_14  and  C_15
REMARK                            x       y       z     vdW  Elec       q    Type
REMARK                         _______ _______ _______ _____ _____    ______ ____
ROOT
ATOM      1  C   UNL     1       4.715  -5.287  -3.110  0.00  0.00    +0.000 C 
ENDROOT
BRANCH   1   2
ATOM      2  C   UNL     1       5.680  -6.434  -3.324  0.00  0.00    +0.000 A 
ATOM      3  C   UNL     1       7.032  -6.209  -3.594  0.00  0.00    +0.000 A 
ATOM      4  C   UNL     1       7.901  -7.289  -3.738  0.00  0.00    +0.000 A 
ATOM      5  C   UNL     1       7.429  -8.599  -3.607  0.00  0.00    +0.000 A 
ATOM      6  C   UNL     1       6.079  -8.868  -3.321  0.00  0.00    +0.000 A 
ATOM      7  C   UNL     1       5.221  -7.761  -3.195  0.00  0.00    +0.000 A 
BRANCH   6   8
ATOM      8  C   UNL     1       5.588 -10.250  -3.126  0.00  0.00    +0.000 A 
ATOM      9  C   UNL     1       6.373 -11.238  -2.515  0.00  0.00    +0.000 A 
ATOM     10  N   UNL     1       5.989 -12.521  -2.285  0.00  0.00    +0.000 NA
ATOM     11  C   UNL     1       4.738 -12.849  -2.674  0.00  0.00    +0.000 A 
ATOM     12  C   UNL     1       3.876 -11.957  -3.280  0.00  0.00    +0.000 A 
ATOM     13  F   UNL     1       2.643 -12.338  -3.639  0.00  0.00    +0.000 F 
ATOM     14  C   UNL     1       4.300 -10.653  -3.513  0.00  0.00    +0.000 A 
ENDBRANCH   6   8
ENDBRANCH   1   2
BRANCH   1  15
ATOM     15  N   UNL     1       3.683  -5.345  -4.137  0.00  0.00    +0.000 N 
ATOM     16  H   UNL     1       4.015  -4.999  -5.032  0.00  0.00    +0.000 HD
BRANCH  15  20
ATOM     17  C   UNL     1      -0.087  -4.028  -3.188  0.00  0.00    +0.000 A 
ATOM     18  C   UNL     1       0.949  -3.914  -2.277  0.00  0.00    +0.000 A 
ATOM     19  N   UNL     1       2.222  -4.297  -2.566  0.00  0.00    +0.000 NA
ATOM     20  C   UNL     1       2.441  -4.800  -3.800  0.00  0.00    +0.000 A 
ATOM     21  C   UNL     1       1.379  -4.887  -4.712  0.00  0.00    +0.000 A 
ATOM     22  N   UNL     1       0.100  -4.510  -4.446  0.00  0.00    +0.000 NA
BRANCH  17  24
ATOM     23  N   UNL     1      -2.445  -3.898  -3.718  0.00  0.00    +0.000 N 
ATOM     24  C   UNL     1      -1.471  -3.661  -2.786  0.00  0.00    +0.000 C 
ATOM     25  O   UNL     1      -1.729  -3.192  -1.683  0.00  0.00    +0.000 OA
ATOM     26  H   UNL     1      -3.410  -3.714  -3.485  0.00  0.00    +0.000 HD
ATOM     27  H   UNL     1      -2.205  -4.329  -4.604  0.00  0.00    +0.000 HD
ENDBRANCH  17  24
ENDBRANCH  15  20
ENDBRANCH   1  15
TORSDOF 5
