REMARK  Name = 
REMARK  8 active torsions:
REMARK  status: ('A' for Active; 'I' for Inactive)
REMARK    1  A    between atoms: C_1  and  C_2
REMARK    2  A    between atoms: C_2  and  C_3
REMARK    3  A    between atoms: C_2  and  C_4
REMARK    4  A    between atoms: C_2  and  C_5
REMARK    5  A    between atoms: C_9  and  C_10
REMARK    6  A    between atoms: N_16  and  C_17
REMARK    7  A    between atoms: C_17  and  C_18
REMARK    8  A    between atoms: C_22  and  C_23
REMARK                            x       y       z     vdW  Elec       q    Type
REMARK                         _______ _______ _______ _____ _____    ______ ____
ROOT
ATOM      1  C   UNL     1       3.017  -0.288   1.290  0.00  0.00    +0.000 A 
ATOM      2  N   UNL     1       3.451   0.612   2.166  0.00  0.00    +0.000 NA
ATOM      3  C   UNL     1       3.783  -0.067   3.305  0.00  0.00    +0.000 A 
ATOM      4  C   UNL     1       4.273   0.385   4.535  0.00  0.00    +0.000 A 
ATOM      5  C   UNL     1       4.507  -0.580   5.526  0.00  0.00    +0.000 A 
ATOM      6  C   UNL     1       4.254  -1.921   5.221  0.00  0.00    +0.000 A 
ATOM      7  N   UNL     1       3.783  -2.402   4.036  0.00  0.00    +0.000 NA
ATOM      8  C   UNL     1       3.566  -1.421   3.137  0.00  0.00    +0.000 A 
ATOM      9  N   UNL     1       3.048  -1.554   1.866  0.00  0.00    +0.000 N 
ENDROOT
BRANCH   5  10
ATOM     10  C   UNL     1       4.998  -0.264   6.891  0.00  0.00    +0.000 C 
ATOM     11  N   UNL     1       5.232   1.041   7.223  0.00  0.00    +0.000 N 
ATOM     12  O   UNL     1       5.188  -1.150   7.715  0.00  0.00    +0.000 OA
ATOM     13  H   UNL     1       5.087   1.836   6.621  0.00  0.00    +0.000 HD
ATOM     14  H   UNL     1       5.545   1.220   8.169  0.00  0.00    +0.000 HD
ENDBRANCH   5  10
BRANCH   1  16
ATOM     15  C   UNL     1       2.623   1.618  -0.293  0.00  0.00    +0.000 C 
ATOM     16  C   UNL     1       2.576   0.078  -0.128  0.00  0.00    +0.000 C 
ATOM     17  C   UNL     1       1.127  -0.343  -0.413  0.00  0.00    +0.000 C 
ATOM     18  C   UNL     1       3.528  -0.508  -1.186  0.00  0.00    +0.000 C 
ENDBRANCH   1  16
BRANCH   9  19
ATOM     19  C   UNL     1       2.711  -2.850   1.297  0.00  0.00    +0.000 C 
BRANCH  19  20
ATOM     20  C   UNL     1       1.275  -3.284   1.496  0.00  0.00    +0.000 A 
ATOM     21  C   UNL     1       0.633  -4.014   0.477  0.00  0.00    +0.000 A 
ATOM     22  C   UNL     1      -0.652  -4.530   0.658  0.00  0.00    +0.000 A 
ATOM     23  C   UNL     1      -1.312  -4.341   1.868  0.00  0.00    +0.000 A 
ATOM     24  C   UNL     1      -0.698  -3.606   2.887  0.00  0.00    +0.000 A 
ATOM     25  C   UNL     1       0.584  -3.081   2.700  0.00  0.00    +0.000 A 
BRANCH  24  26
ATOM     26  C   UNL     1      -1.374  -3.406   4.130  0.00  0.00    +0.000 C 
ATOM     27  N   UNL     1      -1.926  -3.239   5.139  0.00  0.00    +0.000 NA
ENDBRANCH  24  26
ENDBRANCH  19  20
ENDBRANCH   9  19
TORSDOF 5
