REMARK  Name = 
REMARK  3 active torsions:
REMARK  status: ('A' for Active; 'I' for Inactive)
REMARK    1  A    between atoms: C_2  and  C_4
REMARK    2  A    between atoms: N_8  and  C_9
REMARK    3  A    between atoms: C_9  and  C_10
REMARK                            x       y       z     vdW  Elec       q    Type
REMARK                         _______ _______ _______ _____ _____    ______ ____
ROOT
ATOM      1  C   UNL     1       3.174  -3.567   0.387  0.00  0.00    +0.000 A 
ATOM      2  C   UNL     1       2.484  -3.667  -0.817  0.00  0.00    +0.000 A 
ATOM      3  C   UNL     1       3.197  -3.667  -2.020  0.00  0.00    +0.000 A 
ATOM      4  C   UNL     1       4.580  -3.568  -1.995  0.00  0.00    +0.000 A 
ATOM      5  N   UNL     1       5.369  -3.492  -3.147  0.00  0.00    +0.000 N 
ATOM      6  N   UNL     1       5.259  -3.441  -0.835  0.00  0.00    +0.000 NA
ATOM      7  C   UNL     1       4.550  -3.438   0.329  0.00  0.00    +0.000 A 
ATOM      8  H   UNL     1       6.335  -3.485  -2.826  0.00  0.00    +0.000 HD
ENDROOT
BRANCH   1  10
ATOM      9  N   UNL     1       1.297  -4.215   1.778  0.00  0.00    +0.000 N 
ATOM     10  C   UNL     1       2.496  -3.560   1.700  0.00  0.00    +0.000 C 
ATOM     11  O   UNL     1       2.997  -3.026   2.678  0.00  0.00    +0.000 OA
ATOM     12  H   UNL     1       0.889  -4.298   2.701  0.00  0.00    +0.000 HD
ATOM     13  H   UNL     1       0.985  -4.868   1.071  0.00  0.00    +0.000 HD
ENDBRANCH   1  10
BRANCH   5  14
ATOM     14  C   UNL     1       5.104  -4.175  -4.421  0.00  0.00    +0.000 C 
ATOM     15  C   UNL     1       5.275  -3.276  -5.644  0.00  0.00    +0.000 C 
ATOM     16  C   UNL     1       3.937  -3.856  -5.340  0.00  0.00    +0.000 C 
BRANCH  14  17
ATOM     17  C   UNL     1       5.640  -5.606  -4.497  0.00  0.00    +0.000 A 
ATOM     18  C   UNL     1       4.840  -6.700  -4.113  0.00  0.00    +0.000 A 
ATOM     19  C   UNL     1       5.282  -8.017  -4.270  0.00  0.00    +0.000 A 
ATOM     20  C   UNL     1       6.540  -8.256  -4.803  0.00  0.00    +0.000 A 
ATOM     21  F   UNL     1       6.955  -9.517  -4.982  0.00  0.00    +0.000 F 
ATOM     22  C   UNL     1       7.371  -7.204  -5.162  0.00  0.00    +0.000 A 
ATOM     23  C   UNL     1       6.925  -5.889  -5.001  0.00  0.00    +0.000 A 
ENDBRANCH  14  17
ENDBRANCH   5  14
TORSDOF 3
