REMARK  Name = 
REMARK  7 active torsions:
REMARK  status: ('A' for Active; 'I' for Inactive)
REMARK    1  A    between atoms: C_1  and  C_2
REMARK    2  A    between atoms: C_2  and  N_3
REMARK    3  A    between atoms: C_2  and  C_16
REMARK    4  A    between atoms: C_4  and  C_6
REMARK    5  A    between atoms: C_19  and  C_20
REMARK    6  A    between atoms: C_20  and  N_21
REMARK    7  A    between atoms: C_22  and  C_24
REMARK                            x       y       z     vdW  Elec       q    Type
REMARK                         _______ _______ _______ _____ _____    ______ ____
ROOT
ATOM      1  C   UNL     1       1.275  -0.129   1.125  0.00  0.00    +0.000 C 
ATOM      2  C   UNL     1       2.462  -0.242   0.164  0.00  0.00    +0.000 C 
ENDROOT
BRANCH   2   3
ATOM      3  C   UNL     1       3.091  -1.628   0.132  0.00  0.00    +0.000 A 
ATOM      4  C   UNL     1       4.477  -1.769  -0.063  0.00  0.00    +0.000 A 
ATOM      5  C   UNL     1       5.064  -3.039  -0.163  0.00  0.00    +0.000 A 
ATOM      6  C   UNL     1       4.274  -4.193  -0.102  0.00  0.00    +0.000 A 
ATOM      7  C   UNL     1       2.903  -4.055   0.137  0.00  0.00    +0.000 A 
ATOM      8  C   UNL     1       2.320  -2.792   0.244  0.00  0.00    +0.000 A 
BRANCH   6   9
ATOM      9  C   UNL     1       4.856  -5.569  -0.302  0.00  0.00    +0.000 C 
BRANCH   9  10
ATOM     10  N   UNL     1       5.293  -6.148   0.935  0.00  0.00    +0.000 N 
ATOM     11  C   UNL     1       5.740  -7.449   0.997  0.00  0.00    +0.000 C 
ATOM     12  O   UNL     1       5.772  -8.189   0.023  0.00  0.00    +0.000 OA
ATOM     13  H   UNL     1       5.359  -5.552   1.748  0.00  0.00    +0.000 HD
BRANCH  11  14
ATOM     14  C   UNL     1       6.171  -7.866   2.310  0.00  0.00    +0.000 A 
ATOM     15  C   UNL     1       6.179  -7.244   3.540  0.00  0.00    +0.000 A 
ATOM     16  C   UNL     1       6.736  -8.183   4.424  0.00  0.00    +0.000 A 
ATOM     17  N   UNL     1       7.058  -9.323   3.816  0.00  0.00    +0.000 NA
ATOM     18  N   UNL     1       6.701  -9.111   2.535  0.00  0.00    +0.000 N 
ATOM     19  H   UNL     1       6.845  -9.851   1.855  0.00  0.00    +0.000 HD
ENDBRANCH  11  14
ENDBRANCH   9  10
ENDBRANCH   6   9
ENDBRANCH   2   3
BRANCH   2  20
ATOM     20  N   UNL     1       2.048   0.139  -1.176  0.00  0.00    +0.000 N 
ATOM     21  C   UNL     1       2.097   1.451  -1.593  0.00  0.00    +0.000 C 
ATOM     22  O   UNL     1       2.510   2.358  -0.881  0.00  0.00    +0.000 OA
ATOM     23  H   UNL     1       1.509  -0.524  -1.714  0.00  0.00    +0.000 HD
BRANCH  21  24
ATOM     24  C   UNL     1       1.686   1.681  -2.977  0.00  0.00    +0.000 A 
ATOM     25  C   UNL     1       1.893   0.778  -4.008  0.00  0.00    +0.000 A 
ATOM     26  S   UNL     1       1.525   1.430  -5.548  0.00  0.00    +0.000 S 
ATOM     27  C   UNL     1       1.083   2.930  -4.873  0.00  0.00    +0.000 A 
ATOM     28  N   UNL     1       0.743   3.991  -5.653  0.00  0.00    +0.000 NA
ATOM     29  C   UNL     1       0.463   5.065  -4.989  0.00  0.00    +0.000 A 
ATOM     30  N   UNL     1       0.448   5.161  -3.620  0.00  0.00    +0.000 N 
ATOM     31  C   UNL     1       0.661   4.081  -2.793  0.00  0.00    +0.000 A 
ATOM     32  O   UNL     1       0.383   4.128  -1.600  0.00  0.00    +0.000 OA
ATOM     33  C   UNL     1       1.126   2.900  -3.493  0.00  0.00    +0.000 A 
ATOM     34  H   UNL     1       0.126   6.002  -3.164  0.00  0.00    +0.000 HD
ENDBRANCH  21  24
ENDBRANCH   2  20
TORSDOF 6
