REMARK  Name = 
REMARK  7 active torsions:
REMARK  status: ('A' for Active; 'I' for Inactive)
REMARK    1  A    between atoms: C_1  and  C_2
REMARK    2  A    between atoms: C_6  and  C_7
REMARK    3  A    between atoms: N_9  and  C_10
REMARK    4  A    between atoms: C_10  and  C_11
REMARK    5  A    between atoms: C_14  and  C_15
REMARK    6  A    between atoms: C_15  and  N_16
REMARK    7  A    between atoms: C_17  and  C_19
REMARK                            x       y       z     vdW  Elec       q    Type
REMARK                         _______ _______ _______ _____ _____    ______ ____
ROOT
ATOM      1  C   UNL     1      -5.518  -3.448   0.096  0.00  0.00    +0.000 A 
ATOM      2  C   UNL     1      -6.004  -2.132   0.144  0.00  0.00    +0.000 A 
ATOM      3  C   UNL     1      -7.385  -1.867   0.181  0.00  0.00    +0.000 A 
ATOM      4  C   UNL     1      -8.324  -2.908   0.177  0.00  0.00    +0.000 A 
ATOM      5  C   UNL     1      -7.838  -4.223   0.140  0.00  0.00    +0.000 A 
ATOM      6  C   UNL     1      -6.458  -4.489   0.107  0.00  0.00    +0.000 A 
ENDROOT
BRANCH   1   7
ATOM      7  C   UNL     1      -4.031  -3.746   0.032  0.00  0.00    +0.000 C 
BRANCH   7  10
ATOM      8  C   UNL     1      -2.095  -4.189   1.534  0.00  0.00    +0.000 C 
ATOM      9  O   UNL     1      -1.315  -4.326   0.600  0.00  0.00    +0.000 OA
ATOM     10  N   UNL     1      -3.447  -3.906   1.348  0.00  0.00    +0.000 N 
ATOM     11  H   UNL     1      -3.989  -3.606   2.141  0.00  0.00    +0.000 HD
BRANCH   8  17
ATOM     12  C   UNL     1       1.615  -3.692   4.869  0.00  0.00    +0.000 C 
ATOM     13  C   UNL     1       0.189  -4.056   4.575  0.00  0.00    +0.000 A 
ATOM     14  C   UNL     1      -0.662  -4.490   5.597  0.00  0.00    +0.000 A 
ATOM     15  C   UNL     1      -1.985  -4.824   5.311  0.00  0.00    +0.000 A 
ATOM     16  C   UNL     1      -2.473  -4.725   4.002  0.00  0.00    +0.000 A 
ATOM     17  C   UNL     1      -1.635  -4.290   2.962  0.00  0.00    +0.000 A 
ATOM     18  C   UNL     1      -0.304  -3.962   3.260  0.00  0.00    +0.000 A 
ENDBRANCH   8  17
ENDBRANCH   7  10
ENDBRANCH   1   7
BRANCH   4  19
ATOM     19  C   UNL     1      -9.816  -2.636   0.203  0.00  0.00    +0.000 C 
BRANCH  19  20
ATOM     20  N   UNL     1     -10.379  -2.520  -1.120  0.00  0.00    +0.000 N 
ATOM     21  C   UNL     1     -11.709  -2.248  -1.341  0.00  0.00    +0.000 C 
ATOM     22  O   UNL     1     -12.512  -2.075  -0.432  0.00  0.00    +0.000 OA
ATOM     23  H   UNL     1      -9.873  -2.994  -1.859  0.00  0.00    +0.000 HD
BRANCH  21  24
ATOM     24  C   UNL     1     -12.093  -2.114  -2.756  0.00  0.00    +0.000 A 
ATOM     25  C   UNL     1     -13.162  -1.304  -3.119  0.00  0.00    +0.000 A 
ATOM     26  S   UNL     1     -13.442  -1.258  -4.802  0.00  0.00    +0.000 S 
ATOM     27  C   UNL     1     -12.173  -2.353  -5.101  0.00  0.00    +0.000 A 
ATOM     28  N   UNL     1     -11.890  -2.775  -6.364  0.00  0.00    +0.000 NA
ATOM     29  C   UNL     1     -10.918  -3.620  -6.440  0.00  0.00    +0.000 A 
ATOM     30  N   UNL     1     -10.194  -4.076  -5.369  0.00  0.00    +0.000 N 
ATOM     31  C   UNL     1     -10.410  -3.637  -4.086  0.00  0.00    +0.000 A 
ATOM     32  O   UNL     1      -9.684  -3.993  -3.164  0.00  0.00    +0.000 OA
ATOM     33  C   UNL     1     -11.525  -2.719  -3.939  0.00  0.00    +0.000 A 
ATOM     34  H   UNL     1      -9.423  -4.716  -5.496  0.00  0.00    +0.000 HD
ENDBRANCH  21  24
ENDBRANCH  19  20
ENDBRANCH   4  19
TORSDOF 6
