REMARK  Name = 
REMARK  7 active torsions:
REMARK  status: ('A' for Active; 'I' for Inactive)
REMARK    1  A    between atoms: C_2  and  C_3
REMARK    2  A    between atoms: C_7  and  N_8
REMARK    3  A    between atoms: N_8  and  C_9
REMARK    4  A    between atoms: C_9  and  C_10
REMARK    5  A    between atoms: C_13  and  C_14
REMARK    6  A    between atoms: C_14  and  N_15
REMARK    7  A    between atoms: C_16  and  C_18
REMARK                            x       y       z     vdW  Elec       q    Type
REMARK                         _______ _______ _______ _____ _____    ______ ____
ROOT
ATOM      1  C   UNL     1       4.239   3.907   0.079  0.00  0.00    +0.000 A 
ATOM      2  C   UNL     1       3.382   4.952  -0.298  0.00  0.00    +0.000 A 
ATOM      3  C   UNL     1       3.808   6.289  -0.239  0.00  0.00    +0.000 A 
ATOM      4  C   UNL     1       5.110   6.610   0.169  0.00  0.00    +0.000 A 
ATOM      5  C   UNL     1       5.966   5.564   0.542  0.00  0.00    +0.000 A 
ATOM      6  C   UNL     1       5.540   4.231   0.487  0.00  0.00    +0.000 A 
ENDROOT
BRANCH   1   7
ATOM      7  C   UNL     1       3.783   2.460   0.047  0.00  0.00    +0.000 C 
BRANCH   7   8
ATOM      8  N   UNL     1       4.091   1.868  -1.250  0.00  0.00    +0.000 N 
ATOM      9  H   UNL     1       3.856   2.499  -2.012  0.00  0.00    +0.000 HD
BRANCH   8  14
ATOM     10  C   UNL     1       3.337  -1.177  -3.225  0.00  0.00    +0.000 A 
ATOM     11  C   UNL     1       3.264  -2.160  -2.239  0.00  0.00    +0.000 A 
ATOM     12  C   UNL     1       3.450  -1.806  -0.905  0.00  0.00    +0.000 A 
ATOM     13  C   UNL     1       3.697  -0.470  -0.556  0.00  0.00    +0.000 A 
ATOM     14  C   UNL     1       3.747   0.540  -1.526  0.00  0.00    +0.000 A 
ATOM     15  C   UNL     1       3.590   0.155  -2.867  0.00  0.00    +0.000 A 
BRANCH  10  17
ATOM     16  N   UNL     1       3.007  -1.810  -5.721  0.00  0.00    +0.000 NA
ATOM     17  C   UNL     1       3.158  -1.526  -4.602  0.00  0.00    +0.000 C 
ENDBRANCH  10  17
ENDBRANCH   8  14
ENDBRANCH   7   8
ENDBRANCH   1   7
BRANCH   4  18
ATOM     18  C   UNL     1       5.593   8.041   0.221  0.00  0.00    +0.000 C 
BRANCH  18  19
ATOM     19  N   UNL     1       5.341   8.649   1.504  0.00  0.00    +0.000 N 
ATOM     20  C   UNL     1       5.669   9.958   1.759  0.00  0.00    +0.000 C 
ATOM     21  O   UNL     1       6.173  10.687   0.908  0.00  0.00    +0.000 OA
ATOM     22  H   UNL     1       5.203   8.019   2.287  0.00  0.00    +0.000 HD
BRANCH  20  23
ATOM     23  C   UNL     1       5.319  10.464   3.094  0.00  0.00    +0.000 A 
ATOM     24  C   UNL     1       5.079  11.819   3.284  0.00  0.00    +0.000 A 
ATOM     25  S   UNL     1       4.639  12.215   4.885  0.00  0.00    +0.000 S 
ATOM     26  C   UNL     1       4.806  10.599   5.390  0.00  0.00    +0.000 A 
ATOM     27  N   UNL     1       4.599  10.244   6.687  0.00  0.00    +0.000 NA
ATOM     28  C   UNL     1       4.787   8.990   6.934  0.00  0.00    +0.000 A 
ATOM     29  N   UNL     1       5.154   8.057   6.000  0.00  0.00    +0.000 N 
ATOM     30  C   UNL     1       5.334   8.362   4.672  0.00  0.00    +0.000 A 
ATOM     31  O   UNL     1       5.599   7.490   3.850  0.00  0.00    +0.000 OA
ATOM     32  C   UNL     1       5.162   9.764   4.346  0.00  0.00    +0.000 A 
ATOM     33  H   UNL     1       5.268   7.087   6.252  0.00  0.00    +0.000 HD
ENDBRANCH  20  23
ENDBRANCH  18  19
ENDBRANCH   4  18
TORSDOF 7
