REMARK  Name = 
REMARK  11 active torsions:
REMARK  status: ('A' for Active; 'I' for Inactive)
REMARK    1  A    between atoms: C_1  and  C_2
REMARK    2  A    between atoms: C_2  and  C_3
REMARK    3  A    between atoms: C_3  and  N_4
REMARK    4  A    between atoms: C_3  and  C_18
REMARK    5  A    between atoms: C_5  and  C_7
REMARK    6  A    between atoms: N_13  and  C_14
REMARK    7  A    between atoms: C_21  and  O_22
REMARK    8  A    between atoms: O_22  and  C_23
REMARK    9  A    between atoms: C_23  and  C_24
REMARK   10  A    between atoms: C_24  and  N_25
REMARK   11  A    between atoms: N_28  and  C_29
REMARK                            x       y       z     vdW  Elec       q    Type
REMARK                         _______ _______ _______ _____ _____    ______ ____
ROOT
ATOM      1  C   UNL     1       2.909  -1.131   0.871  0.00  0.00    +0.000 C 
ENDROOT
BRANCH   1   2
ATOM      2  C   UNL     1       4.427  -1.176   0.990  0.00  0.00    +0.000 A 
ATOM      3  C   UNL     1       5.154   0.022   1.015  0.00  0.00    +0.000 A 
ATOM      4  C   UNL     1       6.552   0.013   1.030  0.00  0.00    +0.000 A 
ATOM      5  C   UNL     1       7.250  -1.195   1.038  0.00  0.00    +0.000 A 
ATOM      6  C   UNL     1       6.538  -2.393   1.036  0.00  0.00    +0.000 A 
ATOM      7  C   UNL     1       5.139  -2.387   1.026  0.00  0.00    +0.000 A 
BRANCH   5   8
ATOM      8  O   UNL     1       8.618  -1.313   1.000  0.00  0.00    +0.000 OA
BRANCH   8   9
ATOM      9  C   UNL     1       9.310  -0.258   1.672  0.00  0.00    +0.000 C 
BRANCH   9  10
ATOM     10  C   UNL     1      10.826  -0.527   1.675  0.00  0.00    +0.000 C 
BRANCH  10  11
ATOM     11  N   UNL     1      11.581   0.563   2.314  0.00  0.00    +0.000 NA
ATOM     12  C   UNL     1      11.248   0.739   3.739  0.00  0.00    +0.000 C 
ATOM     13  C   UNL     1      12.022   1.923   4.360  0.00  0.00    +0.000 C 
ATOM     14  N   UNL     1      13.488   1.833   4.230  0.00  0.00    +0.000 NA
ATOM     15  C   UNL     1      14.039   0.829   5.136  0.00  0.00    +0.000 C 
ATOM     16  C   UNL     1      13.829   1.545   2.821  0.00  0.00    +0.000 C 
ATOM     17  C   UNL     1      13.039   0.378   2.172  0.00  0.00    +0.000 C 
ENDBRANCH  10  11
ENDBRANCH   9  10
ENDBRANCH   8   9
ENDBRANCH   5   8
ENDBRANCH   1   2
BRANCH   1  18
ATOM     18  N   UNL     1       2.315  -1.688   2.075  0.00  0.00    +0.000 N 
ATOM     19  C   UNL     1       1.128  -1.264   2.608  0.00  0.00    +0.000 C 
ATOM     20  O   UNL     1       0.511  -0.296   2.167  0.00  0.00    +0.000 OA
ATOM     21  H   UNL     1       2.678  -2.589   2.368  0.00  0.00    +0.000 HD
BRANCH  19  22
ATOM     22  C   UNL     1       0.639  -2.012   3.777  0.00  0.00    +0.000 A 
ATOM     23  C   UNL     1      -0.148  -1.384   4.732  0.00  0.00    +0.000 A 
ATOM     24  S   UNL     1      -0.660  -2.425   5.984  0.00  0.00    +0.000 S 
ATOM     25  C   UNL     1       0.135  -3.755   5.282  0.00  0.00    +0.000 A 
ATOM     26  N   UNL     1       0.053  -4.992   5.836  0.00  0.00    +0.000 NA
ATOM     27  C   UNL     1       0.696  -5.912   5.186  0.00  0.00    +0.000 A 
ATOM     28  N   UNL     1       1.436  -5.713   4.042  0.00  0.00    +0.000 N 
ATOM     29  C   UNL     1       2.173  -6.803   3.437  0.00  0.00    +0.000 C 
ATOM     30  C   UNL     1       1.570  -4.452   3.475  0.00  0.00    +0.000 A 
ATOM     31  O   UNL     1       2.293  -4.240   2.501  0.00  0.00    +0.000 OA
ATOM     32  C   UNL     1       0.822  -3.400   4.136  0.00  0.00    +0.000 A 
ENDBRANCH  19  22
ENDBRANCH   1  18
BRANCH   1  34
ATOM     33  C   UNL     1       2.952  -1.322  -1.694  0.00  0.00    +0.000 C 
ATOM     34  C   UNL     1       2.399  -1.875  -0.383  0.00  0.00    +0.000 C 
ENDBRANCH   1  34
TORSDOF 8
