REMARK  Name = 
REMARK  9 active torsions:
REMARK  status: ('A' for Active; 'I' for Inactive)
REMARK    1  A    between atoms: C_1  and  O_2
REMARK    2  A    between atoms: O_2  and  C_3
REMARK    3  A    between atoms: C_10  and  C_11
REMARK    4  A    between atoms: N_13  and  C_14
REMARK    5  A    between atoms: C_14  and  C_15
REMARK    6  A    between atoms: C_18  and  C_19
REMARK    7  A    between atoms: C_19  and  O_20
REMARK    8  A    between atoms: O_20  and  C_21
REMARK    9  A    between atoms: C_21  and  C_22
REMARK                            x       y       z     vdW  Elec       q    Type
REMARK                         _______ _______ _______ _____ _____    ______ ____
ROOT
ATOM      1  C   UNL     1       2.975  -2.563  -2.235  0.00  0.00    +0.000 C 
ENDROOT
BRANCH   1   2
ATOM      2  C   UNL     1       1.843  -3.110  -1.407  0.00  0.00    +0.000 A 
ATOM      3  C   UNL     1       1.807  -4.464  -1.049  0.00  0.00    +0.000 A 
ATOM      4  C   UNL     1       0.801  -4.949  -0.209  0.00  0.00    +0.000 A 
ATOM      5  C   UNL     1      -0.197  -4.095   0.283  0.00  0.00    +0.000 A 
ATOM      6  C   UNL     1      -0.190  -2.753  -0.119  0.00  0.00    +0.000 A 
ATOM      7  C   UNL     1       0.817  -2.267  -0.960  0.00  0.00    +0.000 A 
BRANCH   5   8
ATOM      8  C   UNL     1      -1.236  -4.608   1.248  0.00  0.00    +0.000 C 
BRANCH   8   9
ATOM      9  O   UNL     1      -0.562  -5.092   2.404  0.00  0.00    +0.000 OA
BRANCH   9  10
ATOM     10  C   UNL     1      -1.471  -5.514   3.424  0.00  0.00    +0.000 C 
BRANCH  10  11
ATOM     11  C   UNL     1      -0.719  -6.007   4.642  0.00  0.00    +0.000 A 
ATOM     12  C   UNL     1       0.504  -5.442   5.002  0.00  0.00    +0.000 A 
ATOM     13  C   UNL     1       1.161  -5.910   6.136  0.00  0.00    +0.000 A 
ATOM     14  C   UNL     1       0.578  -6.918   6.891  0.00  0.00    +0.000 A 
ATOM     15  C   UNL     1      -0.648  -7.414   6.481  0.00  0.00    +0.000 A 
ATOM     16  N   UNL     1      -1.310  -6.981   5.384  0.00  0.00    +0.000 NA
ENDBRANCH  10  11
ENDBRANCH   9  10
ENDBRANCH   8   9
ENDBRANCH   5   8
ENDBRANCH   1   2
BRANCH   1  19
ATOM     17  C   UNL     1       3.611  -2.142  -4.555  0.00  0.00    +0.000 C 
ATOM     18  O   UNL     1       4.668  -1.638  -4.182  0.00  0.00    +0.000 OA
ATOM     19  N   UNL     1       2.700  -2.618  -3.648  0.00  0.00    +0.000 N 
ATOM     20  H   UNL     1       1.842  -3.057  -3.955  0.00  0.00    +0.000 HD
BRANCH  17  28
ATOM     21  C   UNL     1       0.905  -3.376  -6.300  0.00  0.00    +0.000 A 
ATOM     22  N   UNL     1       0.027  -3.829  -7.218  0.00  0.00    +0.000 NA
ATOM     23  C   UNL     1       0.340  -3.693  -8.509  0.00  0.00    +0.000 A 
ATOM     24  N   UNL     1       1.442  -3.143  -9.011  0.00  0.00    +0.000 NA
ATOM     25  C   UNL     1       2.296  -2.720  -8.064  0.00  0.00    +0.000 A 
ATOM     26  S   UNL     1       3.754  -1.983  -8.525  0.00  0.00    +0.000 S 
ATOM     27  C   UNL     1       4.217  -1.777  -6.905  0.00  0.00    +0.000 A 
ATOM     28  C   UNL     1       3.289  -2.258  -5.986  0.00  0.00    +0.000 A 
ATOM     29  C   UNL     1       2.130  -2.805  -6.684  0.00  0.00    +0.000 A 
BRANCH  21  31
ATOM     30  C   UNL     1      -0.835  -3.556  -4.754  0.00  0.00    +0.000 C 
ATOM     31  O   UNL     1       0.575  -3.507  -4.966  0.00  0.00    +0.000 OA
ENDBRANCH  21  31
ENDBRANCH  17  28
ENDBRANCH   1  19
TORSDOF 8
