REMARK  Name = 
REMARK  8 active torsions:
REMARK  status: ('A' for Active; 'I' for Inactive)
REMARK    1  A    between atoms: C_1  and  C_2
REMARK    2  A    between atoms: C_2  and  N_3
REMARK    3  A    between atoms: C_2  and  C_25
REMARK    4  A    between atoms: N_3  and  C_4
REMARK    5  A    between atoms: C_4  and  C_5
REMARK    6  A    between atoms: C_8  and  C_9
REMARK    7  A    between atoms: C_9  and  N_10
REMARK    8  A    between atoms: C_11  and  C_13
REMARK                            x       y       z     vdW  Elec       q    Type
REMARK                         _______ _______ _______ _____ _____    ______ ____
ROOT
ATOM      1  C   UNL     1       3.034   3.695   0.281  0.00  0.00    +0.000 A 
ATOM      2  C   UNL     1       2.720   4.868  -0.419  0.00  0.00    +0.000 A 
ATOM      3  C   UNL     1       3.037   6.125   0.109  0.00  0.00    +0.000 A 
ATOM      4  C   UNL     1       3.675   6.235   1.351  0.00  0.00    +0.000 A 
ATOM      5  C   UNL     1       3.968   5.067   2.064  0.00  0.00    +0.000 A 
ATOM      6  C   UNL     1       3.660   3.810   1.532  0.00  0.00    +0.000 A 
ENDROOT
BRANCH   1   7
ATOM      7  C   UNL     1       2.667   2.330  -0.267  0.00  0.00    +0.000 C 
BRANCH   7   8
ATOM      8  N   UNL     1       3.328   2.055  -1.540  0.00  0.00    +0.000 NA
ATOM      9  H   UNL     1       3.121   2.810  -2.194  0.00  0.00    +0.000 HD
BRANCH   8  11
ATOM     10  C   UNL     1       3.268  -0.441  -1.331  0.00  0.00    +0.000 C 
ATOM     11  C   UNL     1       2.909   0.792  -2.171  0.00  0.00    +0.000 C 
BRANCH  11  12
ATOM     12  C   UNL     1       3.554   0.688  -3.548  0.00  0.00    +0.000 A 
ATOM     13  C   UNL     1       2.769   0.580  -4.707  0.00  0.00    +0.000 A 
ATOM     14  C   UNL     1       3.369   0.528  -5.969  0.00  0.00    +0.000 A 
ATOM     15  C   UNL     1       4.757   0.581  -6.088  0.00  0.00    +0.000 A 
ATOM     16  C   UNL     1       5.549   0.675  -4.947  0.00  0.00    +0.000 A 
ATOM     17  C   UNL     1       4.952   0.728  -3.688  0.00  0.00    +0.000 A 
ENDBRANCH  11  12
ENDBRANCH   8  11
ENDBRANCH   7   8
ENDBRANCH   1   7
BRANCH   4  18
ATOM     18  C   UNL     1       3.982   7.586   1.944  0.00  0.00    +0.000 C 
BRANCH  18  19
ATOM     19  N   UNL     1       2.871   8.059   2.729  0.00  0.00    +0.000 N 
ATOM     20  C   UNL     1       2.877   9.301   3.307  0.00  0.00    +0.000 C 
ATOM     21  O   UNL     1       3.810  10.086   3.158  0.00  0.00    +0.000 OA
ATOM     22  H   UNL     1       2.206   7.362   3.047  0.00  0.00    +0.000 HD
BRANCH  20  23
ATOM     23  C   UNL     1       1.672   9.676   4.058  0.00  0.00    +0.000 A 
ATOM     24  C   UNL     1       1.376  11.018   4.256  0.00  0.00    +0.000 A 
ATOM     25  S   UNL     1      -0.094  11.279   5.081  0.00  0.00    +0.000 S 
ATOM     26  C   UNL     1      -0.357   9.607   5.254  0.00  0.00    +0.000 A 
ATOM     27  N   UNL     1      -1.459   9.137   5.899  0.00  0.00    +0.000 NA
ATOM     28  C   UNL     1      -1.518   7.849   5.984  0.00  0.00    +0.000 A 
ATOM     29  N   UNL     1      -0.576   6.990   5.482  0.00  0.00    +0.000 N 
ATOM     30  C   UNL     1       0.537   7.417   4.799  0.00  0.00    +0.000 A 
ATOM     31  O   UNL     1       1.341   6.620   4.331  0.00  0.00    +0.000 OA
ATOM     32  C   UNL     1       0.655   8.860   4.679  0.00  0.00    +0.000 A 
ATOM     33  H   UNL     1      -0.681   5.991   5.581  0.00  0.00    +0.000 HD
ENDBRANCH  20  23
ENDBRANCH  18  19
ENDBRANCH   4  18
TORSDOF 7
