REMARK  Name = 
REMARK  5 active torsions:
REMARK  status: ('A' for Active; 'I' for Inactive)
REMARK    1  A    between atoms: N_1  and  C_2
REMARK    2  A    between atoms: C_2  and  C_3
REMARK    3  A    between atoms: C_6  and  C_7
REMARK    4  A    between atoms: C_7  and  N_8
REMARK    5  A    between atoms: C_13  and  N_14
REMARK                            x       y       z     vdW  Elec       q    Type
REMARK                         _______ _______ _______ _____ _____    ______ ____
ROOT
ATOM      1  C   UNL     1       4.161  -0.747   5.435  0.00  0.00    +0.000 C 
ENDROOT
BRANCH   1   2
ATOM      2  N   UNL     1       3.017  -0.751   6.317  0.00  0.00    +0.000 N 
ATOM      3  C   UNL     1       3.272  -0.888   7.676  0.00  0.00    +0.000 A 
ATOM      4  N   UNL     1       4.431  -0.468   8.203  0.00  0.00    +0.000 NA
ATOM      5  C   UNL     1       4.535  -0.534   9.545  0.00  0.00    +0.000 A 
ATOM      6  C   UNL     1       3.540  -1.011  10.360  0.00  0.00    +0.000 A 
ATOM      7  C   UNL     1       2.419  -1.474   9.718  0.00  0.00    +0.000 A 
ATOM      8  N   UNL     1       2.274  -1.422   8.391  0.00  0.00    +0.000 NA
ATOM      9  H   UNL     1       2.292  -1.428   6.098  0.00  0.00    +0.000 HD
BRANCH   7  10
ATOM     10  N   UNL     1       1.332  -1.949  10.455  0.00  0.00    +0.000 N 
ATOM     11  H   UNL     1       1.592  -2.619  11.165  0.00  0.00    +0.000 HD
ATOM     12  H   UNL     1       0.647  -2.315   9.798  0.00  0.00    +0.000 HD
ENDBRANCH   7  10
ENDBRANCH   1   2
BRANCH   1  16
ATOM     13  C   UNL     1       2.877  -0.272   1.299  0.00  0.00    +0.000 A 
ATOM     14  C   UNL     1       3.200   0.848   2.077  0.00  0.00    +0.000 A 
ATOM     15  C   UNL     1       3.611   0.704   3.408  0.00  0.00    +0.000 A 
ATOM     16  C   UNL     1       3.713  -0.566   3.995  0.00  0.00    +0.000 A 
ATOM     17  C   UNL     1       3.383  -1.684   3.215  0.00  0.00    +0.000 A 
ATOM     18  C   UNL     1       2.975  -1.541   1.884  0.00  0.00    +0.000 A 
BRANCH  13  19
ATOM     19  C   UNL     1       2.414  -0.109  -0.127  0.00  0.00    +0.000 C 
BRANCH  19  20
ATOM     20  N   UNL     1       3.408   0.581  -0.937  0.00  0.00    +0.000 NA
ATOM     21  H   UNL     1       3.136   0.534  -1.915  0.00  0.00    +0.000 HD
ATOM     22  H   UNL     1       4.295   0.085  -0.855  0.00  0.00    +0.000 HD
ENDBRANCH  19  20
ENDBRANCH  13  19
ENDBRANCH   1  16
TORSDOF 5
