REMARK  Name = 
REMARK  4 active torsions:
REMARK  status: ('A' for Active; 'I' for Inactive)
REMARK    1  A    between atoms: C_2  and  C_4
REMARK    2  A    between atoms: N_8  and  C_9
REMARK    3  A    between atoms: C_9  and  C_10
REMARK    4  A    between atoms: C_14  and  C_15
REMARK                            x       y       z     vdW  Elec       q    Type
REMARK                         _______ _______ _______ _____ _____    ______ ____
ROOT
ATOM      1  C   UNL     1       5.315  -5.961   0.724  0.00  0.00    +0.000 C 
ENDROOT
BRANCH   1   6
ATOM      2  C   UNL     1       7.935  -2.251  -1.754  0.00  0.00    +0.000 A 
ATOM      3  C   UNL     1       7.671  -3.564  -2.129  0.00  0.00    +0.000 A 
ATOM      4  C   UNL     1       6.938  -4.382  -1.266  0.00  0.00    +0.000 A 
ATOM      5  C   UNL     1       6.485  -3.880  -0.050  0.00  0.00    +0.000 A 
ATOM      6  N   UNL     1       5.734  -4.589   0.837  0.00  0.00    +0.000 N 
ATOM      7  N   UNL     1       6.764  -2.617   0.331  0.00  0.00    +0.000 NA
ATOM      8  C   UNL     1       7.481  -1.833  -0.515  0.00  0.00    +0.000 A 
ATOM      9  H   UNL     1       5.553  -4.091   1.698  0.00  0.00    +0.000 HD
BRANCH   2  11
ATOM     10  N   UNL     1       8.637  -1.513  -3.957  0.00  0.00    +0.000 N 
ATOM     11  C   UNL     1       8.681  -1.304  -2.606  0.00  0.00    +0.000 C 
ATOM     12  O   UNL     1       9.283  -0.351  -2.130  0.00  0.00    +0.000 OA
ATOM     13  H   UNL     1       9.060  -0.796  -4.534  0.00  0.00    +0.000 HD
ATOM     14  H   UNL     1       7.956  -2.119  -4.392  0.00  0.00    +0.000 HD
ENDBRANCH   2  11
ENDBRANCH   1   6
BRANCH   1  15
ATOM     15  C   UNL     1       6.305  -6.963   1.276  0.00  0.00    +0.000 A 
ATOM     16  C   UNL     1       7.511  -6.609   1.889  0.00  0.00    +0.000 A 
ATOM     17  C   UNL     1       8.354  -7.590   2.409  0.00  0.00    +0.000 A 
ATOM     18  C   UNL     1       7.997  -8.938   2.334  0.00  0.00    +0.000 A 
ATOM     19  C   UNL     1       6.790  -9.339   1.740  0.00  0.00    +0.000 A 
ATOM     20  C   UNL     1       5.967  -8.329   1.205  0.00  0.00    +0.000 A 
BRANCH  19  21
ATOM     21  C   UNL     1       6.373 -10.756   1.709  0.00  0.00    +0.000 A 
ATOM     22  C   UNL     1       6.609 -11.621   2.786  0.00  0.00    +0.000 A 
ATOM     23  N   UNL     1       6.230 -12.924   2.845  0.00  0.00    +0.000 NA
ATOM     24  C   UNL     1       5.564 -13.403   1.772  0.00  0.00    +0.000 A 
ATOM     25  C   UNL     1       5.277 -12.640   0.656  0.00  0.00    +0.000 A 
ATOM     26  F   UNL     1       4.605 -13.166  -0.375  0.00  0.00    +0.000 F 
ATOM     27  C   UNL     1       5.687 -11.312   0.619  0.00  0.00    +0.000 A 
ENDBRANCH  19  21
ENDBRANCH   1  15
TORSDOF 4
