REMARK  Name = 
REMARK  4 active torsions:
REMARK  status: ('A' for Active; 'I' for Inactive)
REMARK    1  A    between atoms: C_2  and  C_4
REMARK    2  A    between atoms: N_8  and  C_9
REMARK    3  A    between atoms: C_9  and  C_10
REMARK    4  A    between atoms: C_10  and  C_11
REMARK                            x       y       z     vdW  Elec       q    Type
REMARK                         _______ _______ _______ _____ _____    ______ ____
ROOT
ATOM      1  C   UNL     1       2.921  -1.024  -1.238  0.00  0.00    +0.000 A 
ATOM      2  C   UNL     1       4.145  -1.414  -0.702  0.00  0.00    +0.000 A 
ATOM      3  C   UNL     1       4.907  -2.369  -1.380  0.00  0.00    +0.000 A 
ATOM      4  C   UNL     1       4.464  -2.872  -2.604  0.00  0.00    +0.000 A 
ATOM      5  N   UNL     1       5.260  -3.826  -3.266  0.00  0.00    +0.000 N 
ATOM      6  N   UNL     1       3.266  -2.518  -3.111  0.00  0.00    +0.000 NA
ATOM      7  C   UNL     1       2.513  -1.626  -2.417  0.00  0.00    +0.000 A 
ATOM      8  H   UNL     1       6.240  -3.652  -3.068  0.00  0.00    +0.000 HD
ENDROOT
BRANCH   1  10
ATOM      9  N   UNL     1       2.647   0.963   0.128  0.00  0.00    +0.000 N 
ATOM     10  C   UNL     1       2.043  -0.020  -0.606  0.00  0.00    +0.000 C 
ATOM     11  O   UNL     1       0.830  -0.034  -0.768  0.00  0.00    +0.000 OA
ATOM     12  H   UNL     1       2.046   1.712   0.450  0.00  0.00    +0.000 HD
ATOM     13  H   UNL     1       3.637   1.156   0.065  0.00  0.00    +0.000 HD
ENDBRANCH   1  10
BRANCH   5  14
ATOM     14  C   UNL     1       5.012  -3.869  -4.715  0.00  0.00    +0.000 C 
BRANCH  14  15
ATOM     15  C   UNL     1       5.969  -4.870  -5.373  0.00  0.00    +0.000 C 
BRANCH  15  16
ATOM     16  C   UNL     1       5.810  -4.926  -6.872  0.00  0.00    +0.000 A 
ATOM     17  C   UNL     1       6.565  -4.089  -7.706  0.00  0.00    +0.000 A 
ATOM     18  C   UNL     1       6.414  -4.148  -9.092  0.00  0.00    +0.000 A 
ATOM     19  C   UNL     1       5.511  -5.046  -9.661  0.00  0.00    +0.000 A 
ATOM     20  C   UNL     1       4.749  -5.873  -8.840  0.00  0.00    +0.000 A 
ATOM     21  C   UNL     1       4.894  -5.814  -7.456  0.00  0.00    +0.000 A 
ENDBRANCH  15  16
ENDBRANCH  14  15
ENDBRANCH   5  14
TORSDOF 4
