REMARK  Name = 
REMARK  4 active torsions:
REMARK  status: ('A' for Active; 'I' for Inactive)
REMARK    1  A    between atoms: N_1  and  C_2
REMARK    2  A    between atoms: C_2  and  C_3
REMARK    3  A    between atoms: N_6  and  C_7
REMARK    4  A    between atoms: C_7  and  C_8
REMARK                            x       y       z     vdW  Elec       q    Type
REMARK                         _______ _______ _______ _____ _____    ______ ____
ROOT
ATOM      1  C   UNL     1       3.493  -1.841  -4.038  0.00  0.00    +0.000 C 
ENDROOT
BRANCH   1   2
ATOM      2  C   UNL     1       4.550  -1.260  -4.945  0.00  0.00    +0.000 A 
ATOM      3  C   UNL     1       5.857  -1.690  -5.068  0.00  0.00    +0.000 A 
ATOM      4  N   UNL     1       6.474  -0.941  -6.031  0.00  0.00    +0.000 N 
ATOM      5  C   UNL     1       5.583  -0.050  -6.582  0.00  0.00    +0.000 A 
ATOM      6  C   UNL     1       5.753   0.855  -7.640  0.00  0.00    +0.000 A 
ATOM      7  C   UNL     1       4.657   1.639  -8.005  0.00  0.00    +0.000 A 
ATOM      8  C   UNL     1       3.457   1.548  -7.307  0.00  0.00    +0.000 A 
ATOM      9 CL   UNL     1       2.121   2.525  -7.785  0.00  0.00    +0.000 Cl
ATOM     10  C   UNL     1       3.305   0.658  -6.236  0.00  0.00    +0.000 A 
ATOM     11  C   UNL     1       4.383  -0.187  -5.886  0.00  0.00    +0.000 A 
ATOM     12  H   UNL     1       7.434  -1.045  -6.324  0.00  0.00    +0.000 HD
ENDBRANCH   1   2
BRANCH   1  16
ATOM     13  C   UNL     1       3.308  -0.888   0.179  0.00  0.00    +0.000 C 
ATOM     14  C   UNL     1       4.452  -0.344  -0.683  0.00  0.00    +0.000 C 
ATOM     15  C   UNL     1       4.108  -0.407  -2.176  0.00  0.00    +0.000 C 
ATOM     16  N   UNL     1       3.880  -1.790  -2.614  0.00  0.00    +0.000 NA
ATOM     17  C   UNL     1       2.831  -2.453  -1.812  0.00  0.00    +0.000 C 
ATOM     18  C   UNL     1       3.005  -2.319  -0.292  0.00  0.00    +0.000 C 
BRANCH  13  19
ATOM     19  C   UNL     1       2.120   0.095   0.139  0.00  0.00    +0.000 C 
BRANCH  19  20
ATOM     20  N   UNL     1       0.982  -0.302   0.960  0.00  0.00    +0.000 NA
ATOM     21  H   UNL     1       0.215   0.347   0.797  0.00  0.00    +0.000 HD
ATOM     22  H   UNL     1       1.224  -0.189   1.946  0.00  0.00    +0.000 HD
ENDBRANCH  19  20
ENDBRANCH  13  19
ENDBRANCH   1  16
TORSDOF 4
