REMARK  Name = 
REMARK  7 active torsions:
REMARK  status: ('A' for Active; 'I' for Inactive)
REMARK    1  A    between atoms: C_2  and  C_4
REMARK    2  A    between atoms: C_7  and  N_8
REMARK    3  A    between atoms: N_8  and  C_9
REMARK    4  A    between atoms: C_9  and  C_10
REMARK    5  A    between atoms: C_10  and  C_13
REMARK    6  A    between atoms: C_15  and  C_16
REMARK    7  A    between atoms: C_19  and  C_20
REMARK                            x       y       z     vdW  Elec       q    Type
REMARK                         _______ _______ _______ _____ _____    ______ ____
ROOT
ATOM      1  C   UNL     1       6.218  -4.232   5.587  0.00  0.00    +0.000 C 
ATOM      2  F   UNL     1       7.460  -4.290   5.014  0.00  0.00    +0.000 F 
ATOM      3  F   UNL     1       6.315  -3.244   6.537  0.00  0.00    +0.000 F 
ENDROOT
BRANCH   1   4
ATOM      4  C   UNL     1       5.823  -5.566   6.208  0.00  0.00    +0.000 A 
ATOM      5  C   UNL     1       6.649  -6.120   7.187  0.00  0.00    +0.000 A 
ATOM      6  C   UNL     1       6.302  -7.332   7.805  0.00  0.00    +0.000 A 
ATOM      7  C   UNL     1       5.113  -7.941   7.382  0.00  0.00    +0.000 A 
ATOM      8  C   UNL     1       4.353  -7.343   6.390  0.00  0.00    +0.000 A 
ATOM      9  N   UNL     1       4.677  -6.177   5.803  0.00  0.00    +0.000 NA
BRANCH   6  10
ATOM     10  C   UNL     1       7.153  -7.942   8.854  0.00  0.00    +0.000 A 
ATOM     11  C   UNL     1       7.900  -7.153   9.748  0.00  0.00    +0.000 A 
ATOM     12  C   UNL     1       8.712  -7.729  10.731  0.00  0.00    +0.000 A 
ATOM     13  C   UNL     1       8.794  -9.120  10.866  0.00  0.00    +0.000 A 
ATOM     14  C   UNL     1       8.048  -9.919   9.989  0.00  0.00    +0.000 A 
ATOM     15  C   UNL     1       7.249  -9.337   8.999  0.00  0.00    +0.000 A 
BRANCH  13  16
ATOM     16  C   UNL     1       9.660  -9.760  11.918  0.00  0.00    +0.000 C 
ATOM     17  F   UNL     1      10.357  -8.864  12.672  0.00  0.00    +0.000 F 
ATOM     18  F   UNL     1       8.940 -10.508  12.799  0.00  0.00    +0.000 F 
ATOM     19  F   UNL     1      10.590 -10.601  11.387  0.00  0.00    +0.000 F 
ENDBRANCH  13  16
ENDBRANCH   6  10
ENDBRANCH   1   4
BRANCH   1  20
ATOM     20  C   UNL     1       5.191  -3.774   4.527  0.00  0.00    +0.000 C 
BRANCH  20  21
ATOM     21  N   UNL     1       5.519  -2.476   3.911  0.00  0.00    +0.000 N 
ATOM     22  H   UNL     1       5.914  -1.790   4.553  0.00  0.00    +0.000 HD
BRANCH  21  26
ATOM     23  C   UNL     1       3.237  -0.830   0.773  0.00  0.00    +0.000 A 
ATOM     24  C   UNL     1       2.822  -2.024   1.366  0.00  0.00    +0.000 A 
ATOM     25  C   UNL     1       3.556  -2.569   2.427  0.00  0.00    +0.000 A 
ATOM     26  C   UNL     1       4.692  -1.926   2.935  0.00  0.00    +0.000 A 
ATOM     27  C   UNL     1       5.094  -0.731   2.324  0.00  0.00    +0.000 A 
ATOM     28  C   UNL     1       4.382  -0.188   1.250  0.00  0.00    +0.000 A 
BRANCH  23  30
ATOM     29  N   UNL     1       1.194  -0.520  -0.515  0.00  0.00    +0.000 N 
ATOM     30  C   UNL     1       2.527  -0.246  -0.393  0.00  0.00    +0.000 C 
ATOM     31  O   UNL     1       3.098   0.475  -1.200  0.00  0.00    +0.000 OA
ATOM     32  H   UNL     1       0.706  -0.036  -1.258  0.00  0.00    +0.000 HD
ATOM     33  H   UNL     1       0.644  -0.890   0.246  0.00  0.00    +0.000 HD
ENDBRANCH  23  30
ENDBRANCH  21  26
ENDBRANCH  20  21
ENDBRANCH   1  20
TORSDOF 7
