REMARK  Name = 
REMARK  6 active torsions:
REMARK  status: ('A' for Active; 'I' for Inactive)
REMARK    1  A    between atoms: C_2  and  C_26
REMARK    2  A    between atoms: N_3  and  C_4
REMARK    3  A    between atoms: C_4  and  C_5
REMARK    4  A    between atoms: C_8  and  C_9
REMARK    5  A    between atoms: C_9  and  N_10
REMARK    6  A    between atoms: C_11  and  C_13
REMARK                            x       y       z     vdW  Elec       q    Type
REMARK                         _______ _______ _______ _____ _____    ______ ____
ROOT
ATOM      1  C   UNL     1       3.349   0.152   3.520  0.00  0.00    +0.000 A 
ATOM      2  C   UNL     1       3.816   1.360   4.057  0.00  0.00    +0.000 A 
ATOM      3  C   UNL     1       4.710   1.365   5.133  0.00  0.00    +0.000 A 
ATOM      4  C   UNL     1       5.151   0.161   5.699  0.00  0.00    +0.000 A 
ATOM      5  C   UNL     1       4.698  -1.037   5.145  0.00  0.00    +0.000 A 
ATOM      6  F   UNL     1       5.110  -2.208   5.652  0.00  0.00    +0.000 F 
ATOM      7  C   UNL     1       3.811  -1.052   4.069  0.00  0.00    +0.000 A 
ENDROOT
BRANCH   1   8
ATOM      8  C   UNL     1       2.364   0.149   2.384  0.00  0.00    +0.000 C 
BRANCH   8  11
ATOM      9  O   UNL     1       1.002   0.139   0.004  0.00  0.00    +0.000 OA
ATOM     10  C   UNL     1       2.229   0.154  -0.051  0.00  0.00    +0.000 C 
ATOM     11  N   UNL     1       3.001   0.162   1.092  0.00  0.00    +0.000 N 
ATOM     12  H   UNL     1       4.008   0.217   1.002  0.00  0.00    +0.000 HD
BRANCH  10  13
ATOM     13  C   UNL     1       2.958   0.175  -1.301  0.00  0.00    +0.000 A 
ATOM     14  C   UNL     1       2.490   0.231  -2.602  0.00  0.00    +0.000 A 
ATOM     15  C   UNL     1       3.622   0.206  -3.447  0.00  0.00    +0.000 A 
ATOM     16  C   UNL     1       4.715   0.132  -2.614  0.00  0.00    +0.000 A 
ATOM     17  O   UNL     1       4.328   0.120  -1.311  0.00  0.00    +0.000 OA
ENDBRANCH  10  13
ENDBRANCH   8  11
ENDBRANCH   1   8
BRANCH   4  18
ATOM     18  C   UNL     1       6.121   0.163   6.846  0.00  0.00    +0.000 C 
BRANCH  18  19
ATOM     19  N   UNL     1       7.487   0.181   6.382  0.00  0.00    +0.000 N 
ATOM     20  C   UNL     1       8.534   0.124   7.264  0.00  0.00    +0.000 C 
ATOM     21  O   UNL     1       8.359   0.039   8.477  0.00  0.00    +0.000 OA
ATOM     22  H   UNL     1       7.655   0.439   5.415  0.00  0.00    +0.000 HD
BRANCH  20  23
ATOM     23  C   UNL     1       9.882   0.111   6.684  0.00  0.00    +0.000 A 
ATOM     24  C   UNL     1      10.934  -0.437   7.406  0.00  0.00    +0.000 A 
ATOM     25  S   UNL     1      12.423  -0.407   6.576  0.00  0.00    +0.000 S 
ATOM     26  C   UNL     1      11.725   0.380   5.240  0.00  0.00    +0.000 A 
ATOM     27  N   UNL     1      12.478   0.726   4.162  0.00  0.00    +0.000 NA
ATOM     28  C   UNL     1      11.828   1.344   3.233  0.00  0.00    +0.000 A 
ATOM     29  N   UNL     1      10.491   1.644   3.283  0.00  0.00    +0.000 N 
ATOM     30  C   UNL     1       9.684   1.286   4.337  0.00  0.00    +0.000 A 
ATOM     31  O   UNL     1       8.480   1.525   4.327  0.00  0.00    +0.000 OA
ATOM     32  C   UNL     1      10.370   0.601   5.416  0.00  0.00    +0.000 A 
ATOM     33  H   UNL     1      10.041   2.121   2.517  0.00  0.00    +0.000 HD
ENDBRANCH  20  23
ENDBRANCH  18  19
ENDBRANCH   4  18
TORSDOF 6
