REMARK  Name = 
REMARK  7 active torsions:
REMARK  status: ('A' for Active; 'I' for Inactive)
REMARK    1  A    between atoms: C_1  and  C_2
REMARK    2  A    between atoms: C_6  and  S_7
REMARK    3  A    between atoms: S_7  and  C_8
REMARK    4  A    between atoms: C_8  and  C_9
REMARK    5  A    between atoms: C_12  and  C_13
REMARK    6  A    between atoms: C_13  and  N_14
REMARK    7  A    between atoms: C_15  and  C_17
REMARK                            x       y       z     vdW  Elec       q    Type
REMARK                         _______ _______ _______ _____ _____    ______ ____
ROOT
ATOM      1  C   UNL     1      -6.221   7.829   0.281  0.00  0.00    +0.000 C 
ENDROOT
BRANCH   1   5
ATOM      2  C   UNL     1      -4.209   3.993   0.030  0.00  0.00    +0.000 A 
ATOM      3  C   UNL     1      -5.550   4.084   0.442  0.00  0.00    +0.000 A 
ATOM      4  C   UNL     1      -6.199   5.317   0.514  0.00  0.00    +0.000 A 
ATOM      5  C   UNL     1      -5.520   6.499   0.202  0.00  0.00    +0.000 A 
ATOM      6  C   UNL     1      -4.164   6.425  -0.138  0.00  0.00    +0.000 A 
ATOM      7  C   UNL     1      -3.519   5.187  -0.227  0.00  0.00    +0.000 A 
BRANCH   2   8
ATOM      8  C   UNL     1      -3.475   2.669  -0.057  0.00  0.00    +0.000 C 
BRANCH   8   9
ATOM      9  S   UNL     1      -4.508   1.277  -0.646  0.00  0.00    +0.000 S 
BRANCH   9  15
ATOM     10  C   UNL     1       0.190  -0.425   0.357  0.00  0.00    +0.000 C 
ATOM     11  C   UNL     1      -1.198  -0.800  -0.058  0.00  0.00    +0.000 A 
ATOM     12  C   UNL     1      -1.539  -2.116  -0.346  0.00  0.00    +0.000 A 
ATOM     13  C   UNL     1      -2.847  -2.397  -0.725  0.00  0.00    +0.000 A 
ATOM     14  C   UNL     1      -3.770  -1.358  -0.809  0.00  0.00    +0.000 A 
ATOM     15  C   UNL     1      -3.350  -0.068  -0.513  0.00  0.00    +0.000 A 
ATOM     16  N   UNL     1      -2.086   0.218  -0.138  0.00  0.00    +0.000 NA
ENDBRANCH   9  15
ENDBRANCH   8   9
ENDBRANCH   2   8
ENDBRANCH   1   5
BRANCH   1  17
ATOM     17  N   UNL     1      -6.108   8.397   1.599  0.00  0.00    +0.000 N 
ATOM     18  C   UNL     1      -6.735   9.572   1.923  0.00  0.00    +0.000 C 
ATOM     19  O   UNL     1      -7.451  10.170   1.124  0.00  0.00    +0.000 OA
ATOM     20  H   UNL     1      -5.360   8.047   2.189  0.00  0.00    +0.000 HD
BRANCH  18  21
ATOM     21  C   UNL     1      -6.556  10.052   3.299  0.00  0.00    +0.000 A 
ATOM     22  C   UNL     1      -7.497  10.909   3.854  0.00  0.00    +0.000 A 
ATOM     23  S   UNL     1      -7.168  11.331   5.473  0.00  0.00    +0.000 S 
ATOM     24  C   UNL     1      -5.727  10.424   5.472  0.00  0.00    +0.000 A 
ATOM     25  N   UNL     1      -4.929  10.380   6.573  0.00  0.00    +0.000 NA
ATOM     26  C   UNL     1      -3.856   9.678   6.425  0.00  0.00    +0.000 A 
ATOM     27  N   UNL     1      -3.512   9.011   5.278  0.00  0.00    +0.000 N 
ATOM     28  C   UNL     1      -4.297   9.005   4.150  0.00  0.00    +0.000 A 
ATOM     29  O   UNL     1      -3.976   8.369   3.156  0.00  0.00    +0.000 OA
ATOM     30  C   UNL     1      -5.512   9.790   4.260  0.00  0.00    +0.000 A 
ATOM     31  H   UNL     1      -2.659   8.470   5.230  0.00  0.00    +0.000 HD
ENDBRANCH  18  21
ENDBRANCH   1  17
TORSDOF 6
