REMARK  Name = 
REMARK  5 active torsions:
REMARK  status: ('A' for Active; 'I' for Inactive)
REMARK    1  A    between atoms: N_1  and  C_2
REMARK    2  A    between atoms: C_2  and  C_3
REMARK    3  A    between atoms: C_6  and  C_7
REMARK    4  A    between atoms: C_8  and  C_9
REMARK    5  A    between atoms: C_12  and  C_13
REMARK                            x       y       z     vdW  Elec       q    Type
REMARK                         _______ _______ _______ _____ _____    ______ ____
ROOT
ATOM      1  C   UNL     1       3.670   3.637   4.313  0.00  0.00    +0.000 C 
ATOM      2  C   UNL     1       3.636   4.980   4.277  0.00  0.00    +0.000 C 
ENDROOT
BRANCH   1   6
ATOM      3  C   UNL     1       2.764   0.985   1.058  0.00  0.00    +0.000 A 
ATOM      4  C   UNL     1       3.318   2.247   0.804  0.00  0.00    +0.000 A 
ATOM      5  C   UNL     1       3.616   3.122   1.852  0.00  0.00    +0.000 A 
ATOM      6  C   UNL     1       3.351   2.760   3.178  0.00  0.00    +0.000 A 
ATOM      7  C   UNL     1       2.818   1.491   3.434  0.00  0.00    +0.000 A 
ATOM      8  C   UNL     1       2.523   0.613   2.386  0.00  0.00    +0.000 A 
BRANCH   3   9
ATOM      9  C   UNL     1       2.413   0.061  -0.080  0.00  0.00    +0.000 C 
BRANCH   9  10
ATOM     10  N   UNL     1       3.570  -0.229  -0.919  0.00  0.00    +0.000 NA
ATOM     11  H   UNL     1       3.321  -0.952  -1.590  0.00  0.00    +0.000 HD
ATOM     12  H   UNL     1       4.308  -0.619  -0.334  0.00  0.00    +0.000 HD
ENDBRANCH   9  10
ENDBRANCH   3   9
ENDBRANCH   1   6
BRANCH   2  13
ATOM     13  C   UNL     1       3.968   5.828   5.430  0.00  0.00    +0.000 A 
ATOM     14  C   UNL     1       3.940   7.214   5.314  0.00  0.00    +0.000 A 
ATOM     15  C   UNL     1       4.258   7.989   6.430  0.00  0.00    +0.000 A 
ATOM     16  C   UNL     1       4.595   7.365   7.633  0.00  0.00    +0.000 A 
ATOM     17  C   UNL     1       4.603   5.980   7.653  0.00  0.00    +0.000 A 
ATOM     18  N   UNL     1       4.298   5.207   6.587  0.00  0.00    +0.000 NA
BRANCH  16  19
ATOM     19  C   UNL     1       4.934   8.121   8.879  0.00  0.00    +0.000 C 
ATOM     20  F   UNL     1       4.881   9.473   8.725  0.00  0.00    +0.000 F 
ATOM     21  F   UNL     1       4.093   7.830   9.909  0.00  0.00    +0.000 F 
ATOM     22  F   UNL     1       6.188   7.846   9.332  0.00  0.00    +0.000 F 
ENDBRANCH  16  19
ENDBRANCH   2  13
TORSDOF 5
