REMARK  Name = 
REMARK  5 active torsions:
REMARK  status: ('A' for Active; 'I' for Inactive)
REMARK    1  A    between atoms: C_2  and  C_4
REMARK    2  A    between atoms: C_7  and  O_8
REMARK    3  A    between atoms: O_8  and  C_9
REMARK    4  A    between atoms: C_9  and  C_10
REMARK    5  A    between atoms: C_14  and  C_15
REMARK                            x       y       z     vdW  Elec       q    Type
REMARK                         _______ _______ _______ _____ _____    ______ ____
ROOT
ATOM      1  C   UNL     1       4.684   4.235  -4.152  0.00  0.00    +0.000 C 
ENDROOT
BRANCH   1   2
ATOM      2  C   UNL     1       5.468   4.872  -5.267  0.00  0.00    +0.000 A 
ATOM      3  C   UNL     1       6.246   4.091  -6.110  0.00  0.00    +0.000 A 
ATOM      4  N   UNL     1       6.946   4.576  -7.156  0.00  0.00    +0.000 NA
ATOM      5  C   UNL     1       6.860   5.911  -7.375  0.00  0.00    +0.000 A 
ATOM      6  C   UNL     1       6.095   6.806  -6.624  0.00  0.00    +0.000 A 
ATOM      7  C   UNL     1       5.382   6.240  -5.555  0.00  0.00    +0.000 A 
BRANCH   6   8
ATOM      8  C   UNL     1       6.032   8.252  -6.926  0.00  0.00    +0.000 A 
ATOM      9  C   UNL     1       6.120   8.736  -8.247  0.00  0.00    +0.000 A 
ATOM     10  C   UNL     1       6.061  10.105  -8.532  0.00  0.00    +0.000 A 
ATOM     11  C   UNL     1       5.898  11.024  -7.500  0.00  0.00    +0.000 A 
ATOM     12  C   UNL     1       5.802  10.564  -6.195  0.00  0.00    +0.000 A 
ATOM     13  F   UNL     1       5.639  11.442  -5.196  0.00  0.00    +0.000 F 
ATOM     14  C   UNL     1       5.874   9.205  -5.903  0.00  0.00    +0.000 A 
ENDBRANCH   6   8
ENDBRANCH   1   2
BRANCH   1  15
ATOM     15  O   UNL     1       4.562   5.133  -3.043  0.00  0.00    +0.000 OA
BRANCH  15  19
ATOM     16  C   UNL     1       2.314   3.566   0.029  0.00  0.00    +0.000 A 
ATOM     17  C   UNL     1       2.833   4.858   0.143  0.00  0.00    +0.000 A 
ATOM     18  C   UNL     1       3.599   5.379  -0.902  0.00  0.00    +0.000 A 
ATOM     19  C   UNL     1       3.815   4.586  -2.019  0.00  0.00    +0.000 A 
ATOM     20  N   UNL     1       3.338   3.329  -2.148  0.00  0.00    +0.000 NA
ATOM     21  C   UNL     1       2.607   2.843  -1.117  0.00  0.00    +0.000 A 
BRANCH  16  23
ATOM     22  N   UNL     1       0.744   3.749   1.871  0.00  0.00    +0.000 N 
ATOM     23  C   UNL     1       1.484   2.927   1.068  0.00  0.00    +0.000 C 
ATOM     24  O   UNL     1       1.420   1.710   1.178  0.00  0.00    +0.000 OA
ATOM     25  H   UNL     1       0.089   3.293   2.495  0.00  0.00    +0.000 HD
ATOM     26  H   UNL     1       0.568   4.718   1.642  0.00  0.00    +0.000 HD
ENDBRANCH  16  23
ENDBRANCH  15  19
ENDBRANCH   1  15
TORSDOF 5
