REMARK  Name = 
REMARK  7 active torsions:
REMARK  status: ('A' for Active; 'I' for Inactive)
REMARK    1  A    between atoms: C_2  and  C_4
REMARK    2  A    between atoms: C_7  and  N_8
REMARK    3  A    between atoms: N_8  and  C_9
REMARK    4  A    between atoms: C_9  and  C_10
REMARK    5  A    between atoms: C_10  and  C_13
REMARK    6  A    between atoms: C_17  and  O_18
REMARK    7  A    between atoms: O_18  and  C_19
REMARK                            x       y       z     vdW  Elec       q    Type
REMARK                         _______ _______ _______ _____ _____    ______ ____
ROOT
ATOM      1  C   UNL     1       5.553   3.373  -6.513  0.00  0.00    +0.000 C 
ATOM      2  F   UNL     1       5.913   2.467  -7.471  0.00  0.00    +0.000 F 
ATOM      3  F   UNL     1       4.574   2.752  -5.783  0.00  0.00    +0.000 F 
ENDROOT
BRANCH   1   4
ATOM      4  C   UNL     1       5.036   4.665  -7.137  0.00  0.00    +0.000 A 
ATOM      5  C   UNL     1       3.959   4.624  -8.033  0.00  0.00    +0.000 A 
ATOM      6  C   UNL     1       3.439   5.806  -8.576  0.00  0.00    +0.000 A 
ATOM      7  C   UNL     1       3.985   7.049  -8.235  0.00  0.00    +0.000 A 
ATOM      8  C   UNL     1       5.061   7.100  -7.362  0.00  0.00    +0.000 A 
ATOM      9  C   UNL     1       5.580   5.922  -6.828  0.00  0.00    +0.000 A 
BRANCH   8  10
ATOM     10  O   UNL     1       5.671   8.231  -6.892  0.00  0.00    +0.000 OA
BRANCH  10  11
ATOM     11  C   UNL     1       5.612   9.447  -7.666  0.00  0.00    +0.000 C 
ATOM     12  C   UNL     1       6.363   9.480  -9.010  0.00  0.00    +0.000 C 
ATOM     13  N   UNL     1       7.054  10.654  -8.521  0.00  0.00    +0.000 N 
ATOM     14  C   UNL     1       7.702  11.623  -9.206  0.00  0.00    +0.000 C 
ATOM     15  N   UNL     1       8.178  12.642  -8.449  0.00  0.00    +0.000 N 
ATOM     16  O   UNL     1       7.857  11.623 -10.420  0.00  0.00    +0.000 OA
ATOM     17  C   UNL     1       6.577  10.544  -7.165  0.00  0.00    +0.000 C 
ATOM     18  H   UNL     1       8.516  12.407  -7.528  0.00  0.00    +0.000 HD
ATOM     19  H   UNL     1       8.756  13.289  -8.971  0.00  0.00    +0.000 HD
ENDBRANCH  10  11
ENDBRANCH   8  10
ENDBRANCH   1   4
BRANCH   1  20
ATOM     20  C   UNL     1       6.762   3.605  -5.568  0.00  0.00    +0.000 C 
BRANCH  20  21
ATOM     21  N   UNL     1       7.297   2.406  -4.904  0.00  0.00    +0.000 N 
ATOM     22  H   UNL     1       6.580   1.744  -4.606  0.00  0.00    +0.000 HD
BRANCH  21  26
ATOM     23  C   UNL     1      10.551   2.648  -2.324  0.00  0.00    +0.000 A 
ATOM     24  C   UNL     1      10.124   3.824  -2.919  0.00  0.00    +0.000 A 
ATOM     25  C   UNL     1       9.021   3.767  -3.769  0.00  0.00    +0.000 A 
ATOM     26  C   UNL     1       8.342   2.561  -3.988  0.00  0.00    +0.000 A 
ATOM     27  C   UNL     1       8.869   1.442  -3.335  0.00  0.00    +0.000 A 
ATOM     28  N   UNL     1       9.945   1.445  -2.509  0.00  0.00    +0.000 NA
BRANCH  23  30
ATOM     29  N   UNL     1      12.179   1.434  -1.012  0.00  0.00    +0.000 N 
ATOM     30  C   UNL     1      11.769   2.662  -1.453  0.00  0.00    +0.000 C 
ATOM     31  O   UNL     1      12.367   3.690  -1.167  0.00  0.00    +0.000 OA
ATOM     32  H   UNL     1      13.016   1.357  -0.455  0.00  0.00    +0.000 HD
ATOM     33  H   UNL     1      11.673   0.607  -1.308  0.00  0.00    +0.000 HD
ENDBRANCH  23  30
ENDBRANCH  21  26
ENDBRANCH  20  21
ENDBRANCH   1  20
TORSDOF 7
