REMARK  Name = 
REMARK  4 active torsions:
REMARK  status: ('A' for Active; 'I' for Inactive)
REMARK    1  A    between atoms: N_1  and  C_2
REMARK    2  A    between atoms: C_2  and  C_3
REMARK    3  A    between atoms: C_6  and  C_7
REMARK    4  A    between atoms: C_7  and  N_8
REMARK                            x       y       z     vdW  Elec       q    Type
REMARK                         _______ _______ _______ _____ _____    ______ ____
ROOT
ATOM      1  C   UNL     1       2.495   1.404  -0.555  0.00  0.00    +0.000 A 
ATOM      2  C   UNL     1       3.826   1.782  -0.371  0.00  0.00    +0.000 A 
ATOM      3  C   UNL     1       4.352   2.854  -1.090  0.00  0.00    +0.000 A 
ATOM      4  C   UNL     1       3.537   3.523  -2.002  0.00  0.00    +0.000 A 
ATOM      5  N   UNL     1       2.243   3.165  -2.207  0.00  0.00    +0.000 NA
ATOM      6  C   UNL     1       1.755   2.131  -1.479  0.00  0.00    +0.000 A 
ENDROOT
BRANCH   1   7
ATOM      7  C   UNL     1       1.895   0.245   0.190  0.00  0.00    +0.000 C 
BRANCH   7   8
ATOM      8  N   UNL     1       1.973   0.434   1.633  0.00  0.00    +0.000 NA
ATOM      9  H   UNL     1       1.491  -0.332   2.100  0.00  0.00    +0.000 HD
ATOM     10  H   UNL     1       1.469   1.285   1.884  0.00  0.00    +0.000 HD
ENDBRANCH   7   8
ENDBRANCH   1   7
BRANCH   4  11
ATOM     11  C   UNL     1       4.102   4.621  -2.865  0.00  0.00    +0.000 C 
BRANCH  11  12
ATOM     12  N   UNL     1       3.850   5.957  -2.337  0.00  0.00    +0.000 N 
ATOM     13  C   UNL     1       4.710   6.637  -1.501  0.00  0.00    +0.000 A 
ATOM     14  C   UNL     1       4.273   7.941  -1.408  0.00  0.00    +0.000 A 
ATOM     15  C   UNL     1       3.114   8.059  -2.210  0.00  0.00    +0.000 A 
ATOM     16  N   UNL     1       2.364   9.159  -2.456  0.00  0.00    +0.000 NA
ATOM     17  C   UNL     1       1.317   8.956  -3.283  0.00  0.00    +0.000 A 
ATOM     18  C   UNL     1       0.965   7.743  -3.856  0.00  0.00    +0.000 A 
ATOM     19  C   UNL     1       1.739   6.616  -3.594  0.00  0.00    +0.000 A 
ATOM     20  C   UNL     1       2.846   6.806  -2.760  0.00  0.00    +0.000 A 
ENDBRANCH  11  12
ENDBRANCH   4  11
TORSDOF 4
