REMARK  Name = 
REMARK  4 active torsions:
REMARK  status: ('A' for Active; 'I' for Inactive)
REMARK    1  A    between atoms: C_2  and  C_4
REMARK    2  A    between atoms: N_8  and  C_9
REMARK    3  A    between atoms: C_9  and  C_10
REMARK    4  A    between atoms: C_15  and  C_16
REMARK                            x       y       z     vdW  Elec       q    Type
REMARK                         _______ _______ _______ _____ _____    ______ ____
ROOT
ATOM      1  C   UNL     1       3.155  -0.791   1.206  0.00  0.00    +0.000 A 
ATOM      2  C   UNL     1       4.466  -0.329   1.253  0.00  0.00    +0.000 A 
ATOM      3  C   UNL     1       5.357  -0.909   2.158  0.00  0.00    +0.000 A 
ATOM      4  C   UNL     1       4.934  -1.956   2.975  0.00  0.00    +0.000 A 
ATOM      5  N   UNL     1       5.889  -2.598   3.764  0.00  0.00    +0.000 N 
ATOM      6  N   UNL     1       3.659  -2.395   2.947  0.00  0.00    +0.000 NA
ATOM      7  C   UNL     1       2.792  -1.793   2.091  0.00  0.00    +0.000 A 
ATOM      8  H   UNL     1       6.366  -1.974   4.411  0.00  0.00    +0.000 HD
ENDROOT
BRANCH   1  10
ATOM      9  N   UNL     1       2.610   0.222  -0.932  0.00  0.00    +0.000 N 
ATOM     10  C   UNL     1       2.150  -0.268   0.263  0.00  0.00    +0.000 C 
ATOM     11  O   UNL     1       0.953  -0.310   0.511  0.00  0.00    +0.000 OA
ATOM     12  H   UNL     1       1.906   0.464  -1.618  0.00  0.00    +0.000 HD
ATOM     13  H   UNL     1       3.541   0.027  -1.272  0.00  0.00    +0.000 HD
ENDBRANCH   1  10
BRANCH   5  14
ATOM     14  C   UNL     1       5.445  -3.819   4.427  0.00  0.00    +0.000 C 
BRANCH  14  15
ATOM     15  C   UNL     1       6.423  -4.260   5.517  0.00  0.00    +0.000 A 
ATOM     16  N   UNL     1       7.369  -3.346   5.899  0.00  0.00    +0.000 NA
ATOM     17  C   UNL     1       8.240  -3.694   6.872  0.00  0.00    +0.000 A 
ATOM     18  C   UNL     1       8.216  -4.912   7.520  0.00  0.00    +0.000 A 
ATOM     19  C   UNL     1       7.243  -5.828   7.144  0.00  0.00    +0.000 A 
ATOM     20  C   UNL     1       6.320  -5.516   6.129  0.00  0.00    +0.000 A 
BRANCH  20  21
ATOM     21  C   UNL     1       5.282  -6.546   5.775  0.00  0.00    +0.000 C 
ATOM     22  F   UNL     1       4.412  -6.193   4.795  0.00  0.00    +0.000 F 
ATOM     23  F   UNL     1       5.845  -7.716   5.361  0.00  0.00    +0.000 F 
ATOM     24  F   UNL     1       4.505  -6.873   6.847  0.00  0.00    +0.000 F 
ENDBRANCH  20  21
ENDBRANCH  14  15
ENDBRANCH   5  14
TORSDOF 4
