REMARK  Name = 
REMARK  5 active torsions:
REMARK  status: ('A' for Active; 'I' for Inactive)
REMARK    1  A    between atoms: N_1  and  C_2
REMARK    2  A    between atoms: C_2  and  C_3
REMARK    3  A    between atoms: C_6  and  C_7
REMARK    4  A    between atoms: C_7  and  N_8
REMARK    5  A    between atoms: C_13  and  C_14
REMARK                            x       y       z     vdW  Elec       q    Type
REMARK                         _______ _______ _______ _____ _____    ______ ____
ROOT
ATOM      1  N   UNL     1       3.835   3.343   5.314  0.00  0.00    +0.000 N 
ATOM      2  C   UNL     1       2.653   3.862   5.767  0.00  0.00    +0.000 A 
ATOM      3  N   UNL     1       2.756   5.146   6.029  0.00  0.00    +0.000 NA
ATOM      4  C   UNL     1       4.058   5.470   5.741  0.00  0.00    +0.000 A 
ATOM      5  C   UNL     1       4.715   6.703   5.880  0.00  0.00    +0.000 A 
ATOM      6  C   UNL     1       6.073   6.788   5.535  0.00  0.00    +0.000 A 
ATOM      7  C   UNL     1       6.741   5.657   5.034  0.00  0.00    +0.000 A 
ATOM      8  C   UNL     1       6.097   4.424   4.882  0.00  0.00    +0.000 A 
ATOM      9  C   UNL     1       4.756   4.363   5.267  0.00  0.00    +0.000 A 
ENDROOT
BRANCH   6  10
ATOM     10  C   UNL     1       6.869   8.041   5.693  0.00  0.00    +0.000 C 
ATOM     11  N   UNL     1       6.251   9.154   6.190  0.00  0.00    +0.000 N 
ATOM     12  O   UNL     1       8.055   8.085   5.393  0.00  0.00    +0.000 OA
ATOM     13  H   UNL     1       5.285   9.214   6.467  0.00  0.00    +0.000 HD
ATOM     14  H   UNL     1       6.825   9.982   6.297  0.00  0.00    +0.000 HD
ENDBRANCH   6  10
BRANCH   1  15
ATOM     15  C   UNL     1       4.091   1.932   5.063  0.00  0.00    +0.000 C 
BRANCH  15  19
ATOM     16  C   UNL     1       2.862   0.505   1.234  0.00  0.00    +0.000 A 
ATOM     17  C   UNL     1       3.331   1.813   1.321  0.00  0.00    +0.000 A 
ATOM     18  C   UNL     1       3.768   2.297   2.551  0.00  0.00    +0.000 A 
ATOM     19  C   UNL     1       3.696   1.484   3.684  0.00  0.00    +0.000 A 
ATOM     20  C   UNL     1       3.270   0.173   3.486  0.00  0.00    +0.000 A 
ATOM     21  N   UNL     1       2.853  -0.329   2.301  0.00  0.00    +0.000 NA
BRANCH  16  22
ATOM     22  C   UNL     1       2.306  -0.014  -0.075  0.00  0.00    +0.000 C 
BRANCH  22  23
ATOM     23  N   UNL     1       3.271   0.053  -1.176  0.00  0.00    +0.000 NA
ATOM     24  H   UNL     1       2.859  -0.393  -1.994  0.00  0.00    +0.000 HD
ATOM     25  H   UNL     1       4.077  -0.518  -0.921  0.00  0.00    +0.000 HD
ENDBRANCH  22  23
ENDBRANCH  16  22
ENDBRANCH  15  19
ENDBRANCH   1  15
TORSDOF 5
