REMARK  Name = 
REMARK  5 active torsions:
REMARK  status: ('A' for Active; 'I' for Inactive)
REMARK    1  A    between atoms: N_1  and  C_2
REMARK    2  A    between atoms: C_2  and  C_3
REMARK    3  A    between atoms: C_3  and  C_4
REMARK    4  A    between atoms: C_8  and  C_9
REMARK    5  A    between atoms: C_9  and  N_10
REMARK                            x       y       z     vdW  Elec       q    Type
REMARK                         _______ _______ _______ _____ _____    ______ ____
ROOT
ATOM      1  C   UNL     1       4.424   1.351   0.091  0.00  0.00    +0.000 A 
ATOM      2  C   UNL     1       5.183   0.804   1.120  0.00  0.00    +0.000 A 
ATOM      3  N   UNL     1       6.533   0.807   1.147  0.00  0.00    +0.000 NA
ATOM      4  C   UNL     1       7.162   1.386   0.100  0.00  0.00    +0.000 A 
ATOM      5  C   UNL     1       6.508   1.993  -0.968  0.00  0.00    +0.000 A 
ATOM      6  C   UNL     1       5.113   1.955  -0.968  0.00  0.00    +0.000 A 
ENDROOT
BRANCH   1   7
ATOM      7  C   UNL     1       2.919   1.316   0.132  0.00  0.00    +0.000 C 
BRANCH   7   8
ATOM      8  C   UNL     1       2.332   2.549   0.829  0.00  0.00    +0.000 C 
BRANCH   8   9
ATOM      9  N   UNL     1       0.872   2.497   0.839  0.00  0.00    +0.000 NA
ATOM     10  H   UNL     1       0.508   3.318   1.322  0.00  0.00    +0.000 HD
ATOM     11  H   UNL     1       0.557   1.691   1.379  0.00  0.00    +0.000 HD
ENDBRANCH   8   9
ENDBRANCH   7   8
ENDBRANCH   1   7
BRANCH   5  12
ATOM     12  C   UNL     1       7.287   2.661  -2.067  0.00  0.00    +0.000 C 
BRANCH  12  13
ATOM     13  N   UNL     1       7.613   1.711  -3.108  0.00  0.00    +0.000 N 
ATOM     14  C   UNL     1       8.354   2.108  -4.208  0.00  0.00    +0.000 A 
ATOM     15  C   UNL     1       9.344   3.095  -4.192  0.00  0.00    +0.000 A 
ATOM     16  N   UNL     1      10.099   3.435  -5.269  0.00  0.00    +0.000 NA
ATOM     17  C   UNL     1       9.850   2.718  -6.383  0.00  0.00    +0.000 A 
ATOM     18  C   UNL     1       8.888   1.728  -6.416  0.00  0.00    +0.000 A 
ATOM     19  N   UNL     1       8.120   1.416  -5.341  0.00  0.00    +0.000 NA
ATOM     20  H   UNL     1       6.854   1.119  -3.434  0.00  0.00    +0.000 HD
ENDBRANCH  12  13
ENDBRANCH   5  12
TORSDOF 5
