REMARK  Name = 
REMARK  5 active torsions:
REMARK  status: ('A' for Active; 'I' for Inactive)
REMARK    1  A    between atoms: C_2  and  C_4
REMARK    2  A    between atoms: C_7  and  O_8
REMARK    3  A    between atoms: O_8  and  C_9
REMARK    4  A    between atoms: C_9  and  C_10
REMARK    5  A    between atoms: C_15  and  N_16
REMARK                            x       y       z     vdW  Elec       q    Type
REMARK                         _______ _______ _______ _____ _____    ______ ____
ROOT
ATOM      1  C   UNL     1       5.393  -4.747   2.792  0.00  0.00    +0.000 C 
ATOM      2  C   UNL     1       4.278  -4.440   3.779  0.00  0.00    +0.000 C 
ATOM      3  C   UNL     1       4.076  -4.139   2.331  0.00  0.00    +0.000 C 
ENDROOT
BRANCH   1   4
ATOM      4  C   UNL     1       6.618  -3.850   2.857  0.00  0.00    +0.000 A 
ATOM      5  C   UNL     1       7.026  -3.070   1.769  0.00  0.00    +0.000 A 
ATOM      6  C   UNL     1       7.889  -1.995   1.963  0.00  0.00    +0.000 A 
ATOM      7  C   UNL     1       8.381  -1.718   3.239  0.00  0.00    +0.000 A 
ATOM      8  F   UNL     1       9.137  -0.619   3.390  0.00  0.00    +0.000 F 
ATOM      9  C   UNL     1       8.119  -2.554   4.332  0.00  0.00    +0.000 A 
ATOM     10  C   UNL     1       7.261  -3.636   4.093  0.00  0.00    +0.000 A 
BRANCH   9  11
ATOM     11  N   UNL     1       8.593  -2.332   5.614  0.00  0.00    +0.000 N 
ATOM     12  C   UNL     1       8.678  -0.988   6.181  0.00  0.00    +0.000 C 
ATOM     13  C   UNL     1      10.126  -0.649   6.479  0.00  0.00    +0.000 C 
ATOM     14  C   UNL     1      10.756  -1.765   7.287  0.00  0.00    +0.000 C 
ATOM     15  F   UNL     1      12.073  -1.487   7.482  0.00  0.00    +0.000 F 
ATOM     16  F   UNL     1      10.194  -1.798   8.526  0.00  0.00    +0.000 F 
ATOM     17  C   UNL     1      10.626  -3.129   6.643  0.00  0.00    +0.000 C 
ATOM     18  C   UNL     1       9.157  -3.427   6.399  0.00  0.00    +0.000 C 
ENDBRANCH   9  11
ENDBRANCH   1   4
BRANCH   1  19
ATOM     19  O   UNL     1       5.540  -6.085   2.280  0.00  0.00    +0.000 OA
BRANCH  19  23
ATOM     20  C   UNL     1       6.865  -9.011   4.815  0.00  0.00    +0.000 A 
ATOM     21  C   UNL     1       6.515  -9.339   3.503  0.00  0.00    +0.000 A 
ATOM     22  C   UNL     1       6.032  -8.338   2.670  0.00  0.00    +0.000 A 
ATOM     23  C   UNL     1       5.917  -7.059   3.185  0.00  0.00    +0.000 A 
ATOM     24  N   UNL     1       6.174  -6.730   4.472  0.00  0.00    +0.000 NA
ATOM     25  C   UNL     1       6.640  -7.721   5.265  0.00  0.00    +0.000 A 
BRANCH  20  27
ATOM     26  N   UNL     1       8.361 -10.874   5.085  0.00  0.00    +0.000 N 
ATOM     27  C   UNL     1       7.541  -9.978   5.699  0.00  0.00    +0.000 C 
ATOM     28  O   UNL     1       7.420  -9.926   6.915  0.00  0.00    +0.000 OA
ATOM     29  H   UNL     1       8.943 -11.446   5.691  0.00  0.00    +0.000 HD
ATOM     30  H   UNL     1       8.674 -10.756   4.131  0.00  0.00    +0.000 HD
ENDBRANCH  20  27
ENDBRANCH  19  23
ENDBRANCH   1  19
TORSDOF 5
