REMARK  Name = 
REMARK  4 active torsions:
REMARK  status: ('A' for Active; 'I' for Inactive)
REMARK    1  A    between atoms: C_2  and  C_4
REMARK    2  A    between atoms: C_7  and  N_8
REMARK    3  A    between atoms: N_8  and  C_9
REMARK    4  A    between atoms: C_9  and  C_10
REMARK                            x       y       z     vdW  Elec       q    Type
REMARK                         _______ _______ _______ _____ _____    ______ ____
ROOT
ATOM      1  N   UNL     1       5.275  -0.123  -4.696  0.00  0.00    +0.000 N 
ATOM      2  H   UNL     1       6.276  -0.189  -4.529  0.00  0.00    +0.000 HD
ENDROOT
BRANCH   1   6
ATOM      3  C   UNL     1       3.343  -2.642  -1.914  0.00  0.00    +0.000 A 
ATOM      4  C   UNL     1       3.226  -2.920  -3.280  0.00  0.00    +0.000 A 
ATOM      5  C   UNL     1       3.842  -2.084  -4.218  0.00  0.00    +0.000 A 
ATOM      6  C   UNL     1       4.591  -0.978  -3.812  0.00  0.00    +0.000 A 
ATOM      7  C   UNL     1       4.708  -0.717  -2.439  0.00  0.00    +0.000 A 
ATOM      8  C   UNL     1       4.074  -1.528  -1.495  0.00  0.00    +0.000 A 
BRANCH   3  10
ATOM      9  N   UNL     1       2.476  -4.801  -1.192  0.00  0.00    +0.000 N 
ATOM     10  C   UNL     1       2.680  -3.484  -0.880  0.00  0.00    +0.000 C 
ATOM     11  O   UNL     1       2.365  -3.037   0.208  0.00  0.00    +0.000 OA
ATOM     12  H   UNL     1       2.120  -5.382  -0.450  0.00  0.00    +0.000 HD
ATOM     13  H   UNL     1       2.951  -5.254  -1.961  0.00  0.00    +0.000 HD
ENDBRANCH   3  10
ENDBRANCH   1   6
BRANCH   1  14
ATOM     14  C   UNL     1       4.897   0.088  -6.110  0.00  0.00    +0.000 C 
ATOM     15  C   UNL     1       4.874   1.554  -6.522  0.00  0.00    +0.000 C 
ATOM     16  C   UNL     1       3.596   0.783  -6.473  0.00  0.00    +0.000 C 
BRANCH  14  17
ATOM     17  C   UNL     1       5.474  -0.938  -7.083  0.00  0.00    +0.000 A 
ATOM     18  C   UNL     1       6.863  -1.080  -7.259  0.00  0.00    +0.000 A 
ATOM     19  C   UNL     1       7.402  -2.088  -8.066  0.00  0.00    +0.000 A 
ATOM     20  C   UNL     1       6.559  -2.975  -8.730  0.00  0.00    +0.000 A 
ATOM     21  C   UNL     1       5.180  -2.832  -8.601  0.00  0.00    +0.000 A 
ATOM     22 CL   UNL     1       4.128  -3.927  -9.411  0.00  0.00    +0.000 Cl
ATOM     23  C   UNL     1       4.648  -1.830  -7.795  0.00  0.00    +0.000 A 
ENDBRANCH  14  17
ENDBRANCH   1  14
TORSDOF 4
