REMARK  Name = 
REMARK  9 active torsions:
REMARK  status: ('A' for Active; 'I' for Inactive)
REMARK    1  A    between atoms: C_1  and  C_2
REMARK    2  A    between atoms: C_2  and  C_3
REMARK    3  A    between atoms: C_3  and  N_4
REMARK    4  A    between atoms: C_10  and  C_11
REMARK    5  A    between atoms: N_13  and  C_14
REMARK    6  A    between atoms: C_14  and  C_15
REMARK    7  A    between atoms: C_18  and  C_19
REMARK    8  A    between atoms: C_19  and  N_20
REMARK    9  A    between atoms: C_21  and  C_23
REMARK                            x       y       z     vdW  Elec       q    Type
REMARK                         _______ _______ _______ _____ _____    ______ ____
ROOT
ATOM      1  C   UNL     1       7.171   5.114  -0.804  0.00  0.00    +0.000 C 
ATOM      2  O   UNL     1       6.011   5.512  -0.748  0.00  0.00    +0.000 OA
ATOM      3  N   UNL     1       8.246   5.967  -0.757  0.00  0.00    +0.000 N 
ATOM      4  H   UNL     1       9.151   5.615  -1.047  0.00  0.00    +0.000 HD
ENDROOT
BRANCH   1  11
ATOM      5  N   UNL     1      10.695   2.626  -2.611  0.00  0.00    +0.000 N 
ATOM      6  C   UNL     1      10.530   1.283  -2.356  0.00  0.00    +0.000 A 
ATOM      7  N   UNL     1       9.532   0.752  -1.719  0.00  0.00    +0.000 NA
ATOM      8  C   UNL     1       8.601   1.644  -1.297  0.00  0.00    +0.000 A 
ATOM      9  S   UNL     1       7.184   1.131  -0.501  0.00  0.00    +0.000 S 
ATOM     10  C   UNL     1       6.612   2.735  -0.363  0.00  0.00    +0.000 A 
ATOM     11  C   UNL     1       7.491   3.681  -0.874  0.00  0.00    +0.000 A 
ATOM     12  C   UNL     1       8.641   3.016  -1.442  0.00  0.00    +0.000 A 
ATOM     13  C   UNL     1       9.786   3.567  -2.140  0.00  0.00    +0.000 A 
ATOM     14  O   UNL     1       9.947   4.777  -2.284  0.00  0.00    +0.000 OA
BRANCH   5  15
ATOM     15  C   UNL     1      11.864   3.110  -3.335  0.00  0.00    +0.000 C 
BRANCH  15  17
ATOM     16  C   UNL     1      14.159   4.131  -3.148  0.00  0.00    +0.000 C 
ATOM     17  C   UNL     1      12.963   3.588  -2.384  0.00  0.00    +0.000 C 
ENDBRANCH  15  17
ENDBRANCH   5  15
ENDBRANCH   1  11
BRANCH   3  18
ATOM     18  C   UNL     1       8.091   7.399  -0.801  0.00  0.00    +0.000 C 
BRANCH  18  19
ATOM     19  C   UNL     1       9.430   8.095  -0.724  0.00  0.00    +0.000 A 
ATOM     20  C   UNL     1      10.125   8.452  -1.888  0.00  0.00    +0.000 A 
ATOM     21  C   UNL     1      11.363   9.106  -1.813  0.00  0.00    +0.000 A 
ATOM     22  C   UNL     1      11.948   9.393  -0.572  0.00  0.00    +0.000 A 
ATOM     23  C   UNL     1      11.261   9.019   0.591  0.00  0.00    +0.000 A 
ATOM     24  C   UNL     1      10.023   8.368   0.516  0.00  0.00    +0.000 A 
BRANCH  22  25
ATOM     25  C   UNL     1      13.278  10.103  -0.489  0.00  0.00    +0.000 C 
BRANCH  25  26
ATOM     26  N   UNL     1      13.122  11.536  -0.497  0.00  0.00    +0.000 N 
ATOM     27  C   UNL     1      14.189  12.394  -0.327  0.00  0.00    +0.000 C 
ATOM     28  O   UNL     1      15.334  11.971  -0.176  0.00  0.00    +0.000 OA
ATOM     29  H   UNL     1      12.213  11.934  -0.696  0.00  0.00    +0.000 HD
BRANCH  27  30
ATOM     30  C   UNL     1      13.863  13.819  -0.344  0.00  0.00    +0.000 A 
ATOM     31  C   UNL     1      14.746  14.882  -0.271  0.00  0.00    +0.000 A 
ATOM     32  C   UNL     1      14.088  16.148  -0.296  0.00  0.00    +0.000 A 
ATOM     33  C   UNL     1      12.721  16.013  -0.381  0.00  0.00    +0.000 A 
ATOM     34  S   UNL     1      12.243  14.375  -0.442  0.00  0.00    +0.000 S 
ENDBRANCH  27  30
ENDBRANCH  25  26
ENDBRANCH  22  25
ENDBRANCH  18  19
ENDBRANCH   3  18
TORSDOF 8
