REMARK  Name = 
REMARK  7 active torsions:
REMARK  status: ('A' for Active; 'I' for Inactive)
REMARK    1  A    between atoms: C_2  and  C_20
REMARK    2  A    between atoms: N_3  and  C_4
REMARK    3  A    between atoms: C_4  and  C_5
REMARK    4  A    between atoms: C_8  and  C_9
REMARK    5  A    between atoms: C_9  and  O_10
REMARK    6  A    between atoms: O_10  and  C_11
REMARK    7  A    between atoms: C_11  and  C_12
REMARK                            x       y       z     vdW  Elec       q    Type
REMARK                         _______ _______ _______ _____ _____    ______ ____
ROOT
ATOM      1  C   UNL     1       2.311  -2.100  -1.496  0.00  0.00    +0.000 C 
ENDROOT
BRANCH   1   2
ATOM      2  C   UNL     1       3.261  -3.067  -2.138  0.00  0.00    +0.000 A 
ATOM      3  C   UNL     1       4.396  -2.649  -2.837  0.00  0.00    +0.000 A 
ATOM      4  C   UNL     1       5.224  -3.597  -3.441  0.00  0.00    +0.000 A 
ATOM      5  C   UNL     1       4.907  -4.950  -3.322  0.00  0.00    +0.000 A 
ATOM      6  N   UNL     1       3.812  -5.377  -2.645  0.00  0.00    +0.000 NA
ATOM      7  C   UNL     1       3.030  -4.436  -2.065  0.00  0.00    +0.000 A 
BRANCH   5   8
ATOM      8  C   UNL     1       5.789  -6.005  -3.953  0.00  0.00    +0.000 C 
BRANCH   8   9
ATOM      9  O   UNL     1       7.103  -5.895  -3.411  0.00  0.00    +0.000 OA
BRANCH   9  10
ATOM     10  C   UNL     1       7.997  -6.880  -3.933  0.00  0.00    +0.000 C 
BRANCH  10  11
ATOM     11  C   UNL     1       9.366  -6.709  -3.308  0.00  0.00    +0.000 A 
ATOM     12  C   UNL     1       9.499  -6.244  -1.999  0.00  0.00    +0.000 A 
ATOM     13  C   UNL     1      10.772  -6.084  -1.460  0.00  0.00    +0.000 A 
ATOM     14  C   UNL     1      11.880  -6.406  -2.231  0.00  0.00    +0.000 A 
ATOM     15  C   UNL     1      11.666  -6.881  -3.514  0.00  0.00    +0.000 A 
ATOM     16  N   UNL     1      10.442  -7.044  -4.067  0.00  0.00    +0.000 NA
ENDBRANCH  10  11
ENDBRANCH   9  10
ENDBRANCH   8   9
ENDBRANCH   5   8
ENDBRANCH   1   2
BRANCH   1  19
ATOM     17  O   UNL     1       1.410  -3.420   0.801  0.00  0.00    +0.000 OA
ATOM     18  C   UNL     1       2.213  -2.504   0.928  0.00  0.00    +0.000 C 
ATOM     19  N   UNL     1       2.678  -1.778  -0.144  0.00  0.00    +0.000 N 
ATOM     20  H   UNL     1       3.502  -1.197  -0.029  0.00  0.00    +0.000 HD
BRANCH  18  21
ATOM     21  C   UNL     1       2.699  -2.085   2.241  0.00  0.00    +0.000 A 
ATOM     22  C   UNL     1       1.940  -2.281   3.385  0.00  0.00    +0.000 A 
ATOM     23  S   UNL     1       2.702  -1.716   4.807  0.00  0.00    +0.000 S 
ATOM     24  C   UNL     1       4.079  -1.222   3.936  0.00  0.00    +0.000 A 
ATOM     25  N   UNL     1       5.147  -0.654   4.562  0.00  0.00    +0.000 NA
ATOM     26  C   UNL     1       6.131  -0.365   3.777  0.00  0.00    +0.000 A 
ATOM     27  N   UNL     1       6.150  -0.586   2.427  0.00  0.00    +0.000 N 
ATOM     28  C   UNL     1       5.072  -1.094   1.741  0.00  0.00    +0.000 A 
ATOM     29  O   UNL     1       5.083  -1.154   0.521  0.00  0.00    +0.000 OA
ATOM     30  C   UNL     1       3.953  -1.467   2.583  0.00  0.00    +0.000 A 
ATOM     31  H   UNL     1       6.934  -0.313   1.855  0.00  0.00    +0.000 HD
ENDBRANCH  18  21
ENDBRANCH   1  19
TORSDOF 7
