REMARK  Name = 
REMARK  7 active torsions:
REMARK  status: ('A' for Active; 'I' for Inactive)
REMARK    1  A    between atoms: C_1  and  N_2
REMARK    2  A    between atoms: N_2  and  C_3
REMARK    3  A    between atoms: C_3  and  C_4
REMARK    4  A    between atoms: C_7  and  C_8
REMARK    5  A    between atoms: C_8  and  O_9
REMARK    6  A    between atoms: O_9  and  C_10
REMARK    7  A    between atoms: C_13  and  C_14
REMARK                            x       y       z     vdW  Elec       q    Type
REMARK                         _______ _______ _______ _____ _____    ______ ____
ROOT
ATOM      1  O   UNL     1       9.185  -0.576  -0.976  0.00  0.00    +0.000 OA
ENDROOT
BRANCH   1   2
ATOM      2  C   UNL     1      10.546  -0.487  -1.081  0.00  0.00    +0.000 A 
ATOM      3  C   UNL     1      11.477  -1.006  -0.180  0.00  0.00    +0.000 A 
ATOM      4  C   UNL     1      12.847  -0.844  -0.416  0.00  0.00    +0.000 A 
ATOM      5  C   UNL     1      13.301  -0.169  -1.556  0.00  0.00    +0.000 A 
ATOM      6  C   UNL     1      12.371   0.355  -2.457  0.00  0.00    +0.000 A 
ATOM      7  C   UNL     1      11.001   0.198  -2.213  0.00  0.00    +0.000 A 
BRANCH   5   8
ATOM      8  C   UNL     1      14.767   0.000  -1.735  0.00  0.00    +0.000 C 
ATOM      9  N   UNL     1      15.241   0.142  -3.009  0.00  0.00    +0.000 N 
ATOM     10  O   UNL     1      15.533  -0.015  -0.780  0.00  0.00    +0.000 OA
ATOM     11  H   UNL     1      14.679   0.007  -3.836  0.00  0.00    +0.000 HD
ATOM     12  H   UNL     1      16.247   0.181  -3.116  0.00  0.00    +0.000 HD
ENDBRANCH   5   8
ENDBRANCH   1   2
BRANCH   1  13
ATOM     13  C   UNL     1       8.664  -1.275   0.156  0.00  0.00    +0.000 C 
BRANCH  13  17
ATOM     14  C   UNL     1       4.388  -1.218   0.003  0.00  0.00    +0.000 A 
ATOM     15  C   UNL     1       5.087  -2.223  -0.675  0.00  0.00    +0.000 A 
ATOM     16  C   UNL     1       6.477  -2.252  -0.625  0.00  0.00    +0.000 A 
ATOM     17  C   UNL     1       7.153  -1.269   0.092  0.00  0.00    +0.000 A 
ATOM     18  N   UNL     1       6.497  -0.279   0.748  0.00  0.00    +0.000 NA
ATOM     19  C   UNL     1       5.145  -0.276   0.689  0.00  0.00    +0.000 A 
BRANCH  14  20
ATOM     20  C   UNL     1       2.884  -1.142  -0.027  0.00  0.00    +0.000 C 
BRANCH  20  22
ATOM     21  C   UNL     1       0.824  -2.268   0.511  0.00  0.00    +0.000 C 
ATOM     22  N   UNL     1       2.276  -2.335   0.561  0.00  0.00    +0.000 NA
ATOM     23  H   UNL     1       2.586  -3.158   0.046  0.00  0.00    +0.000 HD
ENDBRANCH  20  22
ENDBRANCH  14  20
ENDBRANCH  13  17
ENDBRANCH   1  13
TORSDOF 6
