REMARK  Name = 
REMARK  5 active torsions:
REMARK  status: ('A' for Active; 'I' for Inactive)
REMARK    1  A    between atoms: C_2  and  C_4
REMARK    2  A    between atoms: C_7  and  N_8
REMARK    3  A    between atoms: N_8  and  C_9
REMARK    4  A    between atoms: C_9  and  C_10
REMARK    5  A    between atoms: C_14  and  C_15
REMARK                            x       y       z     vdW  Elec       q    Type
REMARK                         _______ _______ _______ _____ _____    ______ ____
ROOT
ATOM      1  C   UNL     1       5.338  -5.510   2.217  0.00  0.00    +0.000 C 
ENDROOT
BRANCH   1   2
ATOM      2  C   UNL     1       6.394  -6.297   2.972  0.00  0.00    +0.000 A 
ATOM      3  C   UNL     1       7.653  -6.509   2.418  0.00  0.00    +0.000 A 
ATOM      4  C   UNL     1       8.581  -7.255   3.134  0.00  0.00    +0.000 A 
ATOM      5  C   UNL     1       8.232  -7.761   4.384  0.00  0.00    +0.000 A 
ATOM      6  C   UNL     1       6.962  -7.500   4.896  0.00  0.00    +0.000 A 
ATOM      7  N   UNL     1       6.048  -6.783   4.192  0.00  0.00    +0.000 NA
BRANCH   6   8
ATOM      8  C   UNL     1       6.516  -7.966   6.225  0.00  0.00    +0.000 A 
ATOM      9  C   UNL     1       7.406  -8.073   7.311  0.00  0.00    +0.000 A 
ATOM     10  C   UNL     1       6.974  -8.499   8.571  0.00  0.00    +0.000 A 
ATOM     11  C   UNL     1       5.635  -8.824   8.773  0.00  0.00    +0.000 A 
ATOM     12  C   UNL     1       4.736  -8.722   7.715  0.00  0.00    +0.000 A 
ATOM     13 CL   UNL     1       3.080  -9.118   7.964  0.00  0.00    +0.000 Cl
ATOM     14  C   UNL     1       5.168  -8.297   6.457  0.00  0.00    +0.000 A 
ENDBRANCH   6   8
ENDBRANCH   1   2
BRANCH   1  15
ATOM     15  N   UNL     1       5.766  -4.131   1.991  0.00  0.00    +0.000 N 
ATOM     16  H   UNL     1       6.205  -3.718   2.812  0.00  0.00    +0.000 HD
BRANCH  15  20
ATOM     17  C   UNL     1       3.432  -1.335  -0.150  0.00  0.00    +0.000 A 
ATOM     18  C   UNL     1       2.919  -2.612   0.091  0.00  0.00    +0.000 A 
ATOM     19  C   UNL     1       3.672  -3.548   0.815  0.00  0.00    +0.000 A 
ATOM     20  C   UNL     1       4.930  -3.223   1.339  0.00  0.00    +0.000 A 
ATOM     21  C   UNL     1       5.426  -1.936   1.089  0.00  0.00    +0.000 A 
ATOM     22  C   UNL     1       4.692  -1.002   0.348  0.00  0.00    +0.000 A 
BRANCH  17  24
ATOM     23  N   UNL     1       1.339  -0.416  -1.007  0.00  0.00    +0.000 N 
ATOM     24  C   UNL     1       2.704  -0.332  -0.970  0.00  0.00    +0.000 C 
ATOM     25  O   UNL     1       3.293   0.557  -1.571  0.00  0.00    +0.000 OA
ATOM     26  H   UNL     1       0.861   0.335  -1.486  0.00  0.00    +0.000 HD
ATOM     27  H   UNL     1       0.812  -0.959  -0.338  0.00  0.00    +0.000 HD
ENDBRANCH  17  24
ENDBRANCH  15  20
ENDBRANCH   1  15
TORSDOF 5
