REMARK  Name = 
REMARK  7 active torsions:
REMARK  status: ('A' for Active; 'I' for Inactive)
REMARK    1  A    between atoms: N_1  and  C_2
REMARK    2  A    between atoms: C_2  and  C_3
REMARK    3  A    between atoms: C_2  and  C_7
REMARK    4  A    between atoms: C_3  and  C_4
REMARK    5  A    between atoms: C_4  and  O_6
REMARK    6  A    between atoms: C_10  and  C_11
REMARK    7  A    between atoms: C_11  and  N_12
REMARK                            x       y       z     vdW  Elec       q    Type
REMARK                         _______ _______ _______ _____ _____    ______ ____
ROOT
ATOM      1  C   UNL     1       2.922  -0.755  -1.073  0.00  0.00    +0.000 A 
ATOM      2  C   UNL     1       3.642  -0.126  -2.100  0.00  0.00    +0.000 A 
ATOM      3  C   UNL     1       4.086  -0.851  -3.216  0.00  0.00    +0.000 A 
ATOM      4  C   UNL     1       3.838  -2.227  -3.322  0.00  0.00    +0.000 A 
ATOM      5  C   UNL     1       3.134  -2.859  -2.292  0.00  0.00    +0.000 A 
ATOM      6  C   UNL     1       2.686  -2.135  -1.187  0.00  0.00    +0.000 A 
ENDROOT
BRANCH   1   7
ATOM      7  C   UNL     1       2.404   0.058   0.111  0.00  0.00    +0.000 C 
BRANCH   7   8
ATOM      8  N   UNL     1       1.174  -0.540   0.650  0.00  0.00    +0.000 NA
ATOM      9  H   UNL     1       0.802   0.082   1.375  0.00  0.00    +0.000 HD
ATOM     10  H   UNL     1       1.384  -1.417   1.121  0.00  0.00    +0.000 HD
ENDBRANCH   7   8
BRANCH   7  11
ATOM     11  C   UNL     1       3.503   0.240   1.174  0.00  0.00    +0.000 C 
BRANCH  11  12
ATOM     12  C   UNL     1       3.062   1.123   2.321  0.00  0.00    +0.000 C 
ATOM     13  O   UNL     1       1.968   1.646   2.431  0.00  0.00    +0.000 OA
BRANCH  12  14
ATOM     14  O   UNL     1       4.024   1.271   3.262  0.00  0.00    +0.000 OA
ATOM     15  H   UNL     1       4.855   0.796   3.069  0.00  0.00    +0.000 HD
ENDBRANCH  12  14
ENDBRANCH  11  12
ENDBRANCH   7  11
ENDBRANCH   1   7
BRANCH   4  16
ATOM     16  C   UNL     1       4.281  -3.032  -4.517  0.00  0.00    +0.000 C 
BRANCH  16  17
ATOM     17  N   UNL     1       5.603  -3.625  -4.337  0.00  0.00    +0.000 N 
ATOM     18  C   UNL     1       5.826  -4.879  -3.816  0.00  0.00    +0.000 A 
ATOM     19  C   UNL     1       7.176  -5.139  -3.894  0.00  0.00    +0.000 A 
ATOM     20  C   UNL     1       7.799  -4.023  -4.509  0.00  0.00    +0.000 A 
ATOM     21  C   UNL     1       9.117  -3.724  -4.877  0.00  0.00    +0.000 A 
ATOM     22  N   UNL     1       9.417  -2.557  -5.497  0.00  0.00    +0.000 NA
ATOM     23  C   UNL     1       8.420  -1.682  -5.747  0.00  0.00    +0.000 A 
ATOM     24  C   UNL     1       7.089  -1.873  -5.409  0.00  0.00    +0.000 A 
ATOM     25  C   UNL     1       6.795  -3.086  -4.781  0.00  0.00    +0.000 A 
ENDBRANCH  16  17
ENDBRANCH   4  16
TORSDOF 7
