REMARK  Name = 
REMARK  5 active torsions:
REMARK  status: ('A' for Active; 'I' for Inactive)
REMARK    1  A    between atoms: C_1  and  O_2
REMARK    2  A    between atoms: O_2  and  C_3
REMARK    3  A    between atoms: C_6  and  C_7
REMARK    4  A    between atoms: C_7  and  N_8
REMARK    5  A    between atoms: C_13  and  C_14
REMARK                            x       y       z     vdW  Elec       q    Type
REMARK                         _______ _______ _______ _____ _____    ______ ____
ROOT
ATOM      1  N   UNL     1       5.736  -3.506   5.001  0.00  0.00    +0.000 N 
ATOM      2  C   UNL     1       5.713  -2.747   6.149  0.00  0.00    +0.000 A 
ATOM      3  C   UNL     1       5.379  -3.583   7.184  0.00  0.00    +0.000 A 
ATOM      4  C   UNL     1       5.819  -4.857   6.757  0.00  0.00    +0.000 A 
ATOM      5  C   UNL     1       6.261  -5.997   7.445  0.00  0.00    +0.000 A 
ATOM      6  C   UNL     1       6.613  -7.146   6.719  0.00  0.00    +0.000 A 
ATOM      7  C   UNL     1       6.341  -7.189   5.345  0.00  0.00    +0.000 A 
ATOM      8  C   UNL     1       5.931  -6.041   4.634  0.00  0.00    +0.000 A 
ATOM      9  C   UNL     1       5.811  -4.844   5.360  0.00  0.00    +0.000 A 
ENDROOT
BRANCH   6  10
ATOM     10  C   UNL     1       7.324  -8.219   7.491  0.00  0.00    +0.000 C 
ATOM     11  N   UNL     1       7.617  -9.383   6.843  0.00  0.00    +0.000 N 
ATOM     12  O   UNL     1       7.659  -8.063   8.651  0.00  0.00    +0.000 OA
ATOM     13  H   UNL     1       7.407  -9.585   5.909  0.00  0.00    +0.000 HD
ATOM     14  H   UNL     1       8.121 -10.081   7.377  0.00  0.00    +0.000 HD
ENDBRANCH   6  10
BRANCH   1  15
ATOM     15  C   UNL     1       6.023  -2.912   3.692  0.00  0.00    +0.000 C 
BRANCH  15  19
ATOM     16  C   UNL     1       2.699  -2.556   0.924  0.00  0.00    +0.000 A 
ATOM     17  C   UNL     1       2.680  -1.827   2.114  0.00  0.00    +0.000 A 
ATOM     18  C   UNL     1       3.740  -1.952   3.034  0.00  0.00    +0.000 A 
ATOM     19  C   UNL     1       4.826  -2.798   2.776  0.00  0.00    +0.000 A 
ATOM     20  C   UNL     1       4.847  -3.497   1.560  0.00  0.00    +0.000 A 
ATOM     21  C   UNL     1       3.794  -3.371   0.649  0.00  0.00    +0.000 A 
BRANCH  16  23
ATOM     22  C   UNL     1       0.514  -1.904   0.227  0.00  0.00    +0.000 C 
ATOM     23  O   UNL     1       1.743  -2.558  -0.053  0.00  0.00    +0.000 OA
ENDBRANCH  16  23
ENDBRANCH  15  19
ENDBRANCH   1  15
TORSDOF 4
