REMARK  Name = 
REMARK  5 active torsions:
REMARK  status: ('A' for Active; 'I' for Inactive)
REMARK    1  A    between atoms: C_2  and  C_3
REMARK    2  A    between atoms: C_6  and  N_7
REMARK    3  A    between atoms: N_7  and  C_8
REMARK    4  A    between atoms: C_8  and  C_9
REMARK    5  A    between atoms: C_13  and  C_14
REMARK                            x       y       z     vdW  Elec       q    Type
REMARK                         _______ _______ _______ _____ _____    ______ ____
ROOT
ATOM      1  C   UNL     1       8.787  -0.941   0.015  0.00  0.00    +0.000 C 
ATOM      2  C   UNL     1       9.005  -1.562  -1.359  0.00  0.00    +0.000 C 
ATOM      3  C   UNL     1       9.041  -2.424  -0.140  0.00  0.00    +0.000 C 
ENDROOT
BRANCH   1   4
ATOM      4  C   UNL     1       9.868  -0.061   0.620  0.00  0.00    +0.000 A 
ATOM      5  C   UNL     1      10.445  -0.333   1.869  0.00  0.00    +0.000 A 
ATOM      6  C   UNL     1      11.270   0.599   2.497  0.00  0.00    +0.000 A 
ATOM      7  C   UNL     1      11.521   1.831   1.890  0.00  0.00    +0.000 A 
ATOM      8  C   UNL     1      10.977   2.148   0.635  0.00  0.00    +0.000 A 
ATOM      9  C   UNL     1      10.193   1.165   0.008  0.00  0.00    +0.000 A 
BRANCH   8  10
ATOM     10  C   UNL     1      11.114   3.496   0.040  0.00  0.00    +0.000 A 
ATOM     11  C   UNL     1      11.024   4.644   0.851  0.00  0.00    +0.000 A 
ATOM     12  C   UNL     1      11.084   5.932   0.307  0.00  0.00    +0.000 A 
ATOM     13  C   UNL     1      11.225   6.103  -1.067  0.00  0.00    +0.000 A 
ATOM     14  C   UNL     1      11.310   4.987  -1.893  0.00  0.00    +0.000 A 
ATOM     15  C   UNL     1      11.259   3.706  -1.342  0.00  0.00    +0.000 A 
ATOM     16  F   UNL     1      11.339   2.665  -2.186  0.00  0.00    +0.000 F 
ENDBRANCH   8  10
ENDBRANCH   1   4
BRANCH   1  17
ATOM     17  N   UNL     1       7.445  -0.340   0.147  0.00  0.00    +0.000 N 
ATOM     18  H   UNL     1       7.382   0.576  -0.298  0.00  0.00    +0.000 HD
BRANCH  17  22
ATOM     19  C   UNL     1       4.839  -0.586   3.324  0.00  0.00    +0.000 A 
ATOM     20  N   UNL     1       5.944  -1.354   3.401  0.00  0.00    +0.000 NA
ATOM     21  C   UNL     1       6.818  -1.241   2.371  0.00  0.00    +0.000 A 
ATOM     22  C   UNL     1       6.644  -0.399   1.294  0.00  0.00    +0.000 A 
ATOM     23  C   UNL     1       5.460   0.334   1.344  0.00  0.00    +0.000 A 
ATOM     24  N   UNL     1       4.555   0.278   2.332  0.00  0.00    +0.000 NA
BRANCH  19  26
ATOM     25  N   UNL     1       3.070  -0.833   5.217  0.00  0.00    +0.000 NA
ATOM     26  C   UNL     1       3.865  -0.722   4.371  0.00  0.00    +0.000 C 
ENDBRANCH  19  26
ENDBRANCH  17  22
ENDBRANCH   1  17
TORSDOF 5
