REMARK  Name = 
REMARK  11 active torsions:
REMARK  status: ('A' for Active; 'I' for Inactive)
REMARK    1  A    between atoms: C_1  and  N_2
REMARK    2  A    between atoms: N_2  and  C_3
REMARK    3  A    between atoms: N_2  and  C_4
REMARK    4  A    between atoms: C_4  and  C_5
REMARK    5  A    between atoms: C_5  and  C_6
REMARK    6  A    between atoms: C_6  and  C_7
REMARK    7  A    between atoms: C_7  and  C_8
REMARK    8  A    between atoms: C_8  and  C_9
REMARK    9  A    between atoms: C_9  and  C_10
REMARK   10  A    between atoms: C_9  and  C_19
REMARK   11  A    between atoms: C_13  and  C_14
REMARK                            x       y       z     vdW  Elec       q    Type
REMARK                         _______ _______ _______ _____ _____    ______ ____
ROOT
ATOM      1  C   UNL     1       8.572  -1.261  -4.089  0.00  0.00    +0.000 C 
ENDROOT
BRANCH   1   2
ATOM      2  C   UNL     1       9.053  -1.538  -5.506  0.00  0.00    +0.000 A 
ATOM      3  C   UNL     1       9.917  -0.675  -6.149  0.00  0.00    +0.000 A 
ATOM      4  C   UNL     1      10.243  -1.011  -7.443  0.00  0.00    +0.000 A 
ATOM      5  N   UNL     1       9.761  -2.096  -8.077  0.00  0.00    +0.000 NA
ATOM      6  C   UNL     1       8.907  -2.852  -7.389  0.00  0.00    +0.000 A 
ATOM      7  N   UNL     1       8.356  -3.954  -8.007  0.00  0.00    +0.000 N 
ATOM      8  N   UNL     1       8.546  -2.630  -6.123  0.00  0.00    +0.000 NA
ATOM      9  H   UNL     1       8.944  -4.273  -8.763  0.00  0.00    +0.000 HD
ATOM     10  H   UNL     1       8.060  -4.632  -7.322  0.00  0.00    +0.000 HD
ENDBRANCH   1   2
BRANCH   1  11
ATOM     11  C   UNL     1       9.024  -2.290  -3.071  0.00  0.00    +0.000 A 
ATOM     12  C   UNL     1       8.641  -3.618  -3.136  0.00  0.00    +0.000 A 
ATOM     13  N   UNL     1       8.924  -4.536  -2.195  0.00  0.00    +0.000 NA
ATOM     14  C   UNL     1       9.626  -4.079  -1.132  0.00  0.00    +0.000 A 
ATOM     15  N   UNL     1      10.052  -2.815  -0.952  0.00  0.00    +0.000 NA
ATOM     16  C   UNL     1       9.736  -1.948  -1.933  0.00  0.00    +0.000 A 
BRANCH  14  17
ATOM     17  C   UNL     1       9.901  -5.101  -0.059  0.00  0.00    +0.000 C 
ATOM     18  N   UNL     1       9.411  -6.361  -0.301  0.00  0.00    +0.000 N 
ATOM     19  O   UNL     1      10.515  -4.858   0.985  0.00  0.00    +0.000 OA
ATOM     20  H   UNL     1       8.894  -6.540  -1.158  0.00  0.00    +0.000 HD
ATOM     21  H   UNL     1       9.542  -7.089   0.384  0.00  0.00    +0.000 HD
ENDBRANCH  14  17
ENDBRANCH   1  11
BRANCH   1  22
ATOM     22  C   UNL     1       7.029  -1.139  -4.094  0.00  0.00    +0.000 C 
BRANCH  22  23
ATOM     23  C   UNL     1       6.467  -0.720  -2.736  0.00  0.00    +0.000 C 
BRANCH  23  24
ATOM     24  C   UNL     1       7.005   0.635  -2.297  0.00  0.00    +0.000 C 
BRANCH  24  25
ATOM     25  C   UNL     1       6.426   0.999  -0.938  0.00  0.00    +0.000 C 
BRANCH  25  26
ATOM     26  C   UNL     1       6.919   2.364  -0.444  0.00  0.00    +0.000 C 
BRANCH  26  28
ATOM     27  C   UNL     1       5.118   3.547  -1.508  0.00  0.00    +0.000 C 
ATOM     28  N   UNL     1       6.573   3.452  -1.375  0.00  0.00    +0.000 NA
ATOM     29  C   UNL     1       7.106   4.740  -0.923  0.00  0.00    +0.000 C 
ENDBRANCH  26  28
ENDBRANCH  25  26
ENDBRANCH  24  25
ENDBRANCH  23  24
ENDBRANCH  22  23
ENDBRANCH   1  22
TORSDOF 9
