REMARK  Name = 
REMARK  8 active torsions:
REMARK  status: ('A' for Active; 'I' for Inactive)
REMARK    1  A    between atoms: N_1  and  C_2
REMARK    2  A    between atoms: C_2  and  C_3
REMARK    3  A    between atoms: C_3  and  N_4
REMARK    4  A    between atoms: N_4  and  C_5
REMARK    5  A    between atoms: C_5  and  C_6
REMARK    6  A    between atoms: C_9  and  C_10
REMARK    7  A    between atoms: C_10  and  N_11
REMARK    8  A    between atoms: C_12  and  C_14
REMARK                            x       y       z     vdW  Elec       q    Type
REMARK                         _______ _______ _______ _____ _____    ______ ____
ROOT
ATOM      1  C   UNL     1      10.661   2.304  -1.740  0.00  0.00    +0.000 C 
ENDROOT
BRANCH   1   5
ATOM      2  C   UNL     1       6.405   2.219  -1.685  0.00  0.00    +0.000 A 
ATOM      3  C   UNL     1       7.072   2.774  -0.597  0.00  0.00    +0.000 A 
ATOM      4  C   UNL     1       8.463   2.813  -0.607  0.00  0.00    +0.000 A 
ATOM      5  C   UNL     1       9.163   2.281  -1.691  0.00  0.00    +0.000 A 
ATOM      6  C   UNL     1       8.415   1.763  -2.742  0.00  0.00    +0.000 A 
ATOM      7  N   UNL     1       7.062   1.722  -2.763  0.00  0.00    +0.000 NA
BRANCH   2   8
ATOM      8  C   UNL     1       4.888   2.221  -1.723  0.00  0.00    +0.000 C 
BRANCH   8   9
ATOM      9  N   UNL     1       4.277   3.567  -1.701  0.00  0.00    +0.000 NA
ATOM     10  H   UNL     1       3.272   3.426  -1.839  0.00  0.00    +0.000 HD
BRANCH   9  11
ATOM     11  C   UNL     1       4.721   4.397  -2.837  0.00  0.00    +0.000 C 
BRANCH  11  12
ATOM     12  C   UNL     1       4.248   3.879  -4.209  0.00  0.00    +0.000 C 
BRANCH  12  13
ATOM     13  N   UNL     1       2.791   3.692  -4.231  0.00  0.00    +0.000 NA
ATOM     14  H   UNL     1       2.521   3.340  -5.150  0.00  0.00    +0.000 HD
ATOM     15  H   UNL     1       2.341   4.601  -4.133  0.00  0.00    +0.000 HD
ENDBRANCH  12  13
ENDBRANCH  11  12
ENDBRANCH   9  11
ENDBRANCH   8   9
ENDBRANCH   2   8
ENDBRANCH   1   5
BRANCH   1  16
ATOM     16  N   UNL     1      11.153   3.514  -2.350  0.00  0.00    +0.000 N 
ATOM     17  C   UNL     1      12.490   3.674  -2.612  0.00  0.00    +0.000 C 
ATOM     18  O   UNL     1      13.299   2.771  -2.416  0.00  0.00    +0.000 OA
ATOM     19  H   UNL     1      10.551   4.332  -2.314  0.00  0.00    +0.000 HD
BRANCH  17  20
ATOM     20  C   UNL     1      12.905   4.960  -3.187  0.00  0.00    +0.000 A 
ATOM     21  C   UNL     1      14.102   5.041  -3.887  0.00  0.00    +0.000 A 
ATOM     22  S   UNL     1      14.429   6.594  -4.510  0.00  0.00    +0.000 S 
ATOM     23  C   UNL     1      13.003   7.226  -3.831  0.00  0.00    +0.000 A 
ATOM     24  N   UNL     1      12.688   8.542  -3.970  0.00  0.00    +0.000 NA
ATOM     25  C   UNL     1      11.594   8.893  -3.380  0.00  0.00    +0.000 A 
ATOM     26  N   UNL     1      10.782   8.046  -2.673  0.00  0.00    +0.000 N 
ATOM     27  C   UNL     1      11.045   6.705  -2.530  0.00  0.00    +0.000 A 
ATOM     28  O   UNL     1      10.273   5.964  -1.929  0.00  0.00    +0.000 OA
ATOM     29  C   UNL     1      12.275   6.260  -3.157  0.00  0.00    +0.000 A 
ATOM     30  H   UNL     1       9.932   8.383  -2.244  0.00  0.00    +0.000 HD
ENDBRANCH  17  20
ENDBRANCH   1  16
TORSDOF 8
