REMARK  Name = 
REMARK  6 active torsions:
REMARK  status: ('A' for Active; 'I' for Inactive)
REMARK    1  A    between atoms: C_2  and  C_19
REMARK    2  A    between atoms: N_3  and  C_4
REMARK    3  A    between atoms: C_4  and  C_5
REMARK    4  A    between atoms: C_8  and  C_9
REMARK    5  A    between atoms: C_10  and  C_11
REMARK    6  A    between atoms: C_11  and  C_12
REMARK                            x       y       z     vdW  Elec       q    Type
REMARK                         _______ _______ _______ _____ _____    ______ ____
ROOT
ATOM      1  C   UNL     1       2.284  -0.013   2.554  0.00  0.00    +0.000 C 
ENDROOT
BRANCH   1   2
ATOM      2  C   UNL     1       3.232  -0.003   3.724  0.00  0.00    +0.000 A 
ATOM      3  C   UNL     1       3.669   1.215   4.253  0.00  0.00    +0.000 A 
ATOM      4  C   UNL     1       4.520   1.246   5.359  0.00  0.00    +0.000 A 
ATOM      5  C   UNL     1       4.951   0.064   5.973  0.00  0.00    +0.000 A 
ATOM      6  C   UNL     1       4.555  -1.158   5.412  0.00  0.00    +0.000 A 
ATOM      7  C   UNL     1       3.704  -1.192   4.296  0.00  0.00    +0.000 A 
BRANCH   5   8
ATOM      8  C   UNL     1       5.832   0.081   7.155  0.00  0.00    +0.000 C 
ATOM      9  C   UNL     1       5.797   1.054   8.080  0.00  0.00    +0.000 C 
BRANCH   9  10
ATOM     10  C   UNL     1       6.657   1.132   9.311  0.00  0.00    +0.000 C 
BRANCH  10  11
ATOM     11  C   UNL     1       5.873   1.183  10.584  0.00  0.00    +0.000 A 
ATOM     12  C   UNL     1       5.775   2.164  11.552  0.00  0.00    +0.000 A 
ATOM     13  C   UNL     1       4.878   1.700  12.544  0.00  0.00    +0.000 A 
ATOM     14  C   UNL     1       4.451   0.450  12.158  0.00  0.00    +0.000 A 
ATOM     15  N   UNL     1       5.058   0.144  10.969  0.00  0.00    +0.000 N 
ATOM     16  H   UNL     1       4.912  -0.705  10.438  0.00  0.00    +0.000 HD
ENDBRANCH  10  11
ENDBRANCH   9  10
ENDBRANCH   5   8
ENDBRANCH   1   2
BRANCH   1  19
ATOM     17  O   UNL     1       2.869   2.302   1.059  0.00  0.00    +0.000 OA
ATOM     18  C   UNL     1       3.265   1.214   0.652  0.00  0.00    +0.000 C 
ATOM     19  N   UNL     1       2.986   0.036   1.297  0.00  0.00    +0.000 N 
ATOM     20  H   UNL     1       3.485  -0.805   1.031  0.00  0.00    +0.000 HD
BRANCH  18  21
ATOM     21  C   UNL     1       4.024   1.099  -0.599  0.00  0.00    +0.000 A 
ATOM     22  C   UNL     1       3.897   2.074  -1.579  0.00  0.00    +0.000 A 
ATOM     23  S   UNL     1       4.854   1.779  -2.960  0.00  0.00    +0.000 S 
ATOM     24  C   UNL     1       5.494   0.358  -2.282  0.00  0.00    +0.000 A 
ATOM     25  N   UNL     1       6.423  -0.382  -2.948  0.00  0.00    +0.000 NA
ATOM     26  C   UNL     1       6.852  -1.412  -2.299  0.00  0.00    +0.000 A 
ATOM     27  N   UNL     1       6.427  -1.778  -1.048  0.00  0.00    +0.000 N 
ATOM     28  C   UNL     1       5.436  -1.110  -0.372  0.00  0.00    +0.000 A 
ATOM     29  O   UNL     1       4.976  -1.550   0.677  0.00  0.00    +0.000 OA
ATOM     30  C   UNL     1       4.963   0.091  -1.034  0.00  0.00    +0.000 A 
ATOM     31  H   UNL     1       6.773  -2.619  -0.607  0.00  0.00    +0.000 HD
ENDBRANCH  18  21
ENDBRANCH   1  19
TORSDOF 6
