REMARK  Name = 
REMARK  7 active torsions:
REMARK  status: ('A' for Active; 'I' for Inactive)
REMARK    1  A    between atoms: C_1  and  O_2
REMARK    2  A    between atoms: O_2  and  C_3
REMARK    3  A    between atoms: C_7  and  C_8
REMARK    4  A    between atoms: C_10  and  C_11
REMARK    5  A    between atoms: C_11  and  O_12
REMARK    6  A    between atoms: O_12  and  C_13
REMARK    7  A    between atoms: C_16  and  C_17
REMARK                            x       y       z     vdW  Elec       q    Type
REMARK                         _______ _______ _______ _____ _____    ______ ____
ROOT
ATOM      1  C   UNL     1       6.620  -1.719   1.915  0.00  0.00    +0.000 A 
ATOM      2  C   UNL     1       7.693  -2.121   1.119  0.00  0.00    +0.000 A 
ATOM      3  C   UNL     1       9.004  -1.896   1.555  0.00  0.00    +0.000 A 
ATOM      4  C   UNL     1       9.197  -1.236   2.767  0.00  0.00    +0.000 A 
ATOM      5  C   UNL     1       8.083  -0.852   3.492  0.00  0.00    +0.000 A 
ATOM      6  N   UNL     1       6.813  -1.077   3.095  0.00  0.00    +0.000 NA
ENDROOT
BRANCH   1  11
ATOM      7  C   UNL     1       3.515  -3.525   0.660  0.00  0.00    +0.000 A 
ATOM      8  C   UNL     1       2.511  -2.641   1.047  0.00  0.00    +0.000 A 
ATOM      9  C   UNL     1       2.845  -1.443   1.680  0.00  0.00    +0.000 A 
ATOM     10  C   UNL     1       4.183  -1.135   1.940  0.00  0.00    +0.000 A 
ATOM     11  C   UNL     1       5.216  -2.010   1.568  0.00  0.00    +0.000 A 
ATOM     12  C   UNL     1       4.852  -3.198   0.907  0.00  0.00    +0.000 A 
BRANCH   7  14
ATOM     13  C   UNL     1       1.991  -5.187  -0.082  0.00  0.00    +0.000 C 
ATOM     14  O   UNL     1       3.333  -4.736   0.051  0.00  0.00    +0.000 OA
ENDBRANCH   7  14
ENDBRANCH   1  11
BRANCH   3  15
ATOM     15  C   UNL     1      10.169  -2.353   0.720  0.00  0.00    +0.000 C 
BRANCH  15  16
ATOM     16  O   UNL     1      10.492  -1.326  -0.214  0.00  0.00    +0.000 OA
BRANCH  16  17
ATOM     17  C   UNL     1      11.518  -1.584  -1.081  0.00  0.00    +0.000 A 
ATOM     18  C   UNL     1      12.294  -2.744  -1.107  0.00  0.00    +0.000 A 
ATOM     19  C   UNL     1      13.326  -2.880  -2.043  0.00  0.00    +0.000 A 
ATOM     20  C   UNL     1      13.595  -1.859  -2.964  0.00  0.00    +0.000 A 
ATOM     21  C   UNL     1      12.807  -0.708  -2.934  0.00  0.00    +0.000 A 
ATOM     22  F   UNL     1      13.015   0.299  -3.796  0.00  0.00    +0.000 F 
ATOM     23  C   UNL     1      11.779  -0.568  -2.001  0.00  0.00    +0.000 A 
BRANCH  20  24
ATOM     24  C   UNL     1      14.717  -2.052  -3.920  0.00  0.00    +0.000 C 
ATOM     25  N   UNL     1      14.984  -1.060  -4.815  0.00  0.00    +0.000 N 
ATOM     26  O   UNL     1      15.394  -3.075  -3.905  0.00  0.00    +0.000 OA
ATOM     27  H   UNL     1      14.456  -0.197  -4.860  0.00  0.00    +0.000 HD
ATOM     28  H   UNL     1      15.758  -1.191  -5.453  0.00  0.00    +0.000 HD
ENDBRANCH  20  24
ENDBRANCH  16  17
ENDBRANCH  15  16
ENDBRANCH   3  15
TORSDOF 6
