REMARK  Name = 
REMARK  6 active torsions:
REMARK  status: ('A' for Active; 'I' for Inactive)
REMARK    1  A    between atoms: C_5  and  N_6
REMARK    2  A    between atoms: N_6  and  C_7
REMARK    3  A    between atoms: C_7  and  C_8
REMARK    4  A    between atoms: C_8  and  C_9
REMARK    5  A    between atoms: C_16  and  O_17
REMARK    6  A    between atoms: O_17  and  C_18
REMARK                            x       y       z     vdW  Elec       q    Type
REMARK                         _______ _______ _______ _____ _____    ______ ____
ROOT
ATOM      1 CL   UNL     1      -2.057   0.358  -0.342  0.00  0.00    +0.000 Cl
ATOM      2  C   UNL     1      -0.355   0.186  -0.113  0.00  0.00    +0.000 A 
ATOM      3  C   UNL     1       0.405   1.316  -0.429  0.00  0.00    +0.000 A 
ATOM      4  C   UNL     1       1.802   1.274  -0.392  0.00  0.00    +0.000 A 
ATOM      5  C   UNL     1       2.482   0.112  -0.015  0.00  0.00    +0.000 A 
ATOM      6  C   UNL     1       1.703  -1.012   0.306  0.00  0.00    +0.000 A 
ATOM      7  C   UNL     1       0.288  -0.985   0.290  0.00  0.00    +0.000 A 
ENDROOT
BRANCH   5   8
ATOM      8  N   UNL     1       3.886  -0.006  -0.101  0.00  0.00    +0.000 N 
ATOM      9  H   UNL     1       4.237  -0.785   0.451  0.00  0.00    +0.000 HD
BRANCH   8  10
ATOM     10  C   UNL     1       4.652   1.226   0.066  0.00  0.00    +0.000 C 
BRANCH  10  11
ATOM     11  C   UNL     1       6.158   0.988  -0.023  0.00  0.00    +0.000 C 
BRANCH  11  12
ATOM     12  C   UNL     1       6.954   2.308   0.082  0.00  0.00    +0.000 C 
ATOM     13  C   UNL     1       8.461   2.047  -0.046  0.00  0.00    +0.000 C 
ATOM     14  C   UNL     1       9.253   3.339   0.131  0.00  0.00    +0.000 C 
ATOM     15  C   UNL     1       8.845   4.047   1.416  0.00  0.00    +0.000 C 
ATOM     16  O   UNL     1       7.442   4.295   1.420  0.00  0.00    +0.000 OA
ATOM     17  C   UNL     1       6.677   3.091   1.375  0.00  0.00    +0.000 C 
ENDBRANCH  11  12
ENDBRANCH  10  11
ENDBRANCH   8  10
ENDBRANCH   5   8
BRANCH   7  18
ATOM     18  O   UNL     1      -0.263  -2.208   0.613  0.00  0.00    +0.000 OA
BRANCH  18  19
ATOM     19  C   UNL     1      -1.599  -2.329   1.150  0.00  0.00    +0.000 C 
ATOM     20  C   UNL     1      -1.905  -1.761   2.543  0.00  0.00    +0.000 C 
ATOM     21  O   UNL     1      -2.331  -3.051   3.040  0.00  0.00    +0.000 OA
ATOM     22  C   UNL     1      -1.910  -3.682   1.811  0.00  0.00    +0.000 C 
ENDBRANCH  18  19
ENDBRANCH   7  18
TORSDOF 6
