REMARK  Name = 
REMARK  8 active torsions:
REMARK  status: ('A' for Active; 'I' for Inactive)
REMARK    1  A    between atoms: C_2  and  C_3
REMARK    2  A    between atoms: N_7  and  C_8
REMARK    3  A    between atoms: C_8  and  C_9
REMARK    4  A    between atoms: C_9  and  C_10
REMARK    5  A    between atoms: C_9  and  C_12
REMARK    6  A    between atoms: C_10  and  O_11
REMARK    7  A    between atoms: C_17  and  O_18
REMARK    8  A    between atoms: O_18  and  C_19
REMARK                            x       y       z     vdW  Elec       q    Type
REMARK                         _______ _______ _______ _____ _____    ______ ____
ROOT
ATOM      1  C   UNL     1      -5.975   1.180  -0.275  0.00  0.00    +0.000 C 
ENDROOT
BRANCH   1   2
ATOM      2  C   UNL     1      -6.537   2.601  -0.343  0.00  0.00    +0.000 A 
ATOM      3  C   UNL     1      -5.855   3.711   0.159  0.00  0.00    +0.000 A 
ATOM      4  C   UNL     1      -6.398   4.990   0.018  0.00  0.00    +0.000 A 
ATOM      5  C   UNL     1      -7.641   5.193  -0.603  0.00  0.00    +0.000 A 
ATOM      6 CL   UNL     1      -8.108   6.842  -0.799  0.00  0.00    +0.000 Cl
ATOM      7  C   UNL     1      -8.374   4.095  -1.060  0.00  0.00    +0.000 A 
ATOM      8  C   UNL     1      -7.801   2.814  -0.932  0.00  0.00    +0.000 A 
BRANCH   7   9
ATOM      9  O   UNL     1      -9.588   4.067  -1.713  0.00  0.00    +0.000 OA
BRANCH   9  10
ATOM     10  C   UNL     1     -10.592   5.088  -1.500  0.00  0.00    +0.000 C 
ATOM     11  C   UNL     1     -11.241   5.207  -0.107  0.00  0.00    +0.000 C 
ATOM     12  N   UNL     1     -12.584   5.150  -0.703  0.00  0.00    +0.000 NA
ATOM     13  C   UNL     1     -12.016   4.740  -1.996  0.00  0.00    +0.000 C 
ATOM     14  H   UNL     1     -13.067   6.048  -0.729  0.00  0.00    +0.000 HD
ENDBRANCH   9  10
ENDBRANCH   7   9
ENDBRANCH   1   2
BRANCH   1  15
ATOM     15  C   UNL     1      -6.630   0.353   0.860  0.00  0.00    +0.000 C 
BRANCH  15  20
ATOM     16  C   UNL     1      -7.804  -0.695   5.727  0.00  0.00    +0.000 A 
ATOM     17  C   UNL     1      -7.543  -1.564   4.673  0.00  0.00    +0.000 A 
ATOM     18  C   UNL     1      -7.086  -1.049   3.456  0.00  0.00    +0.000 A 
ATOM     19  C   UNL     1      -6.907   0.323   3.309  0.00  0.00    +0.000 A 
ATOM     20  N   UNL     1      -6.364   0.912   2.180  0.00  0.00    +0.000 N 
ATOM     21  N   UNL     1      -7.175   1.173   4.320  0.00  0.00    +0.000 NA
ATOM     22  C   UNL     1      -7.611   0.656   5.499  0.00  0.00    +0.000 A 
ATOM     23  H   UNL     1      -6.530   1.914   2.275  0.00  0.00    +0.000 HD
BRANCH  16  25
ATOM     24  N   UNL     1      -8.586  -1.561   8.040  0.00  0.00    +0.000 NA
ATOM     25  C   UNL     1      -8.240  -1.170   7.001  0.00  0.00    +0.000 C 
ENDBRANCH  16  25
ENDBRANCH  15  20
ENDBRANCH   1  15
BRANCH   1  26
ATOM     26  C   UNL     1      -4.436   1.059  -0.220  0.00  0.00    +0.000 C 
BRANCH  26  27
ATOM     27  O   UNL     1      -3.832   1.542  -1.420  0.00  0.00    +0.000 OA
ATOM     28  H   UNL     1      -3.794   2.513  -1.365  0.00  0.00    +0.000 HD
ENDBRANCH  26  27
ENDBRANCH   1  26
TORSDOF 8
