REMARK  Name = 
REMARK  4 active torsions:
REMARK  status: ('A' for Active; 'I' for Inactive)
REMARK    1  A    between atoms: C_1  and  C_2
REMARK    2  A    between atoms: N_6  and  C_7
REMARK    3  A    between atoms: C_7  and  C_8
REMARK    4  A    between atoms: C_7  and  C_9
REMARK                            x       y       z     vdW  Elec       q    Type
REMARK                         _______ _______ _______ _____ _____    ______ ____
ROOT
ATOM      1  C   UNL     1      -2.491  -0.414  -1.039  0.00  0.00    +0.000 C 
ATOM      2  C   UNL     1      -1.038  -0.285  -0.744  0.00  0.00    +0.000 A 
ATOM      3  C   UNL     1      -0.324  -1.219  -0.031  0.00  0.00    +0.000 A 
ATOM      4  N   UNL     1       1.011  -1.163   0.152  0.00  0.00    +0.000 NA
ATOM      5  C   UNL     1       1.657  -0.114  -0.378  0.00  0.00    +0.000 A 
ATOM      6  N   UNL     1       3.039  -0.052  -0.371  0.00  0.00    +0.000 N 
ATOM      7  N   UNL     1       1.036   0.896  -1.000  0.00  0.00    +0.000 NA
ATOM      8  C   UNL     1      -0.289   0.774  -1.201  0.00  0.00    +0.000 A 
ATOM      9  H   UNL     1       3.309   0.698   0.254  0.00  0.00    +0.000 HD
ENDROOT
BRANCH   6  10
ATOM     10  C   UNL     1       3.770  -1.294  -0.170  0.00  0.00    +0.000 C 
ATOM     11  C   UNL     1       3.542  -2.250  -1.354  0.00  0.00    +0.000 C 
BRANCH  10  12
ATOM     12  C   UNL     1       5.261  -0.969  -0.081  0.00  0.00    +0.000 A 
ATOM     13  C   UNL     1       6.023  -1.405   1.012  0.00  0.00    +0.000 A 
ATOM     14  C   UNL     1       7.397  -1.148   1.067  0.00  0.00    +0.000 A 
ATOM     15  C   UNL     1       8.023  -0.461   0.030  0.00  0.00    +0.000 A 
ATOM     16  C   UNL     1       7.280  -0.014  -1.058  0.00  0.00    +0.000 A 
ATOM     17  C   UNL     1       5.908  -0.261  -1.111  0.00  0.00    +0.000 A 
ENDBRANCH  10  12
ENDBRANCH   6  10
TORSDOF 2
