REMARK  Name = 
REMARK  9 active torsions:
REMARK  status: ('A' for Active; 'I' for Inactive)
REMARK    1  A    between atoms: C_1  and  C_2
REMARK    2  A    between atoms: C_2  and  C_3
REMARK    3  A    between atoms: C_2  and  C_4
REMARK    4  A    between atoms: C_2  and  C_5
REMARK    5  A    between atoms: C_5  and  O_6
REMARK    6  A    between atoms: C_5  and  C_7
REMARK    7  A    between atoms: C_10  and  C_11
REMARK    8  A    between atoms: C_11  and  N_12
REMARK    9  A    between atoms: C_17  and  C_18
REMARK                            x       y       z     vdW  Elec       q    Type
REMARK                         _______ _______ _______ _____ _____    ______ ____
ROOT
ATOM      1  C   UNL     1       8.964  -1.256   1.037  0.00  0.00    +0.000 C 
ENDROOT
BRANCH   1   2
ATOM      2  N   UNL     1       9.368  -1.076   2.429  0.00  0.00    +0.000 N 
ATOM      3  C   UNL     1       9.566  -2.101   3.327  0.00  0.00    +0.000 A 
ATOM      4  C   UNL     1      10.073  -1.563   4.490  0.00  0.00    +0.000 A 
ATOM      5  C   UNL     1      10.207  -0.164   4.291  0.00  0.00    +0.000 A 
ATOM      6  C   UNL     1      10.684   0.905   5.075  0.00  0.00    +0.000 A 
ATOM      7  C   UNL     1      10.687   2.179   4.504  0.00  0.00    +0.000 A 
ATOM      8  C   UNL     1      10.214   2.320   3.200  0.00  0.00    +0.000 A 
ATOM      9  N   UNL     1       9.741   1.323   2.400  0.00  0.00    +0.000 NA
ATOM     10  C   UNL     1       9.763   0.114   2.998  0.00  0.00    +0.000 A 
BRANCH   7  11
ATOM     11  C   UNL     1      11.185   3.393   5.204  0.00  0.00    +0.000 C 
ATOM     12  N   UNL     1      11.648   3.272   6.487  0.00  0.00    +0.000 N 
ATOM     13  O   UNL     1      11.191   4.487   4.655  0.00  0.00    +0.000 OA
ATOM     14  H   UNL     1      11.666   2.422   7.028  0.00  0.00    +0.000 HD
ATOM     15  H   UNL     1      11.978   4.117   6.932  0.00  0.00    +0.000 HD
ENDBRANCH   7  11
ENDBRANCH   1   2
BRANCH   1  19
ATOM     16  C   UNL     1       4.627  -1.358   0.583  0.00  0.00    +0.000 A 
ATOM     17  C   UNL     1       5.352  -0.160   0.470  0.00  0.00    +0.000 A 
ATOM     18  C   UNL     1       6.745  -0.132   0.608  0.00  0.00    +0.000 A 
ATOM     19  C   UNL     1       7.465  -1.305   0.856  0.00  0.00    +0.000 A 
ATOM     20  C   UNL     1       6.757  -2.512   0.928  0.00  0.00    +0.000 A 
ATOM     21  C   UNL     1       5.359  -2.539   0.785  0.00  0.00    +0.000 A 
BRANCH  16  22
ATOM     22  C   UNL     1       3.100  -1.304   0.561  0.00  0.00    +0.000 C 
BRANCH  22  24
ATOM     23  C   UNL     1       0.847  -1.282  -0.607  0.00  0.00    +0.000 C 
ATOM     24  C   UNL     1       2.369  -1.484  -0.812  0.00  0.00    +0.000 C 
ATOM     25  C   UNL     1       2.569  -2.893  -1.396  0.00  0.00    +0.000 C 
ATOM     26  C   UNL     1       2.829  -0.432  -1.838  0.00  0.00    +0.000 C 
ENDBRANCH  22  24
BRANCH  22  27
ATOM     27  O   UNL     1       2.566  -2.216   1.529  0.00  0.00    +0.000 OA
ATOM     28  H   UNL     1       2.864  -3.108   1.299  0.00  0.00    +0.000 HD
ENDBRANCH  22  27
ENDBRANCH  16  22
ENDBRANCH   1  19
TORSDOF 6
