REMARK  Name = 
REMARK  3 active torsions:
REMARK  status: ('A' for Active; 'I' for Inactive)
REMARK    1  A    between atoms: C_2  and  C_4
REMARK    2  A    between atoms: N_8  and  C_9
REMARK    3  A    between atoms: C_9  and  C_10
REMARK                            x       y       z     vdW  Elec       q    Type
REMARK                         _______ _______ _______ _____ _____    ______ ____
ROOT
ATOM      1  C   UNL     1       2.901   2.394  -3.617  0.00  0.00    +0.000 A 
ATOM      2  C   UNL     1       2.229   3.336  -2.845  0.00  0.00    +0.000 A 
ATOM      3  C   UNL     1       2.950   4.118  -1.938  0.00  0.00    +0.000 A 
ATOM      4  C   UNL     1       4.321   3.937  -1.810  0.00  0.00    +0.000 A 
ATOM      5  N   UNL     1       5.100   4.621  -0.872  0.00  0.00    +0.000 N 
ATOM      6  N   UNL     1       4.980   3.008  -2.537  0.00  0.00    +0.000 NA
ATOM      7  C   UNL     1       4.265   2.257  -3.418  0.00  0.00    +0.000 A 
ATOM      8  H   UNL     1       6.057   4.306  -1.024  0.00  0.00    +0.000 HD
ENDROOT
BRANCH   1  10
ATOM      9  N   UNL     1       1.053   1.997  -5.142  0.00  0.00    +0.000 N 
ATOM     10  C   UNL     1       2.222   1.529  -4.604  0.00  0.00    +0.000 C 
ATOM     11  O   UNL     1       2.694   0.458  -4.952  0.00  0.00    +0.000 OA
ATOM     12  H   UNL     1       0.643   1.445  -5.885  0.00  0.00    +0.000 HD
ATOM     13  H   UNL     1       0.761   2.961  -5.064  0.00  0.00    +0.000 HD
ENDBRANCH   1  10
BRANCH   5  14
ATOM     14  C   UNL     1       4.928   6.038  -0.510  0.00  0.00    +0.000 C 
ATOM     15  C   UNL     1       5.049   6.322   0.985  0.00  0.00    +0.000 C 
ATOM     16  C   UNL     1       3.749   6.559   0.294  0.00  0.00    +0.000 C 
BRANCH  14  17
ATOM     17  C   UNL     1       5.581   7.026  -1.476  0.00  0.00    +0.000 A 
ATOM     18  C   UNL     1       4.858   7.580  -2.548  0.00  0.00    +0.000 A 
ATOM     19  C   UNL     1       5.421   8.550  -3.378  0.00  0.00    +0.000 A 
ATOM     20 CL   UNL     1       4.477   9.236  -4.646  0.00  0.00    +0.000 Cl
ATOM     21  C   UNL     1       6.724   8.990  -3.177  0.00  0.00    +0.000 A 
ATOM     22  C   UNL     1       7.466   8.431  -2.141  0.00  0.00    +0.000 A 
ATOM     23 CL   UNL     1       9.075   8.976  -1.860  0.00  0.00    +0.000 Cl
ATOM     24  C   UNL     1       6.911   7.459  -1.309  0.00  0.00    +0.000 A 
ENDBRANCH  14  17
ENDBRANCH   5  14
TORSDOF 3
