REMARK  Name = 
REMARK  6 active torsions:
REMARK  status: ('A' for Active; 'I' for Inactive)
REMARK    1  A    between atoms: C_2  and  C_18
REMARK    2  A    between atoms: N_3  and  C_4
REMARK    3  A    between atoms: C_4  and  C_5
REMARK    4  A    between atoms: C_8  and  C_9
REMARK    5  A    between atoms: C_9  and  N_10
REMARK    6  A    between atoms: N_10  and  C_11
REMARK                            x       y       z     vdW  Elec       q    Type
REMARK                         _______ _______ _______ _____ _____    ______ ____
ROOT
ATOM      1  C   UNL     1       2.443  -1.934  -1.400  0.00  0.00    +0.000 C 
ENDROOT
BRANCH   1   2
ATOM      2  C   UNL     1       3.381  -2.927  -2.033  0.00  0.00    +0.000 A 
ATOM      3  C   UNL     1       4.549  -2.493  -2.671  0.00  0.00    +0.000 A 
ATOM      4  C   UNL     1       5.421  -3.412  -3.262  0.00  0.00    +0.000 A 
ATOM      5  C   UNL     1       5.135  -4.784  -3.239  0.00  0.00    +0.000 A 
ATOM      6  C   UNL     1       3.952  -5.214  -2.621  0.00  0.00    +0.000 A 
ATOM      7  C   UNL     1       3.081  -4.295  -2.031  0.00  0.00    +0.000 A 
BRANCH   5   8
ATOM      8  C   UNL     1       6.051  -5.782  -3.911  0.00  0.00    +0.000 C 
BRANCH   8   9
ATOM      9  N   UNL     1       7.387  -5.794  -3.323  0.00  0.00    +0.000 NA
ATOM     10  H   UNL     1       7.324  -6.012  -2.331  0.00  0.00    +0.000 HD
BRANCH   9  11
ATOM     11  C   UNL     1       8.246  -6.772  -3.934  0.00  0.00    +0.000 C 
ATOM     12  C   UNL     1       7.803  -8.227  -3.846  0.00  0.00    +0.000 C 
ATOM     13  C   UNL     1       9.113  -8.972  -4.026  0.00  0.00    +0.000 C 
ATOM     14  C   UNL     1      10.154  -8.037  -3.422  0.00  0.00    +0.000 C 
ATOM     15  N   UNL     1       9.457  -6.782  -3.139  0.00  0.00    +0.000 NA
ATOM     16  H   UNL     1      10.025  -5.973  -3.378  0.00  0.00    +0.000 HD
ENDBRANCH   9  11
ENDBRANCH   8   9
ENDBRANCH   5   8
ENDBRANCH   1   2
BRANCH   1  19
ATOM     17  O   UNL     1       2.445   0.421  -2.942  0.00  0.00    +0.000 OA
ATOM     18  C   UNL     1       1.534  -0.387  -3.091  0.00  0.00    +0.000 C 
ATOM     19  N   UNL     1       1.423  -1.522  -2.329  0.00  0.00    +0.000 N 
ATOM     20  H   UNL     1       0.768  -2.242  -2.611  0.00  0.00    +0.000 HD
BRANCH  18  21
ATOM     21  C   UNL     1       0.461  -0.159  -4.067  0.00  0.00    +0.000 A 
ATOM     22  C   UNL     1       0.213   1.128  -4.529  0.00  0.00    +0.000 A 
ATOM     23  S   UNL     1      -1.075   1.218  -5.643  0.00  0.00    +0.000 S 
ATOM     24  C   UNL     1      -1.320  -0.464  -5.582  0.00  0.00    +0.000 A 
ATOM     25  N   UNL     1      -2.279  -1.059  -6.341  0.00  0.00    +0.000 NA
ATOM     26  C   UNL     1      -2.327  -2.346  -6.230  0.00  0.00    +0.000 A 
ATOM     27  N   UNL     1      -1.509  -3.089  -5.419  0.00  0.00    +0.000 N 
ATOM     28  C   UNL     1      -0.579  -2.525  -4.580  0.00  0.00    +0.000 A 
ATOM     29  O   UNL     1       0.039  -3.211  -3.773  0.00  0.00    +0.000 OA
ATOM     30  C   UNL     1      -0.449  -1.085  -4.703  0.00  0.00    +0.000 A 
ATOM     31  H   UNL     1      -1.619  -4.090  -5.353  0.00  0.00    +0.000 HD
ENDBRANCH  18  21
ENDBRANCH   1  19
TORSDOF 6
