REMARK  Name = 
REMARK  8 active torsions:
REMARK  status: ('A' for Active; 'I' for Inactive)
REMARK    1  A    between atoms: C_2  and  C_20
REMARK    2  A    between atoms: N_3  and  C_4
REMARK    3  A    between atoms: C_4  and  C_5
REMARK    4  A    between atoms: C_8  and  C_9
REMARK    5  A    between atoms: C_9  and  C_10
REMARK    6  A    between atoms: C_10  and  C_11
REMARK    7  A    between atoms: C_11  and  O_12
REMARK    8  A    between atoms: C_11  and  C_13
REMARK                            x       y       z     vdW  Elec       q    Type
REMARK                         _______ _______ _______ _____ _____    ______ ____
ROOT
ATOM      1  C   UNL     1       3.172   2.814  -2.336  0.00  0.00    +0.000 A 
ATOM      2  C   UNL     1       2.880   4.184  -2.389  0.00  0.00    +0.000 A 
ATOM      3  C   UNL     1       3.733   5.068  -3.054  0.00  0.00    +0.000 A 
ATOM      4  C   UNL     1       4.894   4.599  -3.680  0.00  0.00    +0.000 A 
ATOM      5  C   UNL     1       5.175   3.227  -3.645  0.00  0.00    +0.000 A 
ATOM      6  C   UNL     1       4.316   2.340  -2.989  0.00  0.00    +0.000 A 
ENDROOT
BRANCH   1   7
ATOM      7  C   UNL     1       2.251   1.867  -1.615  0.00  0.00    +0.000 C 
BRANCH   7  10
ATOM      8  O   UNL     1       0.247   0.082  -0.878  0.00  0.00    +0.000 OA
ATOM      9  C   UNL     1       0.247   0.522  -2.026  0.00  0.00    +0.000 C 
ATOM     10  N   UNL     1       1.236   1.349  -2.495  0.00  0.00    +0.000 N 
ATOM     11  H   UNL     1       1.099   1.843  -3.370  0.00  0.00    +0.000 HD
BRANCH   9  12
ATOM     12  C   UNL     1      -0.779   0.140  -2.999  0.00  0.00    +0.000 A 
ATOM     13  C   UNL     1      -1.419  -1.082  -2.903  0.00  0.00    +0.000 A 
ATOM     14  S   UNL     1      -2.526  -1.365  -4.172  0.00  0.00    +0.000 S 
ATOM     15  C   UNL     1      -2.226   0.167  -4.851  0.00  0.00    +0.000 A 
ATOM     16  N   UNL     1      -2.869   0.579  -5.978  0.00  0.00    +0.000 NA
ATOM     17  C   UNL     1      -2.578   1.782  -6.350  0.00  0.00    +0.000 A 
ATOM     18  N   UNL     1      -1.704   2.612  -5.696  0.00  0.00    +0.000 N 
ATOM     19  C   UNL     1      -1.006   2.229  -4.579  0.00  0.00    +0.000 A 
ATOM     20  O   UNL     1      -0.192   2.976  -4.046  0.00  0.00    +0.000 OA
ATOM     21  C   UNL     1      -1.296   0.883  -4.121  0.00  0.00    +0.000 A 
ATOM     22  H   UNL     1      -1.516   3.541  -6.040  0.00  0.00    +0.000 HD
ENDBRANCH   9  12
ENDBRANCH   7  10
ENDBRANCH   1   7
BRANCH   4  23
ATOM     23  C   UNL     1       5.824   5.543  -4.405  0.00  0.00    +0.000 C 
BRANCH  23  24
ATOM     24  C   UNL     1       6.391   6.666  -3.531  0.00  0.00    +0.000 C 
BRANCH  24  25
ATOM     25  C   UNL     1       7.219   6.151  -2.350  0.00  0.00    +0.000 C 
BRANCH  25  26
ATOM     26  C   UNL     1       7.772   7.280  -1.540  0.00  0.00    +0.000 A 
ATOM     27  N   UNL     1       8.571   8.241  -1.968  0.00  0.00    +0.000 NA
ATOM     28  C   UNL     1       8.816   9.031  -0.874  0.00  0.00    +0.000 A 
ATOM     29  C   UNL     1       8.168   8.541   0.236  0.00  0.00    +0.000 A 
ATOM     30  N   UNL     1       7.509   7.424  -0.203  0.00  0.00    +0.000 N 
ATOM     31  H   UNL     1       6.938   6.807   0.359  0.00  0.00    +0.000 HD
ENDBRANCH  25  26
BRANCH  25  32
ATOM     32  O   UNL     1       8.336   5.406  -2.833  0.00  0.00    +0.000 OA
ATOM     33  H   UNL     1       8.942   6.069  -3.216  0.00  0.00    +0.000 HD
ENDBRANCH  25  32
ENDBRANCH  24  25
ENDBRANCH  23  24
ENDBRANCH   4  23
TORSDOF 8
