REMARK  Name = 
REMARK  10 active torsions:
REMARK  status: ('A' for Active; 'I' for Inactive)
REMARK    1  A    between atoms: C_1  and  O_2
REMARK    2  A    between atoms: O_2  and  C_3
REMARK    3  A    between atoms: C_10  and  C_11
REMARK    4  A    between atoms: N_13  and  C_14
REMARK    5  A    between atoms: C_14  and  C_15
REMARK    6  A    between atoms: C_18  and  C_19
REMARK    7  A    between atoms: C_19  and  C_20
REMARK    8  A    between atoms: C_19  and  N_21
REMARK    9  A    between atoms: N_21  and  C_22
REMARK   10  A    between atoms: C_22  and  C_23
REMARK                            x       y       z     vdW  Elec       q    Type
REMARK                         _______ _______ _______ _____ _____    ______ ____
ROOT
ATOM      1  C   UNL     1      -2.136   4.684  -6.887  0.00  0.00    +0.000 A 
ATOM      2  C   UNL     1      -3.342   4.170  -6.396  0.00  0.00    +0.000 A 
ATOM      3  C   UNL     1      -3.371   3.408  -5.216  0.00  0.00    +0.000 A 
ATOM      4  C   UNL     1      -2.199   3.140  -4.485  0.00  0.00    +0.000 A 
ATOM      5  C   UNL     1      -1.009   3.722  -4.953  0.00  0.00    +0.000 A 
ATOM      6  C   UNL     1      -0.978   4.488  -6.127  0.00  0.00    +0.000 A 
ENDROOT
BRANCH   4   7
ATOM      7  C   UNL     1      -2.273   2.255  -3.229  0.00  0.00    +0.000 C 
ATOM      8  C   UNL     1      -0.926   2.129  -2.492  0.00  0.00    +0.000 C 
BRANCH   7   9
ATOM      9  N   UNL     1      -2.814   0.924  -3.581  0.00  0.00    +0.000 NA
ATOM     10  H   UNL     1      -2.141   0.447  -4.180  0.00  0.00    +0.000 HD
BRANCH   9  11
ATOM     11  C   UNL     1      -3.095   0.076  -2.413  0.00  0.00    +0.000 C 
BRANCH  11  12
ATOM     12  C   UNL     1      -3.622  -1.297  -2.763  0.00  0.00    +0.000 A 
ATOM     13  C   UNL     1      -4.417  -1.542  -3.890  0.00  0.00    +0.000 A 
ATOM     14  C   UNL     1      -4.902  -2.828  -4.153  0.00  0.00    +0.000 A 
ATOM     15  C   UNL     1      -4.616  -3.883  -3.286  0.00  0.00    +0.000 A 
ATOM     16  C   UNL     1      -3.850  -3.651  -2.148  0.00  0.00    +0.000 A 
ATOM     17  C   UNL     1      -3.368  -2.368  -1.894  0.00  0.00    +0.000 A 
ATOM     18  F   UNL     1      -2.644  -2.169  -0.782  0.00  0.00    +0.000 F 
ENDBRANCH  11  12
ENDBRANCH   9  11
ENDBRANCH   7   9
ENDBRANCH   4   7
BRANCH   1  19
ATOM     19  C   UNL     1      -2.073   5.414  -8.207  0.00  0.00    +0.000 C 
BRANCH  19  22
ATOM     20  C   UNL     1      -2.196   7.696  -9.122  0.00  0.00    +0.000 C 
ATOM     21  O   UNL     1      -2.052   7.278 -10.270  0.00  0.00    +0.000 OA
ATOM     22  N   UNL     1      -2.224   6.838  -8.053  0.00  0.00    +0.000 N 
ATOM     23  H   UNL     1      -2.333   7.196  -7.115  0.00  0.00    +0.000 HD
BRANCH  20  31
ATOM     24  C   UNL     1      -2.739   9.500  -6.248  0.00  0.00    +0.000 A 
ATOM     25  N   UNL     1      -2.873  10.431  -5.283  0.00  0.00    +0.000 NA
ATOM     26  C   UNL     1      -2.842  11.716  -5.646  0.00  0.00    +0.000 A 
ATOM     27  N   UNL     1      -2.699  12.199  -6.879  0.00  0.00    +0.000 NA
ATOM     28  C   UNL     1      -2.556  11.235  -7.807  0.00  0.00    +0.000 A 
ATOM     29  S   UNL     1      -2.374  11.664  -9.438  0.00  0.00    +0.000 S 
ATOM     30  C   UNL     1      -2.243  10.034  -9.902  0.00  0.00    +0.000 A 
ATOM     31  C   UNL     1      -2.326   9.137  -8.841  0.00  0.00    +0.000 A 
ATOM     32  C   UNL     1      -2.541   9.863  -7.591  0.00  0.00    +0.000 A 
BRANCH  24  34
ATOM     33  C   UNL     1      -3.481   7.934  -4.671  0.00  0.00    +0.000 C 
ATOM     34  O   UNL     1      -2.763   8.173  -5.878  0.00  0.00    +0.000 OA
ENDBRANCH  24  34
ENDBRANCH  20  31
ENDBRANCH  19  22
ENDBRANCH   1  19
TORSDOF 8
