REMARK  Name = 
REMARK  5 active torsions:
REMARK  status: ('A' for Active; 'I' for Inactive)
REMARK    1  A    between atoms: N_1  and  C_2
REMARK    2  A    between atoms: C_2  and  C_3
REMARK    3  A    between atoms: C_6  and  C_7
REMARK    4  A    between atoms: C_7  and  N_8
REMARK    5  A    between atoms: C_14  and  C_15
REMARK                            x       y       z     vdW  Elec       q    Type
REMARK                         _______ _______ _______ _____ _____    ______ ____
ROOT
ATOM      1  N   UNL     1       1.058  -5.547   1.702  0.00  0.00    +0.000 N 
ATOM      2  C   UNL     1      -0.155  -5.383   1.080  0.00  0.00    +0.000 A 
ATOM      3  C   UNL     1      -0.792  -6.599   1.054  0.00  0.00    +0.000 A 
ATOM      4  C   UNL     1       0.063  -7.546   1.678  0.00  0.00    +0.000 A 
ATOM      5  C   UNL     1      -0.059  -8.921   1.949  0.00  0.00    +0.000 A 
ATOM      6  C   UNL     1       0.996  -9.600   2.566  0.00  0.00    +0.000 A 
ATOM      7  C   UNL     1       2.175  -8.931   2.918  0.00  0.00    +0.000 A 
ATOM      8  C   UNL     1       2.299  -7.547   2.674  0.00  0.00    +0.000 A 
ATOM      9  C   UNL     1       1.230  -6.874   2.056  0.00  0.00    +0.000 A 
ENDROOT
BRANCH   7  10
ATOM     10  C   UNL     1       3.322  -9.681   3.547  0.00  0.00    +0.000 C 
ATOM     11  F   UNL     1       3.081 -11.014   3.716  0.00  0.00    +0.000 F 
ATOM     12  F   UNL     1       4.465  -9.607   2.808  0.00  0.00    +0.000 F 
ATOM     13  F   UNL     1       3.647  -9.207   4.783  0.00  0.00    +0.000 F 
ENDBRANCH   7  10
BRANCH   1  14
ATOM     14  C   UNL     1       1.963  -4.445   2.011  0.00  0.00    +0.000 C 
BRANCH  14  18
ATOM     15  C   UNL     1       2.898  -1.370  -0.073  0.00  0.00    +0.000 C 
ATOM     16  C   UNL     1       1.910  -2.471  -0.497  0.00  0.00    +0.000 C 
ATOM     17  C   UNL     1       2.531  -3.866  -0.434  0.00  0.00    +0.000 C 
ATOM     18  C   UNL     1       3.072  -4.212   0.963  0.00  0.00    +0.000 C 
ATOM     19  C   UNL     1       4.047  -3.112   1.430  0.00  0.00    +0.000 C 
ATOM     20  C   UNL     1       3.478  -1.694   1.315  0.00  0.00    +0.000 C 
BRANCH  15  21
ATOM     21  C   UNL     1       4.015  -1.137  -1.113  0.00  0.00    +0.000 C 
BRANCH  21  22
ATOM     22  N   UNL     1       3.466  -0.728  -2.403  0.00  0.00    +0.000 NA
ATOM     23  H   UNL     1       4.223  -0.582  -3.069  0.00  0.00    +0.000 HD
ATOM     24  H   UNL     1       2.989   0.168  -2.306  0.00  0.00    +0.000 HD
ENDBRANCH  21  22
ENDBRANCH  15  21
ENDBRANCH  14  18
ENDBRANCH   1  14
TORSDOF 5
