REMARK  Name = 
REMARK  6 active torsions:
REMARK  status: ('A' for Active; 'I' for Inactive)
REMARK    1  A    between atoms: C_1  and  C_2
REMARK    2  A    between atoms: C_2  and  C_3
REMARK    3  A    between atoms: C_2  and  C_4
REMARK    4  A    between atoms: C_2  and  C_19
REMARK    5  A    between atoms: C_5  and  C_6
REMARK    6  A    between atoms: C_10  and  C_11
REMARK                            x       y       z     vdW  Elec       q    Type
REMARK                         _______ _______ _______ _____ _____    ______ ____
ROOT
ATOM      1  C   UNL     1       3.362   0.791  -3.736  0.00  0.00    +0.000 A 
ATOM      2  C   UNL     1       2.987   0.368  -5.003  0.00  0.00    +0.000 A 
ATOM      3  C   UNL     1       3.559   0.989  -6.107  0.00  0.00    +0.000 A 
ATOM      4  C   UNL     1       4.472   2.022  -5.910  0.00  0.00    +0.000 A 
ATOM      5  C   UNL     1       4.784   2.419  -4.611  0.00  0.00    +0.000 A 
ATOM      6  N   UNL     1       4.243   1.798  -3.534  0.00  0.00    +0.000 NA
ENDROOT
BRANCH   5   7
ATOM      7  C   UNL     1       5.698   3.532  -4.302  0.00  0.00    +0.000 A 
ATOM      8  C   UNL     1       6.448   3.544  -3.115  0.00  0.00    +0.000 A 
ATOM      9  C   UNL     1       7.285   4.616  -2.844  0.00  0.00    +0.000 A 
ATOM     10  N   UNL     1       7.431   5.676  -3.662  0.00  0.00    +0.000 NA
ATOM     11  C   UNL     1       6.698   5.660  -4.790  0.00  0.00    +0.000 A 
ATOM     12  F   UNL     1       6.809   6.711  -5.616  0.00  0.00    +0.000 F 
ATOM     13  C   UNL     1       5.837   4.637  -5.149  0.00  0.00    +0.000 A 
ENDBRANCH   5   7
BRANCH   1  15
ATOM     14  C   UNL     1       3.111   0.497  -1.283  0.00  0.00    +0.000 C 
ATOM     15  C   UNL     1       2.788   0.152  -2.543  0.00  0.00    +0.000 C 
BRANCH  14  17
ATOM     16  C   UNL     1       1.525  -1.212  -0.204  0.00  0.00    +0.000 C 
ATOM     17  C   UNL     1       2.542  -0.073   0.018  0.00  0.00    +0.000 C 
ATOM     18  C   UNL     1       3.749  -0.654   0.791  0.00  0.00    +0.000 C 
BRANCH  17  19
ATOM     19  C   UNL     1       1.837   1.015   0.852  0.00  0.00    +0.000 A 
ATOM     20  C   UNL     1       1.145   2.065   0.239  0.00  0.00    +0.000 A 
ATOM     21  C   UNL     1       0.479   3.001   1.026  0.00  0.00    +0.000 A 
ATOM     22  C   UNL     1       0.502   2.868   2.406  0.00  0.00    +0.000 A 
ATOM     23  C   UNL     1       1.192   1.798   2.943  0.00  0.00    +0.000 A 
ATOM     24  N   UNL     1       1.847   0.875   2.204  0.00  0.00    +0.000 NA
ENDBRANCH  17  19
ENDBRANCH  14  17
ENDBRANCH   1  15
TORSDOF 4
