REMARK  Name = 
REMARK  5 active torsions:
REMARK  status: ('A' for Active; 'I' for Inactive)
REMARK    1  A    between atoms: C_4  and  N_5
REMARK    2  A    between atoms: N_5  and  C_6
REMARK    3  A    between atoms: C_6  and  C_7
REMARK    4  A    between atoms: C_7  and  C_9
REMARK    5  A    between atoms: C_13  and  N_14
REMARK                            x       y       z     vdW  Elec       q    Type
REMARK                         _______ _______ _______ _____ _____    ______ ____
ROOT
ATOM      1  C   UNL     1       6.151   1.974   0.251  0.00  0.00    +0.000 C 
ATOM      2 BR   UNL     1       6.018   3.162   1.829  0.00  0.00    +0.000 Br
ENDROOT
BRANCH   1   3
ATOM      3  C   UNL     1       7.501   1.297   0.280  0.00  0.00    +0.000 A 
ATOM      4  C   UNL     1       7.654  -0.084   0.338  0.00  0.00    +0.000 A 
ATOM      5  N   UNL     1       8.843  -0.720   0.290  0.00  0.00    +0.000 NA
ATOM      6  C   UNL     1       9.942   0.060   0.173  0.00  0.00    +0.000 A 
ATOM      7  C   UNL     1       9.950   1.454   0.112  0.00  0.00    +0.000 A 
ATOM      8  C   UNL     1       8.686   2.054   0.177  0.00  0.00    +0.000 A 
BRANCH   7   9
ATOM      9  N   UNL     1      11.097   2.208  -0.057  0.00  0.00    +0.000 N 
ATOM     10  C   UNL     1      12.226   1.699  -0.835  0.00  0.00    +0.000 C 
ATOM     11  C   UNL     1      13.411   1.398   0.076  0.00  0.00    +0.000 C 
ATOM     12  C   UNL     1      13.774   2.626   0.908  0.00  0.00    +0.000 C 
ATOM     13  C   UNL     1      12.562   3.125   1.694  0.00  0.00    +0.000 C 
ATOM     14  C   UNL     1      11.354   3.381   0.785  0.00  0.00    +0.000 C 
ENDBRANCH   7   9
ENDBRANCH   1   3
BRANCH   1  15
ATOM     15  C   UNL     1       4.882   1.092   0.264  0.00  0.00    +0.000 C 
BRANCH  15  16
ATOM     16  N   UNL     1       4.801   0.183  -0.886  0.00  0.00    +0.000 N 
ATOM     17  H   UNL     1       5.077   0.581  -1.783  0.00  0.00    +0.000 HD
BRANCH  16  21
ATOM     18 CL   UNL     1       2.739  -3.648  -3.536  0.00  0.00    +0.000 Cl
ATOM     19  C   UNL     1       2.740  -2.603  -2.166  0.00  0.00    +0.000 A 
ATOM     20  C   UNL     1       3.722  -1.611  -2.076  0.00  0.00    +0.000 A 
ATOM     21  C   UNL     1       3.760  -0.740  -0.981  0.00  0.00    +0.000 A 
ATOM     22  C   UNL     1       2.802  -0.971   0.013  0.00  0.00    +0.000 A 
ATOM     23  N   UNL     1       1.826  -1.908  -0.041  0.00  0.00    +0.000 NA
ATOM     24  C   UNL     1       1.817  -2.701  -1.133  0.00  0.00    +0.000 A 
ATOM     25 CL   UNL     1       0.540  -3.854  -1.110  0.00  0.00    +0.000 Cl
ENDBRANCH  16  21
ENDBRANCH  15  16
ENDBRANCH   1  15
TORSDOF 5
