REMARK  Name = 
REMARK  6 active torsions:
REMARK  status: ('A' for Active; 'I' for Inactive)
REMARK    1  A    between atoms: C_2  and  C_4
REMARK    2  A    between atoms: C_7  and  N_8
REMARK    3  A    between atoms: N_8  and  CA_9
REMARK    4  A    between atoms: CA_9  and  C_10
REMARK    5  A    between atoms: CA_9  and  C_12
REMARK    6  A    between atoms: C_10  and  O_11
REMARK                            x       y       z     vdW  Elec       q    Type
REMARK                         _______ _______ _______ _____ _____    ______ ____
ROOT
ATOM      1  N   UNL     1       4.930   3.271  -3.773  0.00  0.00    +0.000 N 
ATOM      2  H   UNL     1       5.888   3.176  -3.452  0.00  0.00    +0.000 HD
ENDROOT
BRANCH   1   6
ATOM      3  C   UNL     1       2.374   0.297  -2.191  0.00  0.00    +0.000 A 
ATOM      4  C   UNL     1       1.827   1.414  -2.827  0.00  0.00    +0.000 A 
ATOM      5  C   UNL     1       2.666   2.406  -3.348  0.00  0.00    +0.000 A 
ATOM      6  C   UNL     1       4.059   2.336  -3.216  0.00  0.00    +0.000 A 
ATOM      7  C   UNL     1       4.590   1.191  -2.601  0.00  0.00    +0.000 A 
ATOM      8  C   UNL     1       3.761   0.191  -2.076  0.00  0.00    +0.000 A 
BRANCH   3  10
ATOM      9  N   UNL     1       0.290  -0.964  -2.215  0.00  0.00    +0.000 N 
ATOM     10  C   UNL     1       1.513  -0.776  -1.631  0.00  0.00    +0.000 C 
ATOM     11  O   UNL     1       1.890  -1.486  -0.709  0.00  0.00    +0.000 OA
ATOM     12  H   UNL     1      -0.242  -1.763  -1.894  0.00  0.00    +0.000 HD
ATOM     13  H   UNL     1       0.060  -0.584  -3.120  0.00  0.00    +0.000 HD
ENDBRANCH   3  10
ENDBRANCH   1   6
BRANCH   1  14
ATOM     14  CA  UNL     1       4.543   4.682  -3.966  0.00  0.00    +0.000 C 
BRANCH  14  15
ATOM     15  C   UNL     1       5.249   5.304  -5.166  0.00  0.00    +0.000 A 
ATOM     16  C   UNL     1       4.608   6.350  -5.859  0.00  0.00    +0.000 A 
ATOM     17  C   UNL     1       5.251   7.027  -6.896  0.00  0.00    +0.000 A 
ATOM     18  C   UNL     1       6.544   6.667  -7.263  0.00  0.00    +0.000 A 
ATOM     19  C   UNL     1       7.186   5.619  -6.606  0.00  0.00    +0.000 A 
ATOM     20  C   UNL     1       6.544   4.942  -5.566  0.00  0.00    +0.000 A 
ENDBRANCH  14  15
BRANCH  14  21
ATOM     21  C   UNL     1       4.808   5.514  -2.684  0.00  0.00    +0.000 C 
BRANCH  21  22
ATOM     22  O   UNL     1       6.185   5.530  -2.296  0.00  0.00    +0.000 OA
ATOM     23  H   UNL     1       6.388   4.653  -1.933  0.00  0.00    +0.000 HD
ENDBRANCH  21  22
ENDBRANCH  14  21
ENDBRANCH   1  14
TORSDOF 6
