REMARK  Name = 
REMARK  5 active torsions:
REMARK  status: ('A' for Active; 'I' for Inactive)
REMARK    1  A    between atoms: C_2  and  C_4
REMARK    2  A    between atoms: C_7  and  O_8
REMARK    3  A    between atoms: O_8  and  C_9
REMARK    4  A    between atoms: C_9  and  C_10
REMARK    5  A    between atoms: C_15  and  C_16
REMARK                            x       y       z     vdW  Elec       q    Type
REMARK                         _______ _______ _______ _____ _____    ______ ____
ROOT
ATOM      1  C   UNL     1       4.960   1.939  -5.660  0.00  0.00    +0.000 C 
ENDROOT
BRANCH   1   2
ATOM      2  C   UNL     1       5.934   1.981  -6.813  0.00  0.00    +0.000 A 
ATOM      3  C   UNL     1       6.295   3.201  -7.395  0.00  0.00    +0.000 A 
ATOM      4  C   UNL     1       7.187   3.224  -8.462  0.00  0.00    +0.000 A 
ATOM      5  C   UNL     1       7.723   2.032  -8.948  0.00  0.00    +0.000 A 
ATOM      6  F   UNL     1       8.568   2.117  -9.988  0.00  0.00    +0.000 F 
ATOM      7  C   UNL     1       7.403   0.783  -8.390  0.00  0.00    +0.000 A 
ATOM      8  C   UNL     1       6.487   0.788  -7.319  0.00  0.00    +0.000 A 
BRANCH   7   9
ATOM      9  C   UNL     1       8.013  -0.477  -8.869  0.00  0.00    +0.000 A 
ATOM     10  C   UNL     1       7.315  -1.695  -8.883  0.00  0.00    +0.000 A 
ATOM     11  C   UNL     1       7.936  -2.870  -9.310  0.00  0.00    +0.000 A 
ATOM     12  C   UNL     1       9.252  -2.804  -9.726  0.00  0.00    +0.000 A 
ATOM     13  N   UNL     1       9.970  -1.666  -9.739  0.00  0.00    +0.000 NA
ATOM     14  C   UNL     1       9.338  -0.542  -9.312  0.00  0.00    +0.000 A 
ENDBRANCH   7   9
ENDBRANCH   1   2
BRANCH   1  15
ATOM     15  O   UNL     1       5.587   1.292  -4.554  0.00  0.00    +0.000 OA
BRANCH  15  19
ATOM     16  C   UNL     1       3.581   0.869  -0.923  0.00  0.00    +0.000 A 
ATOM     17  C   UNL     1       2.912   1.484  -1.986  0.00  0.00    +0.000 A 
ATOM     18  C   UNL     1       3.548   1.642  -3.222  0.00  0.00    +0.000 A 
ATOM     19  C   UNL     1       4.858   1.194  -3.401  0.00  0.00    +0.000 A 
ATOM     20  C   UNL     1       5.528   0.591  -2.334  0.00  0.00    +0.000 A 
ATOM     21  C   UNL     1       4.898   0.433  -1.096  0.00  0.00    +0.000 A 
BRANCH  16  23
ATOM     22  N   UNL     1       1.574   0.579   0.422  0.00  0.00    +0.000 N 
ATOM     23  C   UNL     1       2.937   0.685   0.402  0.00  0.00    +0.000 C 
ATOM     24  O   UNL     1       3.592   0.595   1.432  0.00  0.00    +0.000 OA
ATOM     25  H   UNL     1       1.159   0.344   1.315  0.00  0.00    +0.000 HD
ATOM     26  H   UNL     1       1.035   0.385  -0.409  0.00  0.00    +0.000 HD
ENDBRANCH  16  23
ENDBRANCH  15  19
ENDBRANCH   1  15
TORSDOF 5
