REMARK  Name = 
REMARK  6 active torsions:
REMARK  status: ('A' for Active; 'I' for Inactive)
REMARK    1  A    between atoms: N_1  and  C_2
REMARK    2  A    between atoms: C_2  and  C_3
REMARK    3  A    between atoms: C_3  and  O_4
REMARK    4  A    between atoms: O_4  and  C_5
REMARK    5  A    between atoms: C_8  and  C_9
REMARK    6  A    between atoms: C_9  and  C_10
REMARK                            x       y       z     vdW  Elec       q    Type
REMARK                         _______ _______ _______ _____ _____    ______ ____
ROOT
ATOM      1  C   UNL     1       4.976   1.353   2.120  0.00  0.00    +0.000 A 
ATOM      2  C   UNL     1       4.507   1.246   3.430  0.00  0.00    +0.000 A 
ATOM      3  C   UNL     1       5.269   1.726   4.501  0.00  0.00    +0.000 A 
ATOM      4  C   UNL     1       6.522   2.315   4.284  0.00  0.00    +0.000 A 
ATOM      5  C   UNL     1       6.978   2.438   2.964  0.00  0.00    +0.000 A 
ATOM      6  C   UNL     1       6.211   1.964   1.894  0.00  0.00    +0.000 A 
ENDROOT
BRANCH   1   7
ATOM      7  O   UNL     1       4.326   0.908   0.998  0.00  0.00    +0.000 OA
BRANCH   7   8
ATOM      8  C   UNL     1       3.089   0.225   1.222  0.00  0.00    +0.000 C 
BRANCH   8   9
ATOM      9  C   UNL     1       2.517  -0.250  -0.117  0.00  0.00    +0.000 C 
BRANCH   9  10
ATOM     10  N   UNL     1       1.237  -0.940   0.058  0.00  0.00    +0.000 NA
ATOM     11  H   UNL     1       0.885  -1.231  -0.853  0.00  0.00    +0.000 HD
ATOM     12  H   UNL     1       0.547  -0.291   0.435  0.00  0.00    +0.000 HD
ENDBRANCH   9  10
ENDBRANCH   8   9
ENDBRANCH   7   8
ENDBRANCH   1   7
BRANCH   4  13
ATOM     13  C   UNL     1       7.348   2.837   5.434  0.00  0.00    +0.000 C 
BRANCH  13  14
ATOM     14  C   UNL     1       8.256   1.736   5.889  0.00  0.00    +0.000 A 
ATOM     15  C   UNL     1       9.523   1.456   5.401  0.00  0.00    +0.000 A 
ATOM     16  N   UNL     1      10.066   0.442   6.145  0.00  0.00    +0.000 N 
ATOM     17  C   UNL     1       9.192   0.064   7.137  0.00  0.00    +0.000 A 
ATOM     18  C   UNL     1       9.333  -0.878   8.150  0.00  0.00    +0.000 A 
ATOM     19  N   UNL     1       8.315  -1.063   9.023  0.00  0.00    +0.000 NA
ATOM     20  C   UNL     1       7.188  -0.334   8.874  0.00  0.00    +0.000 A 
ATOM     21  C   UNL     1       6.984   0.618   7.885  0.00  0.00    +0.000 A 
ATOM     22  C   UNL     1       8.039   0.832   6.985  0.00  0.00    +0.000 A 
ATOM     23  H   UNL     1      10.987   0.051   6.008  0.00  0.00    +0.000 HD
ENDBRANCH  13  14
ENDBRANCH   4  13
TORSDOF 6
