REMARK  Name = 
REMARK  5 active torsions:
REMARK  status: ('A' for Active; 'I' for Inactive)
REMARK    1  A    between atoms: C_2  and  C_3
REMARK    2  A    between atoms: C_6  and  N_7
REMARK    3  A    between atoms: N_7  and  C_8
REMARK    4  A    between atoms: C_8  and  C_9
REMARK    5  A    between atoms: C_13  and  C_14
REMARK                            x       y       z     vdW  Elec       q    Type
REMARK                         _______ _______ _______ _____ _____    ______ ____
ROOT
ATOM      1  C   UNL     1       4.552  -1.132   0.105  0.00  0.00    +0.000 C 
ATOM      2  C   UNL     1       4.778  -2.257  -0.894  0.00  0.00    +0.000 C 
ATOM      3  C   UNL     1       4.295  -2.595   0.471  0.00  0.00    +0.000 C 
ENDROOT
BRANCH   1   4
ATOM      4  C   UNL     1       5.695  -0.549   0.930  0.00  0.00    +0.000 A 
ATOM      5  C   UNL     1       5.545  -0.328   2.310  0.00  0.00    +0.000 A 
ATOM      6  C   UNL     1       6.645  -0.074   3.125  0.00  0.00    +0.000 A 
ATOM      7  C   UNL     1       7.923  -0.028   2.568  0.00  0.00    +0.000 A 
ATOM      8  C   UNL     1       8.117  -0.181   1.186  0.00  0.00    +0.000 A 
ATOM      9  C   UNL     1       6.980  -0.393   0.387  0.00  0.00    +0.000 A 
BRANCH   8  10
ATOM     10  C   UNL     1       9.464  -0.236   0.586  0.00  0.00    +0.000 A 
ATOM     11  C   UNL     1       9.733   0.337  -0.671  0.00  0.00    +0.000 A 
ATOM     12  C   UNL     1      10.990   0.219  -1.271  0.00  0.00    +0.000 A 
ATOM     13  C   UNL     1      12.011  -0.464  -0.615  0.00  0.00    +0.000 A 
ATOM     14  C   UNL     1      11.767  -1.030   0.632  0.00  0.00    +0.000 A 
ATOM     15 CL   UNL     1      13.024  -1.878   1.446  0.00  0.00    +0.000 Cl
ATOM     16  C   UNL     1      10.509  -0.926   1.225  0.00  0.00    +0.000 A 
ENDBRANCH   8  10
ENDBRANCH   1   4
BRANCH   1  17
ATOM     17  N   UNL     1       3.421  -0.221  -0.120  0.00  0.00    +0.000 N 
ATOM     18  H   UNL     1       2.542  -0.428   0.341  0.00  0.00    +0.000 HD
BRANCH  17  22
ATOM     19  C   UNL     1       3.057   2.521  -3.330  0.00  0.00    +0.000 A 
ATOM     20  C   UNL     1       4.105   1.601  -3.328  0.00  0.00    +0.000 A 
ATOM     21  C   UNL     1       4.237   0.689  -2.271  0.00  0.00    +0.000 A 
ATOM     22  C   UNL     1       3.307   0.645  -1.226  0.00  0.00    +0.000 A 
ATOM     23  C   UNL     1       2.272   1.593  -1.232  0.00  0.00    +0.000 A 
ATOM     24  C   UNL     1       2.145   2.521  -2.274  0.00  0.00    +0.000 A 
BRANCH  19  26
ATOM     25  N   UNL     1       2.815   4.239  -5.262  0.00  0.00    +0.000 NA
ATOM     26  C   UNL     1       2.926   3.470  -4.397  0.00  0.00    +0.000 C 
ENDBRANCH  19  26
ENDBRANCH  17  22
ENDBRANCH   1  17
TORSDOF 5
