REMARK  Name = 
REMARK  4 active torsions:
REMARK  status: ('A' for Active; 'I' for Inactive)
REMARK    1  A    between atoms: C_2  and  C_4
REMARK    2  A    between atoms: N_8  and  C_9
REMARK    3  A    between atoms: C_9  and  C_10
REMARK    4  A    between atoms: C_13  and  C_14
REMARK                            x       y       z     vdW  Elec       q    Type
REMARK                         _______ _______ _______ _____ _____    ______ ____
ROOT
ATOM      1  C   UNL     1       2.587   1.202  -3.523  0.00  0.00    +0.000 A 
ATOM      2  C   UNL     1       2.045   2.484  -3.504  0.00  0.00    +0.000 A 
ATOM      3  C   UNL     1       2.810   3.540  -3.000  0.00  0.00    +0.000 A 
ATOM      4  C   UNL     1       4.101   3.297  -2.549  0.00  0.00    +0.000 A 
ATOM      5  N   UNL     1       4.928   4.272  -2.006  0.00  0.00    +0.000 N 
ATOM      6  N   UNL     1       4.631   2.054  -2.557  0.00  0.00    +0.000 NA
ATOM      7  C   UNL     1       3.867   1.035  -3.023  0.00  0.00    +0.000 A 
ATOM      8  H   UNL     1       5.847   3.863  -1.859  0.00  0.00    +0.000 HD
ENDROOT
BRANCH   1  10
ATOM      9  N   UNL     1       0.904   0.241  -4.973  0.00  0.00    +0.000 N 
ATOM     10  C   UNL     1       1.854   0.022  -4.019  0.00  0.00    +0.000 C 
ATOM     11  O   UNL     1       2.109  -1.109  -3.619  0.00  0.00    +0.000 OA
ATOM     12  H   UNL     1       0.485  -0.588  -5.389  0.00  0.00    +0.000 HD
ATOM     13  H   UNL     1       0.851   1.099  -5.504  0.00  0.00    +0.000 HD
ENDBRANCH   1  10
BRANCH   5  14
ATOM     14  C   UNL     1       4.801   5.724  -2.143  0.00  0.00    +0.000 C 
ATOM     15  C   UNL     1       5.116   6.471  -0.853  0.00  0.00    +0.000 C 
ATOM     16  C   UNL     1       3.736   6.527  -1.419  0.00  0.00    +0.000 C 
BRANCH  14  17
ATOM     17  C   UNL     1       5.276   6.264  -3.484  0.00  0.00    +0.000 A 
ATOM     18  C   UNL     1       6.592   6.669  -3.729  0.00  0.00    +0.000 A 
ATOM     19  C   UNL     1       6.999   7.045  -5.014  0.00  0.00    +0.000 A 
ATOM     20  C   UNL     1       6.080   7.015  -6.062  0.00  0.00    +0.000 A 
ATOM     21  N   UNL     1       4.777   6.683  -5.846  0.00  0.00    +0.000 NA
ATOM     22  C   UNL     1       4.423   6.325  -4.587  0.00  0.00    +0.000 A 
BRANCH  20  23
ATOM     23  C   UNL     1       6.526   7.309  -7.487  0.00  0.00    +0.000 C 
ATOM     24  F   UNL     1       7.856   7.615  -7.582  0.00  0.00    +0.000 F 
ATOM     25  F   UNL     1       6.339   6.257  -8.332  0.00  0.00    +0.000 F 
ATOM     26  F   UNL     1       5.872   8.367  -8.050  0.00  0.00    +0.000 F 
ENDBRANCH  20  23
ENDBRANCH  14  17
ENDBRANCH   5  14
TORSDOF 4
