REMARK  Name = 
REMARK  6 active torsions:
REMARK  status: ('A' for Active; 'I' for Inactive)
REMARK    1  A    between atoms: C_2  and  C_25
REMARK    2  A    between atoms: N_3  and  C_4
REMARK    3  A    between atoms: C_4  and  C_5
REMARK    4  A    between atoms: C_8  and  C_9
REMARK    5  A    between atoms: C_9  and  N_10
REMARK    6  A    between atoms: C_11  and  C_13
REMARK                            x       y       z     vdW  Elec       q    Type
REMARK                         _______ _______ _______ _____ _____    ______ ____
ROOT
ATOM      1  C   UNL     1       3.234  -1.249  -3.421  0.00  0.00    +0.000 A 
ATOM      2  C   UNL     1       3.990  -0.251  -4.051  0.00  0.00    +0.000 A 
ATOM      3  C   UNL     1       4.904  -0.579  -5.057  0.00  0.00    +0.000 A 
ATOM      4  C   UNL     1       5.063  -1.911  -5.465  0.00  0.00    +0.000 A 
ATOM      5  C   UNL     1       4.316  -2.908  -4.827  0.00  0.00    +0.000 A 
ATOM      6  C   UNL     1       3.402  -2.580  -3.824  0.00  0.00    +0.000 A 
ENDROOT
BRANCH   1   7
ATOM      7  C   UNL     1       2.258  -0.896  -2.333  0.00  0.00    +0.000 C 
BRANCH   7  10
ATOM      8  O   UNL     1       0.023  -0.267  -0.781  0.00  0.00    +0.000 OA
ATOM      9  C   UNL     1      -0.089  -0.272  -2.005  0.00  0.00    +0.000 C 
ATOM     10  N   UNL     1       0.957  -0.565  -2.848  0.00  0.00    +0.000 N 
ATOM     11  H   UNL     1       0.796  -0.458  -3.846  0.00  0.00    +0.000 HD
BRANCH   9  12
ATOM     12  C   UNL     1      -1.332   0.045  -2.679  0.00  0.00    +0.000 A 
ATOM     13  N   UNL     1      -1.539  -0.022  -3.984  0.00  0.00    +0.000 NA
ATOM     14  C   UNL     1      -2.846   0.358  -4.167  0.00  0.00    +0.000 A 
ATOM     15  C   UNL     1      -3.437   0.679  -2.968  0.00  0.00    +0.000 A 
ATOM     16  N   UNL     1      -2.469   0.461  -2.029  0.00  0.00    +0.000 N 
ATOM     17  H   UNL     1      -2.541   0.584  -1.027  0.00  0.00    +0.000 HD
ENDBRANCH   9  12
ENDBRANCH   7  10
ENDBRANCH   1   7
BRANCH   4  18
ATOM     18  C   UNL     1       6.031  -2.285  -6.554  0.00  0.00    +0.000 C 
BRANCH  18  19
ATOM     19  N   UNL     1       7.345  -2.545  -6.029  0.00  0.00    +0.000 N 
ATOM     20  C   UNL     1       7.803  -3.800  -5.723  0.00  0.00    +0.000 C 
ATOM     21  O   UNL     1       7.128  -4.812  -5.885  0.00  0.00    +0.000 OA
ATOM     22  H   UNL     1       7.838  -1.739  -5.663  0.00  0.00    +0.000 HD
BRANCH  20  23
ATOM     23  C   UNL     1       9.198  -3.871  -5.266  0.00  0.00    +0.000 A 
ATOM     24  C   UNL     1       9.923  -5.044  -5.424  0.00  0.00    +0.000 A 
ATOM     25  S   UNL     1      11.543  -4.920  -4.904  0.00  0.00    +0.000 S 
ATOM     26  C   UNL     1      11.317  -3.310  -4.401  0.00  0.00    +0.000 A 
ATOM     27  N   UNL     1      12.332  -2.603  -3.835  0.00  0.00    +0.000 NA
ATOM     28  C   UNL     1      12.010  -1.408  -3.469  0.00  0.00    +0.000 A 
ATOM     29  N   UNL     1      10.768  -0.851  -3.624  0.00  0.00    +0.000 N 
ATOM     30  C   UNL     1       9.727  -1.504  -4.245  0.00  0.00    +0.000 A 
ATOM     31  O   UNL     1       8.666  -0.929  -4.464  0.00  0.00    +0.000 OA
ATOM     32  C   UNL     1      10.029  -2.866  -4.645  0.00  0.00    +0.000 A 
ATOM     33  H   UNL     1      10.586   0.101  -3.338  0.00  0.00    +0.000 HD
ENDBRANCH  20  23
ENDBRANCH  18  19
ENDBRANCH   4  18
TORSDOF 6
