REMARK  Name = 
REMARK  8 active torsions:
REMARK  status: ('A' for Active; 'I' for Inactive)
REMARK    1  A    between atoms: C_2  and  C_20
REMARK    2  A    between atoms: N_3  and  C_4
REMARK    3  A    between atoms: C_4  and  C_5
REMARK    4  A    between atoms: C_8  and  C_9
REMARK    5  A    between atoms: C_9  and  O_10
REMARK    6  A    between atoms: C_9  and  C_11
REMARK    7  A    between atoms: C_11  and  C_12
REMARK    8  A    between atoms: C_12  and  C_13
REMARK                            x       y       z     vdW  Elec       q    Type
REMARK                         _______ _______ _______ _____ _____    ______ ____
ROOT
ATOM      1  C   UNL     1       3.236   3.385   0.864  0.00  0.00    +0.000 A 
ATOM      2  C   UNL     1       2.808   4.700   0.704  0.00  0.00    +0.000 A 
ATOM      3  C   UNL     1       3.679   5.757   0.971  0.00  0.00    +0.000 A 
ATOM      4  C   UNL     1       4.980   5.483   1.392  0.00  0.00    +0.000 A 
ATOM      5  N   UNL     1       5.421   4.212   1.554  0.00  0.00    +0.000 NA
ATOM      6  C   UNL     1       4.545   3.204   1.300  0.00  0.00    +0.000 A 
ENDROOT
BRANCH   1   7
ATOM      7  C   UNL     1       2.301   2.246   0.589  0.00  0.00    +0.000 C 
BRANCH   7  10
ATOM      8  O   UNL     1       3.119   0.256   2.360  0.00  0.00    +0.000 OA
ATOM      9  C   UNL     1       2.046   0.841   2.570  0.00  0.00    +0.000 C 
ATOM     10  N   UNL     1       1.567   1.820   1.747  0.00  0.00    +0.000 N 
ATOM     11  H   UNL     1       0.868   2.445   2.114  0.00  0.00    +0.000 HD
BRANCH   9  12
ATOM     12  C   UNL     1       1.199   0.510   3.702  0.00  0.00    +0.000 A 
ATOM     13  C   UNL     1       1.151  -0.760   4.256  0.00  0.00    +0.000 A 
ATOM     14  S   UNL     1       0.090  -0.863   5.595  0.00  0.00    +0.000 S 
ATOM     15  C   UNL     1      -0.321   0.784   5.470  0.00  0.00    +0.000 A 
ATOM     16  N   UNL     1      -1.195   1.367   6.330  0.00  0.00    +0.000 NA
ATOM     17  C   UNL     1      -1.396   2.626   6.117  0.00  0.00    +0.000 A 
ATOM     18  N   UNL     1      -0.802   3.356   5.120  0.00  0.00    +0.000 N 
ATOM     19  C   UNL     1       0.032   2.799   4.195  0.00  0.00    +0.000 A 
ATOM     20  O   UNL     1       0.420   3.462   3.224  0.00  0.00    +0.000 OA
ATOM     21  C   UNL     1       0.320   1.400   4.413  0.00  0.00    +0.000 A 
ATOM     22  H   UNL     1      -1.033   4.328   4.980  0.00  0.00    +0.000 HD
ENDBRANCH   9  12
ENDBRANCH   7  10
ENDBRANCH   1   7
BRANCH   4  23
ATOM     23  C   UNL     1       5.969   6.595   1.704  0.00  0.00    +0.000 C 
BRANCH  23  24
ATOM     24  O   UNL     1       6.421   6.507   3.068  0.00  0.00    +0.000 OA
ATOM     25  H   UNL     1       6.434   5.561   3.298  0.00  0.00    +0.000 HD
ENDBRANCH  23  24
BRANCH  23  26
ATOM     26  C   UNL     1       7.219   6.551   0.820  0.00  0.00    +0.000 C 
BRANCH  26  27
ATOM     27  C   UNL     1       6.953   6.704  -0.673  0.00  0.00    +0.000 C 
BRANCH  27  28
ATOM     28  C   UNL     1       8.233   6.642  -1.434  0.00  0.00    +0.000 A 
ATOM     29  C   UNL     1       9.142   7.611  -1.808  0.00  0.00    +0.000 A 
ATOM     30  N   UNL     1      10.187   7.061  -2.503  0.00  0.00    +0.000 NA
ATOM     31  C   UNL     1       9.929   5.777  -2.555  0.00  0.00    +0.000 A 
ATOM     32  N   UNL     1       8.762   5.470  -1.915  0.00  0.00    +0.000 N 
ATOM     33  H   UNL     1       8.360   4.548  -1.825  0.00  0.00    +0.000 HD
ENDBRANCH  27  28
ENDBRANCH  26  27
ENDBRANCH  23  26
ENDBRANCH   4  23
TORSDOF 8
