REMARK  Name = 
REMARK  10 active torsions:
REMARK  status: ('A' for Active; 'I' for Inactive)
REMARK    1  A    between atoms: C_1  and  O_2
REMARK    2  A    between atoms: O_2  and  C_3
REMARK    3  A    between atoms: C_10  and  C_11
REMARK    4  A    between atoms: N_13  and  C_14
REMARK    5  A    between atoms: C_14  and  C_15
REMARK    6  A    between atoms: C_18  and  C_19
REMARK    7  A    between atoms: C_19  and  N_20
REMARK    8  A    between atoms: N_20  and  C_21
REMARK    9  A    between atoms: N_20  and  C_22
REMARK   10  A    between atoms: C_22  and  C_23
REMARK                            x       y       z     vdW  Elec       q    Type
REMARK                         _______ _______ _______ _____ _____    ______ ____
ROOT
ATOM      1  C   UNL     1       3.215  -3.210  -0.343  0.00  0.00    +0.000 C 
ENDROOT
BRANCH   1   2
ATOM      2  C   UNL     1       2.134  -3.258   0.709  0.00  0.00    +0.000 A 
ATOM      3  C   UNL     1       1.387  -4.429   0.896  0.00  0.00    +0.000 A 
ATOM      4  C   UNL     1       0.360  -4.476   1.842  0.00  0.00    +0.000 A 
ATOM      5  C   UNL     1       0.053  -3.349   2.616  0.00  0.00    +0.000 A 
ATOM      6  C   UNL     1       0.787  -2.173   2.421  0.00  0.00    +0.000 A 
ATOM      7  C   UNL     1       1.823  -2.130   1.482  0.00  0.00    +0.000 A 
BRANCH   5   8
ATOM      8  C   UNL     1      -1.020  -3.415   3.686  0.00  0.00    +0.000 C 
BRANCH   8   9
ATOM      9  N   UNL     1      -0.732  -4.433   4.717  0.00  0.00    +0.000 NA
ATOM     10  C   UNL     1       0.510  -4.111   5.433  0.00  0.00    +0.000 C 
BRANCH   9  11
ATOM     11  C   UNL     1      -1.848  -4.512   5.685  0.00  0.00    +0.000 C 
BRANCH  11  12
ATOM     12  C   UNL     1      -3.173  -4.976   5.100  0.00  0.00    +0.000 A 
ATOM     13  C   UNL     1      -3.272  -6.213   4.462  0.00  0.00    +0.000 A 
ATOM     14  C   UNL     1      -4.520  -6.643   4.018  0.00  0.00    +0.000 A 
ATOM     15  C   UNL     1      -5.627  -5.824   4.201  0.00  0.00    +0.000 A 
ATOM     16  C   UNL     1      -5.437  -4.593   4.805  0.00  0.00    +0.000 A 
ATOM     17  N   UNL     1      -4.242  -4.154   5.260  0.00  0.00    +0.000 NA
ENDBRANCH  11  12
ENDBRANCH   9  11
ENDBRANCH   8   9
ENDBRANCH   5   8
ENDBRANCH   1   2
BRANCH   1  20
ATOM     18  C   UNL     1       3.445  -2.624  -2.735  0.00  0.00    +0.000 C 
ATOM     19  O   UNL     1       4.650  -2.864  -2.716  0.00  0.00    +0.000 OA
ATOM     20  N   UNL     1       2.673  -2.785  -1.613  0.00  0.00    +0.000 N 
ATOM     21  H   UNL     1       1.672  -2.699  -1.681  0.00  0.00    +0.000 HD
BRANCH  18  29
ATOM     22  C   UNL     1       0.190  -1.795  -3.466  0.00  0.00    +0.000 A 
ATOM     23  N   UNL     1      -0.961  -1.308  -3.976  0.00  0.00    +0.000 NA
ATOM     24  C   UNL     1      -0.938  -0.804  -5.211  0.00  0.00    +0.000 A 
ATOM     25  N   UNL     1       0.107  -0.739  -6.031  0.00  0.00    +0.000 NA
ATOM     26  C   UNL     1       1.232  -1.228  -5.483  0.00  0.00    +0.000 A 
ATOM     27  S   UNL     1       2.669  -1.242  -6.390  0.00  0.00    +0.000 S 
ATOM     28  C   UNL     1       3.540  -1.913  -5.092  0.00  0.00    +0.000 A 
ATOM     29  C   UNL     1       2.777  -2.124  -3.950  0.00  0.00    +0.000 A 
ATOM     30  C   UNL     1       1.385  -1.754  -4.204  0.00  0.00    +0.000 A 
BRANCH  22  32
ATOM     31  C   UNL     1      -1.110  -2.288  -1.569  0.00  0.00    +0.000 C 
ATOM     32  O   UNL     1       0.159  -2.364  -2.211  0.00  0.00    +0.000 OA
ENDBRANCH  22  32
ENDBRANCH  18  29
ENDBRANCH   1  20
TORSDOF 8
