REMARK  Name = 
REMARK  7 active torsions:
REMARK  status: ('A' for Active; 'I' for Inactive)
REMARK    1  A    between atoms: C_2  and  C_20
REMARK    2  A    between atoms: N_3  and  C_4
REMARK    3  A    between atoms: C_4  and  C_5
REMARK    4  A    between atoms: C_8  and  C_9
REMARK    5  A    between atoms: C_9  and  N_10
REMARK    6  A    between atoms: N_10  and  C_11
REMARK    7  A    between atoms: C_11  and  C_12
REMARK                            x       y       z     vdW  Elec       q    Type
REMARK                         _______ _______ _______ _____ _____    ______ ____
ROOT
ATOM      1  C   UNL     1       4.651   2.601   1.740  0.00  0.00    +0.000 C 
ENDROOT
BRANCH   1   2
ATOM      2  C   UNL     1       3.298   2.580   2.464  0.00  0.00    +0.000 C 
ATOM      3  C   UNL     1       3.389   1.941   3.863  0.00  0.00    +0.000 C 
ATOM      4  C   UNL     1       4.131   2.816   4.875  0.00  0.00    +0.000 C 
ATOM      5  C   UNL     1       3.574   4.250   4.947  0.00  0.00    +0.000 C 
ATOM      6  C   UNL     1       3.512   4.873   3.542  0.00  0.00    +0.000 C 
ATOM      7  C   UNL     1       2.728   4.002   2.558  0.00  0.00    +0.000 C 
BRANCH   5   8
ATOM      8  C   UNL     1       2.185   4.319   5.613  0.00  0.00    +0.000 C 
BRANCH   8   9
ATOM      9  N   UNL     1       2.232   3.819   6.982  0.00  0.00    +0.000 NA
ATOM     10  H   UNL     1       2.865   4.390   7.541  0.00  0.00    +0.000 HD
BRANCH   9  11
ATOM     11  C   UNL     1       0.901   3.834   7.584  0.00  0.00    +0.000 C 
BRANCH  11  12
ATOM     12  C   UNL     1       0.947   3.298   8.985  0.00  0.00    +0.000 A 
ATOM     13  C   UNL     1       1.371   1.993   9.254  0.00  0.00    +0.000 A 
ATOM     14  C   UNL     1       1.406   1.536  10.566  0.00  0.00    +0.000 A 
ATOM     15  C   UNL     1       1.009   2.403  11.570  0.00  0.00    +0.000 A 
ATOM     16  N   UNL     1       0.584   3.666  11.352  0.00  0.00    +0.000 NA
ATOM     17  C   UNL     1       0.563   4.083  10.067  0.00  0.00    +0.000 A 
ENDBRANCH  11  12
ENDBRANCH   9  11
ENDBRANCH   8   9
ENDBRANCH   5   8
ENDBRANCH   1   2
BRANCH   1  20
ATOM     18  O   UNL     1       4.149   0.894  -0.481  0.00  0.00    +0.000 OA
ATOM     19  C   UNL     1       4.907   0.528   0.411  0.00  0.00    +0.000 C 
ATOM     20  N   UNL     1       5.162   1.273   1.528  0.00  0.00    +0.000 N 
ATOM     21  H   UNL     1       5.834   0.939   2.210  0.00  0.00    +0.000 HD
BRANCH  19  22
ATOM     22  C   UNL     1       5.580  -0.770   0.370  0.00  0.00    +0.000 A 
ATOM     23  C   UNL     1       5.031  -1.832  -0.330  0.00  0.00    +0.000 A 
ATOM     24  S   UNL     1       5.984  -3.246  -0.272  0.00  0.00    +0.000 S 
ATOM     25  C   UNL     1       7.183  -2.473   0.656  0.00  0.00    +0.000 A 
ATOM     26  N   UNL     1       8.320  -3.122   1.023  0.00  0.00    +0.000 NA
ATOM     27  C   UNL     1       9.158  -2.398   1.689  0.00  0.00    +0.000 A 
ATOM     28  N   UNL     1       8.958  -1.087   2.040  0.00  0.00    +0.000 N 
ATOM     29  C   UNL     1       7.788  -0.421   1.764  0.00  0.00    +0.000 A 
ATOM     30  O   UNL     1       7.584   0.694   2.235  0.00  0.00    +0.000 OA
ATOM     31  C   UNL     1       6.841  -1.167   0.958  0.00  0.00    +0.000 A 
ATOM     32  H   UNL     1       9.629  -0.589   2.601  0.00  0.00    +0.000 HD
ENDBRANCH  19  22
ENDBRANCH   1  20
TORSDOF 7
