REMARK  Name = 
REMARK  8 active torsions:
REMARK  status: ('A' for Active; 'I' for Inactive)
REMARK    1  A    between atoms: N_1  and  C_2
REMARK    2  A    between atoms: C_2  and  C_3
REMARK    3  A    between atoms: C_6  and  C_7
REMARK    4  A    between atoms: C_7  and  N_8
REMARK    5  A    between atoms: N_8  and  C_9
REMARK    6  A    between atoms: N_8  and  C_12
REMARK    7  A    between atoms: C_9  and  C_10
REMARK    8  A    between atoms: C_10  and  O_11
REMARK                            x       y       z     vdW  Elec       q    Type
REMARK                         _______ _______ _______ _____ _____    ______ ____
ROOT
ATOM      1  C   UNL     1       4.210  -2.155  -5.029  0.00  0.00    +0.000 C 
ENDROOT
BRANCH   1   5
ATOM      2  C   UNL     1       5.433  -5.103  -2.130  0.00  0.00    +0.000 A 
ATOM      3  C   UNL     1       5.097  -3.803  -1.725  0.00  0.00    +0.000 A 
ATOM      4  C   UNL     1       4.825  -2.813  -2.668  0.00  0.00    +0.000 A 
ATOM      5  C   UNL     1       4.876  -3.099  -4.040  0.00  0.00    +0.000 A 
ATOM      6  C   UNL     1       5.349  -4.357  -4.444  0.00  0.00    +0.000 A 
ATOM      7  C   UNL     1       5.622  -5.350  -3.497  0.00  0.00    +0.000 A 
BRANCH   2   8
ATOM      8  C   UNL     1       5.530  -6.212  -1.111  0.00  0.00    +0.000 C 
BRANCH   8   9
ATOM      9  N   UNL     1       4.242  -6.416  -0.444  0.00  0.00    +0.000 NA
ATOM     10  H   UNL     1       4.298  -7.230   0.162  0.00  0.00    +0.000 HD
ATOM     11  H   UNL     1       3.541  -6.628  -1.155  0.00  0.00    +0.000 HD
ENDBRANCH   8   9
ENDBRANCH   2   8
ENDBRANCH   1   5
BRANCH   1  12
ATOM     12  N   UNL     1       5.143  -1.289  -5.770  0.00  0.00    +0.000 N 
BRANCH  12  13
ATOM     13  C   UNL     1       5.443  -1.660  -7.118  0.00  0.00    +0.000 A 
ATOM     14  C   UNL     1       4.582  -2.401  -7.945  0.00  0.00    +0.000 A 
ATOM     15  C   UNL     1       4.869  -2.619  -9.299  0.00  0.00    +0.000 A 
ATOM     16  C   UNL     1       6.019  -2.086  -9.867  0.00  0.00    +0.000 A 
ATOM     17  C   UNL     1       6.892  -1.349  -9.076  0.00  0.00    +0.000 A 
ATOM     18  C   UNL     1       6.613  -1.153  -7.718  0.00  0.00    +0.000 A 
ENDBRANCH  12  13
BRANCH  12  19
ATOM     19  C   UNL     1       4.859   0.183  -5.785  0.00  0.00    +0.000 C 
BRANCH  19  20
ATOM     20  C   UNL     1       4.315   0.823  -4.499  0.00  0.00    +0.000 C 
BRANCH  20  21
ATOM     21  O   UNL     1       2.910   0.609  -4.368  0.00  0.00    +0.000 OA
ATOM     22  H   UNL     1       2.556   1.320  -3.808  0.00  0.00    +0.000 HD
ENDBRANCH  20  21
ENDBRANCH  19  20
ENDBRANCH  12  19
ENDBRANCH   1  12
TORSDOF 8
