REMARK  Name = 
REMARK  8 active torsions:
REMARK  status: ('A' for Active; 'I' for Inactive)
REMARK    1  A    between atoms: C_1  and  C_2
REMARK    2  A    between atoms: C_2  and  C_3
REMARK    3  A    between atoms: C_2  and  C_4
REMARK    4  A    between atoms: C_2  and  C_15
REMARK    5  A    between atoms: C_5  and  C_6
REMARK    6  A    between atoms: C_9  and  C_10
REMARK    7  A    between atoms: C_19  and  O_20
REMARK    8  A    between atoms: O_20  and  C_21
REMARK                            x       y       z     vdW  Elec       q    Type
REMARK                         _______ _______ _______ _____ _____    ______ ____
ROOT
ATOM      1  C   UNL     1       1.024  -0.062  -0.019  0.00  0.00    +0.000 C 
ATOM      2  C   UNL     1       2.570  -0.032  -0.017  0.00  0.00    +0.000 C 
ATOM      3  C   UNL     1       3.063  -1.253  -0.831  0.00  0.00    +0.000 C 
ENDROOT
BRANCH   2   4
ATOM      4  C   UNL     1       3.030  -0.057   1.454  0.00  0.00    +0.000 A 
ATOM      5  C   UNL     1       2.708   1.018   2.307  0.00  0.00    +0.000 A 
ATOM      6  C   UNL     1       3.049   0.996   3.660  0.00  0.00    +0.000 A 
ATOM      7  C   UNL     1       3.728  -0.096   4.200  0.00  0.00    +0.000 A 
ATOM      8  C   UNL     1       4.073  -1.163   3.375  0.00  0.00    +0.000 A 
ATOM      9  C   UNL     1       3.724  -1.137   2.020  0.00  0.00    +0.000 A 
BRANCH   8  10
ATOM     10  O   UNL     1       4.696  -2.316   3.784  0.00  0.00    +0.000 OA
BRANCH  10  11
ATOM     11  C   UNL     1       5.504  -2.302   4.981  0.00  0.00    +0.000 C 
ATOM     12  C   UNL     1       6.829  -1.518   4.947  0.00  0.00    +0.000 C 
ATOM     13  N   UNL     1       7.568  -2.706   5.399  0.00  0.00    +0.000 NA
ATOM     14  C   UNL     1       6.387  -3.553   5.182  0.00  0.00    +0.000 C 
ATOM     15  H   UNL     1       7.877  -2.663   6.370  0.00  0.00    +0.000 HD
ENDBRANCH  10  11
ENDBRANCH   8  10
ENDBRANCH   2   4
BRANCH   2  16
ATOM     16  C   UNL     1       3.146   1.193  -0.721  0.00  0.00    +0.000 C 
ATOM     17  C   UNL     1       2.478   2.205  -1.308  0.00  0.00    +0.000 C 
BRANCH  17  18
ATOM     18  C   UNL     1       3.163   3.321  -1.975  0.00  0.00    +0.000 A 
ATOM     19  C   UNL     1       2.447   4.354  -2.568  0.00  0.00    +0.000 A 
ATOM     20  C   UNL     1       3.152   5.367  -3.223  0.00  0.00    +0.000 A 
ATOM     21  C   UNL     1       4.549   5.328  -3.266  0.00  0.00    +0.000 A 
ATOM     22  C   UNL     1       5.176   4.272  -2.630  0.00  0.00    +0.000 A 
ATOM     23  N   UNL     1       4.516   3.275  -1.994  0.00  0.00    +0.000 NA
BRANCH  21  24
ATOM     24  C   UNL     1       5.284   6.390  -3.989  0.00  0.00    +0.000 C 
ATOM     25  N   UNL     1       6.652   6.338  -4.037  0.00  0.00    +0.000 N 
ATOM     26  O   UNL     1       4.689   7.303  -4.546  0.00  0.00    +0.000 OA
ATOM     27  H   UNL     1       7.238   5.623  -3.637  0.00  0.00    +0.000 HD
ATOM     28  H   UNL     1       7.110   7.075  -4.559  0.00  0.00    +0.000 HD
ENDBRANCH  21  24
ENDBRANCH  17  18
ENDBRANCH   2  16
TORSDOF 6
