REMARK  Name = 
REMARK  9 active torsions:
REMARK  status: ('A' for Active; 'I' for Inactive)
REMARK    1  A    between atoms: C_1  and  O_2
REMARK    2  A    between atoms: O_2  and  C_3
REMARK    3  A    between atoms: N_10  and  C_11
REMARK    4  A    between atoms: C_11  and  C_12
REMARK    5  A    between atoms: C_15  and  C_16
REMARK    6  A    between atoms: C_16  and  C_17
REMARK    7  A    between atoms: C_17  and  N_18
REMARK    8  A    between atoms: N_18  and  C_19
REMARK    9  A    between atoms: N_18  and  C_20
REMARK                            x       y       z     vdW  Elec       q    Type
REMARK                         _______ _______ _______ _____ _____    ______ ____
ROOT
ATOM      1  C   UNL     1       5.377  -1.023   5.939  0.00  0.00    +0.000 C 
ENDROOT
BRANCH   1   9
ATOM      2  C   UNL     1       7.938   0.180  10.379  0.00  0.00    +0.000 A 
ATOM      3  C   UNL     1       6.593   0.405  10.097  0.00  0.00    +0.000 A 
ATOM      4  C   UNL     1       6.017  -0.052   8.901  0.00  0.00    +0.000 A 
ATOM      5  C   UNL     1       6.829  -0.751   7.994  0.00  0.00    +0.000 A 
ATOM      6  C   UNL     1       8.181  -0.993   8.261  0.00  0.00    +0.000 A 
ATOM      7  C   UNL     1       8.711  -1.714   7.159  0.00  0.00    +0.000 A 
ATOM      8  C   UNL     1       7.699  -1.883   6.243  0.00  0.00    +0.000 A 
ATOM      9  N   UNL     1       6.566  -1.283   6.742  0.00  0.00    +0.000 N 
ATOM     10  C   UNL     1       8.739  -0.504   9.459  0.00  0.00    +0.000 A 
BRANCH   2  12
ATOM     11  C   UNL     1       7.797   0.776  12.664  0.00  0.00    +0.000 C 
ATOM     12  O   UNL     1       8.596   0.620  11.497  0.00  0.00    +0.000 OA
ENDBRANCH   2  12
ENDBRANCH   1   9
BRANCH   1  13
ATOM     13  C   UNL     1       4.340  -2.107   5.974  0.00  0.00    +0.000 A 
ATOM     14  C   UNL     1       4.385  -3.209   5.115  0.00  0.00    +0.000 A 
ATOM     15  C   UNL     1       3.288  -4.068   5.025  0.00  0.00    +0.000 A 
ATOM     16  C   UNL     1       2.168  -3.808   5.808  0.00  0.00    +0.000 A 
ATOM     17  N   UNL     1       2.133  -2.793   6.704  0.00  0.00    +0.000 NA
ATOM     18  C   UNL     1       3.213  -1.982   6.775  0.00  0.00    +0.000 A 
BRANCH  16  19
ATOM     19  C   UNL     1       0.880  -4.571   5.604  0.00  0.00    +0.000 C 
BRANCH  19  20
ATOM     20  C   UNL     1      -0.030  -3.804   4.626  0.00  0.00    +0.000 C 
BRANCH  20  21
ATOM     21  N   UNL     1      -1.328  -4.454   4.335  0.00  0.00    +0.000 NA
ATOM     22  C   UNL     1      -2.160  -4.569   5.536  0.00  0.00    +0.000 C 
ATOM     23  C   UNL     1      -2.050  -3.671   3.323  0.00  0.00    +0.000 C 
ENDBRANCH  20  21
ENDBRANCH  19  20
ENDBRANCH  16  19
ENDBRANCH   1  13
TORSDOF 6
