REMARK  Name = 
REMARK  6 active torsions:
REMARK  status: ('A' for Active; 'I' for Inactive)
REMARK    1  A    between atoms: C_2  and  C_4
REMARK    2  A    between atoms: C_7  and  N_8
REMARK    3  A    between atoms: N_8  and  C_9
REMARK    4  A    between atoms: C_9  and  C_10
REMARK    5  A    between atoms: C_10  and  C_12
REMARK    6  A    between atoms: C_14  and  C_15
REMARK                            x       y       z     vdW  Elec       q    Type
REMARK                         _______ _______ _______ _____ _____    ______ ____
ROOT
ATOM      1  C   UNL     1       5.257   5.355  -5.330  0.00  0.00    +0.000 C 
ATOM      2  F   UNL     1       5.158   4.515  -6.411  0.00  0.00    +0.000 F 
ENDROOT
BRANCH   1   3
ATOM      3  C   UNL     1       4.715   6.743  -5.605  0.00  0.00    +0.000 A 
ATOM      4  C   UNL     1       4.144   7.054  -6.840  0.00  0.00    +0.000 A 
ATOM      5  C   UNL     1       3.638   8.341  -7.083  0.00  0.00    +0.000 A 
ATOM      6  C   UNL     1       3.742   9.267  -6.036  0.00  0.00    +0.000 A 
ATOM      7  C   UNL     1       4.314   8.883  -4.836  0.00  0.00    +0.000 A 
ATOM      8  N   UNL     1       4.801   7.651  -4.601  0.00  0.00    +0.000 NA
BRANCH   5   9
ATOM      9  C   UNL     1       3.026   8.712  -8.382  0.00  0.00    +0.000 A 
ATOM     10  C   UNL     1       1.983   9.660  -8.457  0.00  0.00    +0.000 A 
ATOM     11  C   UNL     1       1.425  10.040  -9.681  0.00  0.00    +0.000 A 
ATOM     12  C   UNL     1       1.890   9.464 -10.852  0.00  0.00    +0.000 A 
ATOM     13  F   UNL     1       1.359   9.829 -12.026  0.00  0.00    +0.000 F 
ATOM     14  C   UNL     1       2.902   8.515 -10.822  0.00  0.00    +0.000 A 
ATOM     15  C   UNL     1       3.467   8.147  -9.596  0.00  0.00    +0.000 A 
ENDBRANCH   5   9
ENDBRANCH   1   3
BRANCH   1  16
ATOM     16  C   UNL     1       4.484   4.719  -4.165  0.00  0.00    +0.000 C 
BRANCH  16  17
ATOM     17  N   UNL     1       5.045   3.417  -3.773  0.00  0.00    +0.000 N 
ATOM     18  H   UNL     1       5.268   2.814  -4.565  0.00  0.00    +0.000 HD
BRANCH  17  22
ATOM     19  C   UNL     1       3.444   1.253  -0.520  0.00  0.00    +0.000 A 
ATOM     20  C   UNL     1       2.864   2.468  -0.887  0.00  0.00    +0.000 A 
ATOM     21  C   UNL     1       3.379   3.191  -1.968  0.00  0.00    +0.000 A 
ATOM     22  C   UNL     1       4.458   2.708  -2.721  0.00  0.00    +0.000 A 
ATOM     23  C   UNL     1       5.045   1.500  -2.320  0.00  0.00    +0.000 A 
ATOM     24  C   UNL     1       4.551   0.780  -1.226  0.00  0.00    +0.000 A 
BRANCH  19  26
ATOM     25  N   UNL     1       1.600   0.596   0.923  0.00  0.00    +0.000 N 
ATOM     26  C   UNL     1       2.930   0.469   0.631  0.00  0.00    +0.000 C 
ATOM     27  O   UNL     1       3.649  -0.289   1.269  0.00  0.00    +0.000 OA
ATOM     28  H   UNL     1       1.238  -0.022   1.639  0.00  0.00    +0.000 HD
ATOM     29  H   UNL     1       0.942   0.999   0.274  0.00  0.00    +0.000 HD
ENDBRANCH  19  26
ENDBRANCH  17  22
ENDBRANCH  16  17
ENDBRANCH   1  16
TORSDOF 6
