REMARK  Name = 
REMARK  6 active torsions:
REMARK  status: ('A' for Active; 'I' for Inactive)
REMARK    1  A    between atoms: C_2  and  O_3
REMARK    2  A    between atoms: C_2  and  C_4
REMARK    3  A    between atoms: C_7  and  C_8
REMARK    4  A    between atoms: C_8  and  N_9
REMARK    5  A    between atoms: N_9  and  C_10
REMARK    6  A    between atoms: C_14  and  C_15
REMARK                            x       y       z     vdW  Elec       q    Type
REMARK                         _______ _______ _______ _____ _____    ______ ____
ROOT
ATOM      1  N   UNL     1       4.809  -3.480  -4.859  0.00  0.00    +0.000 N 
ATOM      2  H   UNL     1       3.885  -3.081  -5.014  0.00  0.00    +0.000 HD
ENDROOT
BRANCH   1   3
ATOM      3  C   UNL     1       5.083  -4.532  -5.736  0.00  0.00    +0.000 A 
ATOM      4  C   UNL     1       5.831  -5.660  -5.416  0.00  0.00    +0.000 A 
ATOM      5  C   UNL     1       6.079  -6.603  -6.405  0.00  0.00    +0.000 A 
ATOM      6  N   UNL     1       5.677  -6.482  -7.688  0.00  0.00    +0.000 NA
ATOM      7  C   UNL     1       5.003  -5.358  -8.022  0.00  0.00    +0.000 A 
ATOM      8  C   UNL     1       4.688  -4.387  -7.069  0.00  0.00    +0.000 A 
BRANCH   7   9
ATOM      9  C   UNL     1       4.630  -5.211  -9.439  0.00  0.00    +0.000 A 
ATOM     10  C   UNL     1       4.537  -3.959 -10.067  0.00  0.00    +0.000 A 
ATOM     11  C   UNL     1       4.133  -3.854 -11.396  0.00  0.00    +0.000 A 
ATOM     12  C   UNL     1       3.840  -5.017 -12.083  0.00  0.00    +0.000 A 
ATOM     13  N   UNL     1       3.937  -6.248 -11.540  0.00  0.00    +0.000 NA
ATOM     14  C   UNL     1       4.336  -6.314 -10.242  0.00  0.00    +0.000 A 
ENDBRANCH   7   9
ENDBRANCH   1   3
BRANCH   1  15
ATOM     15  C   UNL     1       5.162  -3.567  -3.451  0.00  0.00    +0.000 C 
BRANCH  15  19
ATOM     16  C   UNL     1       4.104   0.012  -1.258  0.00  0.00    +0.000 A 
ATOM     17  C   UNL     1       3.537  -1.220  -0.912  0.00  0.00    +0.000 A 
ATOM     18  C   UNL     1       3.848  -2.369  -1.645  0.00  0.00    +0.000 A 
ATOM     19  C   UNL     1       4.739  -2.305  -2.726  0.00  0.00    +0.000 A 
ATOM     20  C   UNL     1       5.290  -1.061  -3.077  0.00  0.00    +0.000 A 
ATOM     21  C   UNL     1       4.986   0.090  -2.342  0.00  0.00    +0.000 A 
BRANCH  16  23
ATOM     22  O   UNL     1       3.569   1.101   0.786  0.00  0.00    +0.000 OA
ATOM     23  C   UNL     1       3.793   1.188  -0.407  0.00  0.00    +0.000 C 
BRANCH  23  24
ATOM     24  O   UNL     1       3.742   2.354  -1.086  0.00  0.00    +0.000 OA
ATOM     25  H   UNL     1       3.764   2.268  -2.056  0.00  0.00    +0.000 HD
ENDBRANCH  23  24
ENDBRANCH  16  23
ENDBRANCH  15  19
ENDBRANCH   1  15
TORSDOF 6
