REMARK  Name = 
REMARK  7 active torsions:
REMARK  status: ('A' for Active; 'I' for Inactive)
REMARK    1  A    between atoms: C_1  and  C_2
REMARK    2  A    between atoms: C_4  and  C_5
REMARK    3  A    between atoms: C_10  and  N_11
REMARK    4  A    between atoms: N_11  and  C_12
REMARK    5  A    between atoms: C_12  and  C_13
REMARK    6  A    between atoms: C_18  and  C_19
REMARK    7  A    between atoms: C_23  and  C_24
REMARK                            x       y       z     vdW  Elec       q    Type
REMARK                         _______ _______ _______ _____ _____    ______ ____
ROOT
ATOM      1  C   UNL     1       2.822  -4.027   0.074  0.00  0.00    +0.000 A 
ATOM      2  C   UNL     1       4.185  -4.327   0.150  0.00  0.00    +0.000 A 
ATOM      3  C   UNL     1       4.604  -5.655   0.154  0.00  0.00    +0.000 A 
ATOM      4  C   UNL     1       3.664  -6.687   0.104  0.00  0.00    +0.000 A 
ATOM      5  F   UNL     1       4.130  -7.946   0.108  0.00  0.00    +0.000 F 
ATOM      6  C   UNL     1       2.283  -6.435   0.047  0.00  0.00    +0.000 A 
ATOM      7  C   UNL     1       1.891  -5.080   0.035  0.00  0.00    +0.000 A 
ENDROOT
BRANCH   6   8
ATOM      8  C   UNL     1       1.263  -7.508  -0.041  0.00  0.00    +0.000 A 
ATOM      9  C   UNL     1       0.002  -7.359   0.566  0.00  0.00    +0.000 A 
ATOM     10  C   UNL     1      -0.998  -8.325   0.433  0.00  0.00    +0.000 A 
ATOM     11  C   UNL     1      -0.758  -9.478  -0.306  0.00  0.00    +0.000 A 
ATOM     12  C   UNL     1       0.486  -9.674  -0.918  0.00  0.00    +0.000 A 
ATOM     13  C   UNL     1       1.485  -8.691  -0.771  0.00  0.00    +0.000 A 
BRANCH  12  14
ATOM     14  C   UNL     1       0.758 -10.903  -1.749  0.00  0.00    +0.000 C 
ATOM     15  F   UNL     1      -0.326 -11.718  -1.886  0.00  0.00    +0.000 F 
ATOM     16  F   UNL     1       1.151 -10.596  -3.017  0.00  0.00    +0.000 F 
ATOM     17  F   UNL     1       1.746 -11.683  -1.229  0.00  0.00    +0.000 F 
ENDBRANCH  12  14
ENDBRANCH   6   8
BRANCH   1  18
ATOM     18  C   UNL     1       2.353  -2.600  -0.064  0.00  0.00    +0.000 C 
BRANCH  18  19
ATOM     19  N   UNL     1       2.121  -1.962   1.200  0.00  0.00    +0.000 N 
ATOM     20  H   UNL     1       2.233  -2.494   2.053  0.00  0.00    +0.000 HD
BRANCH  19  27
ATOM     21  C   UNL     1       1.577   0.098  -1.046  0.00  0.00    +0.000 C 
ATOM     22  C   UNL     1       1.456   0.300   0.436  0.00  0.00    +0.000 A 
ATOM     23  C   UNL     1       1.053   1.582   0.856  0.00  0.00    +0.000 A 
ATOM     24  C   UNL     1       0.905   1.890   2.203  0.00  0.00    +0.000 A 
ATOM     25  C   UNL     1       1.170   0.870   3.094  0.00  0.00    +0.000 A 
ATOM     26  N   UNL     1       1.563  -0.382   2.727  0.00  0.00    +0.000 NA
ATOM     27  C   UNL     1       1.711  -0.673   1.412  0.00  0.00    +0.000 A 
BRANCH  24  28
ATOM     28  C   UNL     1       0.481   3.262   2.575  0.00  0.00    +0.000 C 
ATOM     29  N   UNL     1       0.341   3.586   3.894  0.00  0.00    +0.000 N 
ATOM     30  O   UNL     1       0.256   4.111   1.716  0.00  0.00    +0.000 OA
ATOM     31  H   UNL     1       0.506   2.975   4.677  0.00  0.00    +0.000 HD
ATOM     32  H   UNL     1       0.053   4.537   4.091  0.00  0.00    +0.000 HD
ENDBRANCH  24  28
ENDBRANCH  19  27
ENDBRANCH  18  19
ENDBRANCH   1  18
TORSDOF 6
