REMARK  Name = 
REMARK  4 active torsions:
REMARK  status: ('A' for Active; 'I' for Inactive)
REMARK    1  A    between atoms: C_2  and  C_4
REMARK    2  A    between atoms: N_8  and  C_9
REMARK    3  A    between atoms: C_9  and  C_10
REMARK    4  A    between atoms: C_14  and  C_15
REMARK                            x       y       z     vdW  Elec       q    Type
REMARK                         _______ _______ _______ _____ _____    ______ ____
ROOT
ATOM      1  C   UNL     1       5.148   3.340   4.898  0.00  0.00    +0.000 C 
ATOM      2  C   UNL     1       5.015   2.354   6.052  0.00  0.00    +0.000 C 
ATOM      3  C   UNL     1       3.852   3.206   5.673  0.00  0.00    +0.000 C 
ENDROOT
BRANCH   1   8
ATOM      4  C   UNL     1       3.637   3.694  -0.075  0.00  0.00    +0.000 A 
ATOM      5  C   UNL     1       2.861   3.821   1.075  0.00  0.00    +0.000 A 
ATOM      6  C   UNL     1       3.434   3.546   2.319  0.00  0.00    +0.000 A 
ATOM      7  C   UNL     1       4.761   3.138   2.392  0.00  0.00    +0.000 A 
ATOM      8  N   UNL     1       5.367   2.714   3.580  0.00  0.00    +0.000 N 
ATOM      9  N   UNL     1       5.523   3.019   1.283  0.00  0.00    +0.000 NA
ATOM     10  C   UNL     1       4.953   3.295   0.082  0.00  0.00    +0.000 A 
ATOM     11  H   UNL     1       6.343   2.555   3.333  0.00  0.00    +0.000 HD
BRANCH   4  13
ATOM     12  N   UNL     1       1.999   4.704  -1.563  0.00  0.00    +0.000 N 
ATOM     13  C   UNL     1       3.103   3.909  -1.436  0.00  0.00    +0.000 C 
ATOM     14  O   UNL     1       3.640   3.415  -2.418  0.00  0.00    +0.000 OA
ATOM     15  H   UNL     1       1.683   4.896  -2.506  0.00  0.00    +0.000 HD
ATOM     16  H   UNL     1       1.668   5.306  -0.823  0.00  0.00    +0.000 HD
ENDBRANCH   4  13
ENDBRANCH   1   8
BRANCH   1  17
ATOM     17  C   UNL     1       5.987   4.597   5.100  0.00  0.00    +0.000 A 
ATOM     18  C   UNL     1       7.263   4.554   5.683  0.00  0.00    +0.000 A 
ATOM     19  C   UNL     1       8.072   5.688   5.739  0.00  0.00    +0.000 A 
ATOM     20  C   UNL     1       7.625   6.891   5.189  0.00  0.00    +0.000 A 
ATOM     21  C   UNL     1       6.353   6.997   4.602  0.00  0.00    +0.000 A 
ATOM     22  C   UNL     1       5.548   5.839   4.602  0.00  0.00    +0.000 A 
BRANCH  21  23
ATOM     23  C   UNL     1       5.895   8.244   3.957  0.00  0.00    +0.000 A 
ATOM     24  N   UNL     1       6.800   9.223   3.764  0.00  0.00    +0.000 NA
ATOM     25  C   UNL     1       6.374  10.312   3.094  0.00  0.00    +0.000 A 
ATOM     26  C   UNL     1       5.093  10.463   2.624  0.00  0.00    +0.000 A 
ATOM     27  C   UNL     1       4.241   9.418   2.884  0.00  0.00    +0.000 A 
ATOM     28  N   UNL     1       4.611   8.303   3.539  0.00  0.00    +0.000 NA
ENDBRANCH  21  23
ENDBRANCH   1  17
TORSDOF 4
