REMARK  Name = 
REMARK  5 active torsions:
REMARK  status: ('A' for Active; 'I' for Inactive)
REMARK    1  A    between atoms: C_2  and  C_3
REMARK    2  A    between atoms: C_6  and  C_7
REMARK    3  A    between atoms: C_7  and  N_8
REMARK    4  A    between atoms: N_8  and  C_9
REMARK    5  A    between atoms: C_12  and  C_13
REMARK                            x       y       z     vdW  Elec       q    Type
REMARK                         _______ _______ _______ _____ _____    ______ ____
ROOT
ATOM      1  N   UNL     1       3.900   0.570  -0.896  0.00  0.00    +0.000 N 
ATOM      2  H   UNL     1       4.577  -0.033  -0.441  0.00  0.00    +0.000 HD
ENDROOT
BRANCH   1   3
ATOM      3  C   UNL     1       4.030   0.672  -2.291  0.00  0.00    +0.000 A 
ATOM      4  C   UNL     1       3.408   1.666  -3.055  0.00  0.00    +0.000 A 
ATOM      5  C   UNL     1       3.543   1.702  -4.447  0.00  0.00    +0.000 A 
ATOM      6  C   UNL     1       4.289   0.723  -5.107  0.00  0.00    +0.000 A 
ATOM      7  C   UNL     1       4.882  -0.301  -4.364  0.00  0.00    +0.000 A 
ATOM      8  C   UNL     1       4.746  -0.323  -2.971  0.00  0.00    +0.000 A 
BRANCH   6   9
ATOM      9  C   UNL     1       4.381   0.778  -6.589  0.00  0.00    +0.000 C 
ATOM     10  N   UNL     1       5.452   0.165  -7.177  0.00  0.00    +0.000 N 
ATOM     11  O   UNL     1       3.547   1.370  -7.263  0.00  0.00    +0.000 OA
ATOM     12  H   UNL     1       6.264  -0.140  -6.662  0.00  0.00    +0.000 HD
ATOM     13  H   UNL     1       5.540   0.274  -8.179  0.00  0.00    +0.000 HD
ENDBRANCH   6   9
ENDBRANCH   1   3
BRANCH   1  14
ATOM     14  C   UNL     1       3.100   1.466  -0.048  0.00  0.00    +0.000 C 
ATOM     15  C   UNL     1       3.784   2.082   1.165  0.00  0.00    +0.000 C 
ATOM     16  C   UNL     1       3.451   2.942  -0.007  0.00  0.00    +0.000 C 
BRANCH  14  20
ATOM     17  C   UNL     1      -0.974  -0.071   0.289  0.00  0.00    +0.000 A 
ATOM     18  C   UNL     1      -0.703   1.032  -0.526  0.00  0.00    +0.000 A 
ATOM     19  C   UNL     1       0.596   1.554  -0.597  0.00  0.00    +0.000 A 
ATOM     20  C   UNL     1       1.660   0.993   0.131  0.00  0.00    +0.000 A 
ATOM     21  C   UNL     1       1.340  -0.090   0.970  0.00  0.00    +0.000 A 
ATOM     22  F   UNL     1       2.305  -0.664   1.707  0.00  0.00    +0.000 F 
ATOM     23  C   UNL     1       0.051  -0.622   1.053  0.00  0.00    +0.000 A 
BRANCH  17  25
ATOM     24  N   UNL     1      -3.348  -1.114   0.322  0.00  0.00    +0.000 NA
ATOM     25  C   UNL     1      -2.289  -0.646   0.312  0.00  0.00    +0.000 C 
ENDBRANCH  17  25
ENDBRANCH  14  20
ENDBRANCH   1  14
TORSDOF 5
