REMARK  Name = 
REMARK  8 active torsions:
REMARK  status: ('A' for Active; 'I' for Inactive)
REMARK    1  A    between atoms: C_1  and  C_2
REMARK    2  A    between atoms: C_2  and  N_3
REMARK    3  A    between atoms: C_2  and  C_17
REMARK    4  A    between atoms: C_4  and  C_6
REMARK    5  A    between atoms: N_12  and  C_13
REMARK    6  A    between atoms: C_20  and  O_21
REMARK    7  A    between atoms: O_21  and  C_22
REMARK    8  A    between atoms: C_22  and  C_23
REMARK                            x       y       z     vdW  Elec       q    Type
REMARK                         _______ _______ _______ _____ _____    ______ ____
ROOT
ATOM      1  C   UNL     1       1.042   0.005   0.139  0.00  0.00    +0.000 C 
ATOM      2  C   UNL     1       2.574   0.007   0.127  0.00  0.00    +0.000 C 
ENDROOT
BRANCH   2   3
ATOM      3  C   UNL     1       3.101   0.186  -1.287  0.00  0.00    +0.000 A 
ATOM      4  C   UNL     1       3.954   1.249  -1.607  0.00  0.00    +0.000 A 
ATOM      5  C   UNL     1       4.475   1.371  -2.899  0.00  0.00    +0.000 A 
ATOM      6  C   UNL     1       4.167   0.424  -3.876  0.00  0.00    +0.000 A 
ATOM      7  C   UNL     1       3.287  -0.613  -3.578  0.00  0.00    +0.000 A 
ATOM      8  C   UNL     1       2.769  -0.737  -2.293  0.00  0.00    +0.000 A 
BRANCH   6   9
ATOM      9  O   UNL     1       4.772   0.592  -5.092  0.00  0.00    +0.000 OA
BRANCH   9  10
ATOM     10  C   UNL     1       4.929  -0.617  -5.848  0.00  0.00    +0.000 C 
BRANCH  10  11
ATOM     11  C   UNL     1       6.047  -0.500  -6.856  0.00  0.00    +0.000 A 
ATOM     12  C   UNL     1       7.143   0.327  -6.620  0.00  0.00    +0.000 A 
ATOM     13  C   UNL     1       8.184   0.342  -7.540  0.00  0.00    +0.000 A 
ATOM     14  C   UNL     1       8.115  -0.477  -8.660  0.00  0.00    +0.000 A 
ATOM     15  C   UNL     1       7.001  -1.283  -8.815  0.00  0.00    +0.000 A 
ATOM     16  N   UNL     1       5.972  -1.315  -7.941  0.00  0.00    +0.000 NA
ENDBRANCH  10  11
ENDBRANCH   9  10
ENDBRANCH   6   9
ENDBRANCH   2   3
BRANCH   2  17
ATOM     17  N   UNL     1       3.101  -1.235   0.659  0.00  0.00    +0.000 N 
ATOM     18  C   UNL     1       3.282  -1.492   1.989  0.00  0.00    +0.000 C 
ATOM     19  O   UNL     1       3.143  -0.639   2.859  0.00  0.00    +0.000 OA
ATOM     20  H   UNL     1       3.093  -2.020   0.021  0.00  0.00    +0.000 HD
BRANCH  18  21
ATOM     21  C   UNL     1       3.716  -2.860   2.305  0.00  0.00    +0.000 A 
ATOM     22  C   UNL     1       4.497  -3.105   3.425  0.00  0.00    +0.000 A 
ATOM     23  S   UNL     1       4.917  -4.749   3.612  0.00  0.00    +0.000 S 
ATOM     24  C   UNL     1       4.031  -5.194   2.229  0.00  0.00    +0.000 A 
ATOM     25  N   UNL     1       3.950  -6.490   1.837  0.00  0.00    +0.000 NA
ATOM     26  C   UNL     1       3.223  -6.690   0.786  0.00  0.00    +0.000 A 
ATOM     27  N   UNL     1       2.566  -5.711   0.070  0.00  0.00    +0.000 N 
ATOM     28  C   UNL     1       1.793  -6.046  -1.108  0.00  0.00    +0.000 C 
ATOM     29  C   UNL     1       2.657  -4.370   0.424  0.00  0.00    +0.000 A 
ATOM     30  O   UNL     1       2.138  -3.475  -0.240  0.00  0.00    +0.000 OA
ATOM     31  C   UNL     1       3.446  -4.103   1.616  0.00  0.00    +0.000 A 
ENDBRANCH  18  21
ENDBRANCH   2  17
TORSDOF 6
