REMARK  Name = 
REMARK  10 active torsions:
REMARK  status: ('A' for Active; 'I' for Inactive)
REMARK    1  A    between atoms: C_1  and  O_2
REMARK    2  A    between atoms: O_2  and  C_3
REMARK    3  A    between atoms: C_10  and  C_11
REMARK    4  A    between atoms: N_13  and  C_14
REMARK    5  A    between atoms: C_14  and  C_15
REMARK    6  A    between atoms: C_18  and  C_19
REMARK    7  A    between atoms: C_19  and  N_20
REMARK    8  A    between atoms: N_20  and  C_21
REMARK    9  A    between atoms: C_21  and  C_22
REMARK   10  A    between atoms: C_27  and  C_28
REMARK                            x       y       z     vdW  Elec       q    Type
REMARK                         _______ _______ _______ _____ _____    ______ ____
ROOT
ATOM      1  C   UNL     1       1.789   1.275   3.162  0.00  0.00    +0.000 A 
ATOM      2  C   UNL     1       0.443   0.898   3.057  0.00  0.00    +0.000 A 
ATOM      3  C   UNL     1      -0.557   1.862   2.884  0.00  0.00    +0.000 A 
ATOM      4  C   UNL     1      -0.234   3.225   2.809  0.00  0.00    +0.000 A 
ATOM      5  C   UNL     1       1.113   3.598   2.893  0.00  0.00    +0.000 A 
ATOM      6  C   UNL     1       2.113   2.634   3.062  0.00  0.00    +0.000 A 
ENDROOT
BRANCH   1   7
ATOM      7  C   UNL     1       2.872   0.238   3.325  0.00  0.00    +0.000 C 
BRANCH   7  10
ATOM      8  C   UNL     1       4.331  -1.160   1.919  0.00  0.00    +0.000 C 
ATOM      9  O   UNL     1       4.832  -1.692   2.908  0.00  0.00    +0.000 OA
ATOM     10  N   UNL     1       3.365  -0.198   2.044  0.00  0.00    +0.000 N 
ATOM     11  H   UNL     1       3.000   0.262   1.222  0.00  0.00    +0.000 HD
BRANCH   8  19
ATOM     12  C   UNL     1       3.289  -0.207  -1.222  0.00  0.00    +0.000 A 
ATOM     13  N   UNL     1       3.089  -0.013  -2.541  0.00  0.00    +0.000 NA
ATOM     14  C   UNL     1       3.847  -0.702  -3.399  0.00  0.00    +0.000 A 
ATOM     15  N   UNL     1       4.800  -1.578  -3.097  0.00  0.00    +0.000 NA
ATOM     16  C   UNL     1       4.972  -1.734  -1.777  0.00  0.00    +0.000 A 
ATOM     17  S   UNL     1       6.149  -2.822  -1.210  0.00  0.00    +0.000 S 
ATOM     18  C   UNL     1       5.765  -2.469   0.408  0.00  0.00    +0.000 A 
ATOM     19  C   UNL     1       4.750  -1.530   0.555  0.00  0.00    +0.000 A 
ATOM     20  C   UNL     1       4.276  -1.094  -0.758  0.00  0.00    +0.000 A 
BRANCH  12  22
ATOM     21  C   UNL     1       1.264   0.907  -0.893  0.00  0.00    +0.000 C 
ATOM     22  O   UNL     1       2.522   0.526  -0.341  0.00  0.00    +0.000 OA
ENDBRANCH  12  22
ENDBRANCH   8  19
ENDBRANCH   7  10
ENDBRANCH   1   7
BRANCH   4  23
ATOM     23  C   UNL     1      -1.315   4.269   2.620  0.00  0.00    +0.000 C 
BRANCH  23  24
ATOM     24  N   UNL     1      -2.278   4.249   3.722  0.00  0.00    +0.000 NA
ATOM     25  H   UNL     1      -1.783   4.399   4.599  0.00  0.00    +0.000 HD
BRANCH  24  26
ATOM     26  C   UNL     1      -3.290   5.291   3.565  0.00  0.00    +0.000 C 
BRANCH  26  27
ATOM     27  C   UNL     1      -4.307   5.255   4.689  0.00  0.00    +0.000 A 
ATOM     28  C   UNL     1      -4.094   6.053   5.828  0.00  0.00    +0.000 A 
ATOM     29  C   UNL     1      -5.029   6.093   6.864  0.00  0.00    +0.000 A 
ATOM     30  C   UNL     1      -6.195   5.340   6.777  0.00  0.00    +0.000 A 
ATOM     31  C   UNL     1      -6.405   4.514   5.674  0.00  0.00    +0.000 A 
ATOM     32  C   UNL     1      -5.461   4.443   4.635  0.00  0.00    +0.000 A 
ATOM     33  C   UNL     1      -5.689   3.469   3.511  0.00  0.00    +0.000 C 
ENDBRANCH  26  27
ENDBRANCH  24  26
ENDBRANCH  23  24
ENDBRANCH   4  23
TORSDOF 8
