REMARK  Name = 
REMARK  6 active torsions:
REMARK  status: ('A' for Active; 'I' for Inactive)
REMARK    1  A    between atoms: C_1  and  N_2
REMARK    2  A    between atoms: N_2  and  C_3
REMARK    3  A    between atoms: C_3  and  C_4
REMARK    4  A    between atoms: C_7  and  C_8
REMARK    5  A    between atoms: C_8  and  N_9
REMARK    6  A    between atoms: C_13  and  C_14
REMARK                            x       y       z     vdW  Elec       q    Type
REMARK                         _______ _______ _______ _____ _____    ______ ____
ROOT
ATOM      1  N   UNL     1       9.304  -1.131  -1.178  0.00  0.00    +0.000 N 
ATOM      2  C   UNL     1      10.699  -1.241  -1.195  0.00  0.00    +0.000 A 
ATOM      3  C   UNL     1      11.266  -2.501  -1.030  0.00  0.00    +0.000 A 
ATOM      4  C   UNL     1      12.655  -2.642  -1.056  0.00  0.00    +0.000 A 
ATOM      5  C   UNL     1      13.460  -1.517  -1.236  0.00  0.00    +0.000 A 
ATOM      6  C   UNL     1      12.814  -0.299  -1.365  0.00  0.00    +0.000 A 
ATOM      7  N   UNL     1      11.464  -0.142  -1.346  0.00  0.00    +0.000 NA
ATOM      8  H   UNL     1       8.897  -1.782  -1.841  0.00  0.00    +0.000 HD
ENDROOT
BRANCH   5   9
ATOM      9  C   UNL     1      14.933  -1.679  -1.297  0.00  0.00    +0.000 C 
ATOM     10  N   UNL     1      15.718  -0.577  -1.487  0.00  0.00    +0.000 N 
ATOM     11  O   UNL     1      15.450  -2.783  -1.186  0.00  0.00    +0.000 OA
ATOM     12  H   UNL     1      15.403   0.375  -1.585  0.00  0.00    +0.000 HD
ATOM     13  H   UNL     1      16.718  -0.739  -1.528  0.00  0.00    +0.000 HD
ENDBRANCH   5   9
BRANCH   1  14
ATOM     14  C   UNL     1       8.805   0.235  -1.339  0.00  0.00    +0.000 C 
BRANCH  14  18
ATOM     15  C   UNL     1       4.594   0.333  -1.532  0.00  0.00    +0.000 A 
ATOM     16  C   UNL     1       5.263   0.452  -0.318  0.00  0.00    +0.000 A 
ATOM     17  N   UNL     1       6.613   0.413  -0.214  0.00  0.00    +0.000 NA
ATOM     18  C   UNL     1       7.294   0.261  -1.378  0.00  0.00    +0.000 A 
ATOM     19  C   UNL     1       6.621   0.129  -2.590  0.00  0.00    +0.000 A 
ATOM     20  N   UNL     1       5.272   0.162  -2.697  0.00  0.00    +0.000 NA
BRANCH  15  21
ATOM     21  C   UNL     1       3.091   0.473  -1.593  0.00  0.00    +0.000 C 
BRANCH  21  23
ATOM     22  C   UNL     1       3.075   2.880  -1.874  0.00  0.00    +0.000 C 
ATOM     23  N   UNL     1       2.585   1.759  -1.078  0.00  0.00    +0.000 NA
ATOM     24  H   UNL     1       1.568   1.746  -1.132  0.00  0.00    +0.000 HD
ENDBRANCH  21  23
ENDBRANCH  15  21
ENDBRANCH  14  18
ENDBRANCH   1  14
TORSDOF 5
