REMARK  Name = 
REMARK  10 active torsions:
REMARK  status: ('A' for Active; 'I' for Inactive)
REMARK    1  A    between atoms: C_1  and  O_2
REMARK    2  A    between atoms: O_2  and  C_3
REMARK    3  A    between atoms: C_3  and  C_5
REMARK    4  A    between atoms: C_8  and  O_9
REMARK    5  A    between atoms: O_9  and  C_10
REMARK    6  A    between atoms: C_10  and  C_11
REMARK    7  A    between atoms: C_11  and  C_12
REMARK    8  A    between atoms: C_11  and  C_13
REMARK    9  A    between atoms: C_11  and  C_14
REMARK   10  A    between atoms: C_18  and  C_19
REMARK                            x       y       z     vdW  Elec       q    Type
REMARK                         _______ _______ _______ _____ _____    ______ ____
ROOT
ATOM      1  C   UNL     1      10.976   0.091  -1.101  0.00  0.00    +0.000 C 
ATOM      2  C   UNL     1      11.312   0.670  -2.491  0.00  0.00    +0.000 C 
ATOM      3  C   UNL     1      11.314   1.182  -0.056  0.00  0.00    +0.000 C 
ENDROOT
BRANCH   1   4
ATOM      4  C   UNL     1      11.758  -1.227  -0.879  0.00  0.00    +0.000 A 
ATOM      5  C   UNL     1      12.716  -1.372   0.139  0.00  0.00    +0.000 A 
ATOM      6  C   UNL     1      13.362  -2.592   0.364  0.00  0.00    +0.000 A 
ATOM      7  C   UNL     1      13.052  -3.704  -0.413  0.00  0.00    +0.000 A 
ATOM      8  C   UNL     1      12.103  -3.598  -1.429  0.00  0.00    +0.000 A 
ATOM      9  C   UNL     1      11.490  -2.358  -1.680  0.00  0.00    +0.000 A 
BRANCH   8  10
ATOM     10  C   UNL     1      11.760  -4.827  -2.195  0.00  0.00    +0.000 C 
ATOM     11  N   UNL     1      10.535  -4.870  -2.803  0.00  0.00    +0.000 N 
ATOM     12  O   UNL     1      12.512  -5.792  -2.239  0.00  0.00    +0.000 OA
ATOM     13  H   UNL     1       9.796  -4.219  -2.583  0.00  0.00    +0.000 HD
ATOM     14  H   UNL     1      10.265  -5.767  -3.187  0.00  0.00    +0.000 HD
ENDBRANCH   8  10
ENDBRANCH   1   4
BRANCH   1  15
ATOM     15  C   UNL     1       9.451  -0.212  -1.004  0.00  0.00    +0.000 C 
BRANCH  15  16
ATOM     16  O   UNL     1       8.654   0.970  -1.180  0.00  0.00    +0.000 OA
BRANCH  16  20
ATOM     17  C   UNL     1       4.608   0.231  -0.842  0.00  0.00    +0.000 A 
ATOM     18  C   UNL     1       5.056   1.531  -1.091  0.00  0.00    +0.000 A 
ATOM     19  C   UNL     1       6.428   1.772  -1.206  0.00  0.00    +0.000 A 
ATOM     20  C   UNL     1       7.301   0.703  -1.071  0.00  0.00    +0.000 A 
ATOM     21  N   UNL     1       6.895  -0.563  -0.838  0.00  0.00    +0.000 NA
ATOM     22  C   UNL     1       5.562  -0.770  -0.726  0.00  0.00    +0.000 A 
BRANCH  17  23
ATOM     23  C   UNL     1       3.189  -0.155  -0.691  0.00  0.00    +0.000 C 
ATOM     24  O   UNL     1       2.834  -1.299  -0.456  0.00  0.00    +0.000 OA
BRANCH  23  26
ATOM     25  C   UNL     1       0.988   0.597  -0.707  0.00  0.00    +0.000 C 
ATOM     26  O   UNL     1       2.374   0.915  -0.847  0.00  0.00    +0.000 OA
ENDBRANCH  23  26
ENDBRANCH  17  23
ENDBRANCH  16  20
ENDBRANCH  15  16
ENDBRANCH   1  15
TORSDOF 7
