REMARK  Name = 
REMARK  6 active torsions:
REMARK  status: ('A' for Active; 'I' for Inactive)
REMARK    1  A    between atoms: C_2  and  C_4
REMARK    2  A    between atoms: N_8  and  C_9
REMARK    3  A    between atoms: C_9  and  C_10
REMARK    4  A    between atoms: C_10  and  C_13
REMARK    5  A    between atoms: C_17  and  N_18
REMARK    6  A    between atoms: N_18  and  C_19
REMARK                            x       y       z     vdW  Elec       q    Type
REMARK                         _______ _______ _______ _____ _____    ______ ____
ROOT
ATOM      1  C   UNL     1       6.697  -5.433   4.001  0.00  0.00    +0.000 C 
ATOM      2  F   UNL     1       7.902  -5.248   3.375  0.00  0.00    +0.000 F 
ATOM      3  F   UNL     1       6.816  -4.779   5.195  0.00  0.00    +0.000 F 
ENDROOT
BRANCH   1   4
ATOM      4  C   UNL     1       6.393  -6.900   4.192  0.00  0.00    +0.000 A 
ATOM      5  C   UNL     1       7.223  -7.898   3.656  0.00  0.00    +0.000 A 
ATOM      6  C   UNL     1       6.907  -9.244   3.824  0.00  0.00    +0.000 A 
ATOM      7  C   UNL     1       5.757  -9.620   4.525  0.00  0.00    +0.000 A 
ATOM      8  C   UNL     1       4.912  -8.653   5.074  0.00  0.00    +0.000 A 
ATOM      9  C   UNL     1       5.265  -7.301   4.915  0.00  0.00    +0.000 A 
ATOM     10  F   UNL     1       4.459  -6.365   5.443  0.00  0.00    +0.000 F 
BRANCH   8  11
ATOM     11  N   UNL     1       3.765  -8.993   5.830  0.00  0.00    +0.000 N 
ATOM     12  H   UNL     1       3.229  -8.157   6.074  0.00  0.00    +0.000 HD
BRANCH  11  13
ATOM     13  C   UNL     1       2.945 -10.159   5.637  0.00  0.00    +0.000 C 
ATOM     14  C   UNL     1       1.760  -9.933   4.675  0.00  0.00    +0.000 C 
ATOM     15  N   UNL     1       0.844 -10.509   5.680  0.00  0.00    +0.000 NA
ATOM     16  C   UNL     1       1.867 -10.321   6.728  0.00  0.00    +0.000 C 
ATOM     17  H   UNL     1       0.615 -11.489   5.510  0.00  0.00    +0.000 HD
ENDBRANCH  11  13
ENDBRANCH   8  11
ENDBRANCH   1   4
BRANCH   1  18
ATOM     18  C   UNL     1       5.602  -4.724   3.155  0.00  0.00    +0.000 C 
BRANCH  18  23
ATOM     19  C   UNL     1       3.255  -0.737   0.982  0.00  0.00    +0.000 A 
ATOM     20  C   UNL     1       3.288  -2.069   0.586  0.00  0.00    +0.000 A 
ATOM     21  C   UNL     1       4.137  -2.957   1.252  0.00  0.00    +0.000 A 
ATOM     22  C   UNL     1       4.925  -2.506   2.307  0.00  0.00    +0.000 A 
ATOM     23  N   UNL     1       5.868  -3.296   2.937  0.00  0.00    +0.000 N 
ATOM     24  N   UNL     1       4.875  -1.226   2.721  0.00  0.00    +0.000 NA
ATOM     25  C   UNL     1       4.060  -0.367   2.049  0.00  0.00    +0.000 A 
ATOM     26  H   UNL     1       6.218  -2.788   3.749  0.00  0.00    +0.000 HD
BRANCH  19  28
ATOM     27  N   UNL     1       1.370  -0.112  -0.427  0.00  0.00    +0.000 N 
ATOM     28  C   UNL     1       2.468   0.297   0.278  0.00  0.00    +0.000 C 
ATOM     29  O   UNL     1       2.776   1.480   0.331  0.00  0.00    +0.000 OA
ATOM     30  H   UNL     1       0.808   0.618  -0.848  0.00  0.00    +0.000 HD
ATOM     31  H   UNL     1       0.948  -1.022  -0.315  0.00  0.00    +0.000 HD
ENDBRANCH  19  28
ENDBRANCH  18  23
ENDBRANCH   1  18
TORSDOF 6
