REMARK  Name = 
REMARK  9 active torsions:
REMARK  status: ('A' for Active; 'I' for Inactive)
REMARK    1  A    between atoms: C_1  and  O_2
REMARK    2  A    between atoms: O_2  and  C_3
REMARK    3  A    between atoms: N_10  and  C_11
REMARK    4  A    between atoms: C_11  and  C_12
REMARK    5  A    between atoms: C_15  and  C_16
REMARK    6  A    between atoms: C_16  and  C_17
REMARK    7  A    between atoms: C_17  and  N_18
REMARK    8  A    between atoms: N_18  and  C_19
REMARK    9  A    between atoms: N_18  and  C_20
REMARK                            x       y       z     vdW  Elec       q    Type
REMARK                         _______ _______ _______ _____ _____    ______ ____
ROOT
ATOM      1  C   UNL     1       5.445   0.834  -5.968  0.00  0.00    +0.000 C 
ENDROOT
BRANCH   1   9
ATOM      2  C   UNL     1       7.931  -0.490 -10.414  0.00  0.00    +0.000 A 
ATOM      3  C   UNL     1       6.593  -0.714 -10.099  0.00  0.00    +0.000 A 
ATOM      4  C   UNL     1       6.037  -0.227  -8.907  0.00  0.00    +0.000 A 
ATOM      5  C   UNL     1       6.862   0.502  -8.035  0.00  0.00    +0.000 A 
ATOM      6  C   UNL     1       8.208   0.740  -8.334  0.00  0.00    +0.000 A 
ATOM      7  C   UNL     1       8.757   1.492  -7.262  0.00  0.00    +0.000 A 
ATOM      8  C   UNL     1       7.763   1.682  -6.332  0.00  0.00    +0.000 A 
ATOM      9  N   UNL     1       6.622   1.066  -6.794  0.00  0.00    +0.000 N 
ATOM     10  C   UNL     1       8.747   0.222  -9.529  0.00  0.00    +0.000 A 
BRANCH   2  12
ATOM     11  C   UNL     1       7.744  -1.143 -12.679  0.00  0.00    +0.000 C 
ATOM     12  O   UNL     1       8.567  -0.956 -11.534  0.00  0.00    +0.000 OA
ENDBRANCH   2  12
ENDBRANCH   1   9
BRANCH   1  13
ATOM     13  C   UNL     1       4.412   1.923  -6.021  0.00  0.00    +0.000 A 
ATOM     14  C   UNL     1       4.478   3.052  -5.200  0.00  0.00    +0.000 A 
ATOM     15  C   UNL     1       3.390   3.924  -5.126  0.00  0.00    +0.000 A 
ATOM     16  C   UNL     1       2.257   3.649  -5.885  0.00  0.00    +0.000 A 
ATOM     17  N   UNL     1       2.202   2.604  -6.745  0.00  0.00    +0.000 NA
ATOM     18  C   UNL     1       3.273   1.782  -6.804  0.00  0.00    +0.000 A 
BRANCH  16  19
ATOM     19  C   UNL     1       0.981   4.433  -5.690  0.00  0.00    +0.000 C 
BRANCH  19  20
ATOM     20  C   UNL     1       0.075   3.707  -4.676  0.00  0.00    +0.000 C 
BRANCH  20  21
ATOM     21  N   UNL     1      -1.210   4.381  -4.386  0.00  0.00    +0.000 NA
ATOM     22  C   UNL     1      -2.059   4.467  -5.577  0.00  0.00    +0.000 C 
ATOM     23  C   UNL     1      -1.925   3.638  -3.339  0.00  0.00    +0.000 C 
ENDBRANCH  20  21
ENDBRANCH  19  20
ENDBRANCH  16  19
ENDBRANCH   1  13
TORSDOF 6
