REMARK  Name = 
REMARK  4 active torsions:
REMARK  status: ('A' for Active; 'I' for Inactive)
REMARK    1  A    between atoms: C_2  and  C_3
REMARK    2  A    between atoms: C_6  and  N_7
REMARK    3  A    between atoms: N_7  and  C_8
REMARK    4  A    between atoms: C_8  and  C_9
REMARK                            x       y       z     vdW  Elec       q    Type
REMARK                         _______ _______ _______ _____ _____    ______ ____
ROOT
ATOM      1  N   UNL     1       3.736  -0.041  -0.105  0.00  0.00    +0.000 N 
ATOM      2  H   UNL     1       4.065   0.766   0.424  0.00  0.00    +0.000 HD
ENDROOT
BRANCH   1   6
ATOM      3  C   UNL     1      -0.480  -0.190  -0.078  0.00  0.00    +0.000 A 
ATOM      4  C   UNL     1       0.236  -1.005   0.805  0.00  0.00    +0.000 A 
ATOM      5  C   UNL     1       1.638  -0.964   0.823  0.00  0.00    +0.000 A 
ATOM      6  C   UNL     1       2.341  -0.131  -0.052  0.00  0.00    +0.000 A 
ATOM      7  C   UNL     1       1.608   0.729  -0.879  0.00  0.00    +0.000 A 
ATOM      8  C   UNL     1       0.211   0.687  -0.912  0.00  0.00    +0.000 A 
BRANCH   3  10
ATOM      9  N   UNL     1      -3.070  -0.317  -0.178  0.00  0.00    +0.000 NA
ATOM     10  C   UNL     1      -1.913  -0.259  -0.130  0.00  0.00    +0.000 C 
ENDBRANCH   3  10
ENDBRANCH   1   6
BRANCH   1  11
ATOM     11  C   UNL     1       4.522  -1.235   0.192  0.00  0.00    +0.000 C 
BRANCH  11  12
ATOM     12  C   UNL     1       5.857  -1.194  -0.508  0.00  0.00    +0.000 A 
ATOM     13  C   UNL     1       6.049  -0.595  -1.759  0.00  0.00    +0.000 A 
ATOM     14  C   UNL     1       7.298  -0.652  -2.375  0.00  0.00    +0.000 A 
ATOM     15  C   UNL     1       8.318  -1.326  -1.727  0.00  0.00    +0.000 A 
ATOM     16  N   UNL     1       8.171  -1.937  -0.533  0.00  0.00    +0.000 NA
ATOM     17  C   UNL     1       6.947  -1.862   0.041  0.00  0.00    +0.000 A 
ENDBRANCH  11  12
ENDBRANCH   1  11
TORSDOF 4
