REMARK  Name = 
REMARK  5 active torsions:
REMARK  status: ('A' for Active; 'I' for Inactive)
REMARK    1  A    between atoms: C_2  and  C_4
REMARK    2  A    between atoms: C_7  and  N_8
REMARK    3  A    between atoms: N_8  and  C_9
REMARK    4  A    between atoms: C_9  and  C_10
REMARK    5  A    between atoms: C_14  and  C_15
REMARK                            x       y       z     vdW  Elec       q    Type
REMARK                         _______ _______ _______ _____ _____    ______ ____
ROOT
ATOM      1  C   UNL     1       4.412   4.848  -3.782  0.00  0.00    +0.000 C 
ENDROOT
BRANCH   1   2
ATOM      2  C   UNL     1       5.157   5.708  -4.772  0.00  0.00    +0.000 A 
ATOM      3  C   UNL     1       4.832   7.059  -4.933  0.00  0.00    +0.000 A 
ATOM      4  C   UNL     1       5.493   7.827  -5.886  0.00  0.00    +0.000 A 
ATOM      5  C   UNL     1       6.498   7.256  -6.672  0.00  0.00    +0.000 A 
ATOM      6  C   UNL     1       6.884   5.913  -6.511  0.00  0.00    +0.000 A 
ATOM      7  C   UNL     1       6.174   5.151  -5.565  0.00  0.00    +0.000 A 
BRANCH   6   8
ATOM      8  C   UNL     1       8.043   5.340  -7.237  0.00  0.00    +0.000 A 
ATOM      9  C   UNL     1       9.185   6.124  -7.498  0.00  0.00    +0.000 A 
ATOM     10  C   UNL     1      10.333   5.582  -8.085  0.00  0.00    +0.000 A 
ATOM     11  C   UNL     1      10.367   4.234  -8.422  0.00  0.00    +0.000 A 
ATOM     12  C   UNL     1       9.244   3.452  -8.193  0.00  0.00    +0.000 A 
ATOM     13  F   UNL     1       9.275   2.150  -8.508  0.00  0.00    +0.000 F 
ATOM     14  C   UNL     1       8.091   3.989  -7.621  0.00  0.00    +0.000 A 
ENDBRANCH   6   8
ENDBRANCH   1   2
BRANCH   1  15
ATOM     15  N   UNL     1       4.565   5.361  -2.430  0.00  0.00    +0.000 N 
ATOM     16  H   UNL     1       5.502   5.699  -2.219  0.00  0.00    +0.000 HD
BRANCH  15  20
ATOM     17  C   UNL     1       2.670   3.491   0.847  0.00  0.00    +0.000 A 
ATOM     18  C   UNL     1       2.482   2.983  -0.437  0.00  0.00    +0.000 A 
ATOM     19  C   UNL     1       3.121   3.584  -1.527  0.00  0.00    +0.000 A 
ATOM     20  C   UNL     1       3.976   4.681  -1.362  0.00  0.00    +0.000 A 
ATOM     21  C   UNL     1       4.129   5.196  -0.066  0.00  0.00    +0.000 A 
ATOM     22  C   UNL     1       3.480   4.613   1.030  0.00  0.00    +0.000 A 
BRANCH  17  24
ATOM     23  N   UNL     1       1.679   1.561   1.942  0.00  0.00    +0.000 N 
ATOM     24  C   UNL     1       1.980   2.893   2.018  0.00  0.00    +0.000 C 
ATOM     25  O   UNL     1       1.730   3.544   3.024  0.00  0.00    +0.000 OA
ATOM     26  H   UNL     1       1.299   1.137   2.779  0.00  0.00    +0.000 HD
ATOM     27  H   UNL     1       2.090   0.949   1.251  0.00  0.00    +0.000 HD
ENDBRANCH  17  24
ENDBRANCH  15  20
ENDBRANCH   1  15
TORSDOF 5
