REMARK  Name = 
REMARK  7 active torsions:
REMARK  status: ('A' for Active; 'I' for Inactive)
REMARK    1  A    between atoms: C_1  and  C_2
REMARK    2  A    between atoms: C_2  and  C_3
REMARK    3  A    between atoms: C_2  and  C_4
REMARK    4  A    between atoms: C_2  and  C_5
REMARK    5  A    between atoms: C_9  and  C_10
REMARK    6  A    between atoms: N_16  and  C_17
REMARK    7  A    between atoms: C_17  and  C_18
REMARK                            x       y       z     vdW  Elec       q    Type
REMARK                         _______ _______ _______ _____ _____    ______ ____
ROOT
ATOM      1  C   UNL     1       3.197  -0.067   1.463  0.00  0.00    +0.000 A 
ATOM      2  N   UNL     1       3.499  -1.084   2.262  0.00  0.00    +0.000 NA
ATOM      3  C   UNL     1       3.823  -0.553   3.469  0.00  0.00    +0.000 A 
ATOM      4  C   UNL     1       4.232  -1.183   4.629  0.00  0.00    +0.000 A 
ATOM      5  C   UNL     1       4.515  -0.323   5.670  0.00  0.00    +0.000 A 
ATOM      6  N   UNL     1       4.389   1.037   5.608  0.00  0.00    +0.000 NA
ATOM      7  N   UNL     1       3.970   1.637   4.489  0.00  0.00    +0.000 NA
ATOM      8  C   UNL     1       3.710   0.819   3.444  0.00  0.00    +0.000 A 
ATOM      9  N   UNL     1       3.292   1.133   2.168  0.00  0.00    +0.000 N 
ENDROOT
BRANCH   5  10
ATOM     10  C   UNL     1       5.010  -0.906   6.956  0.00  0.00    +0.000 C 
ATOM     11  N   UNL     1       5.329  -0.035   7.956  0.00  0.00    +0.000 N 
ATOM     12  O   UNL     1       5.144  -2.114   7.110  0.00  0.00    +0.000 OA
ATOM     13  H   UNL     1       5.239   0.970   7.838  0.00  0.00    +0.000 HD
ATOM     14  H   UNL     1       5.684  -0.408   8.826  0.00  0.00    +0.000 HD
ENDBRANCH   5  10
BRANCH   1  16
ATOM     15  C   UNL     1       1.219  -0.374  -0.041  0.00  0.00    +0.000 C 
ATOM     16  C   UNL     1       2.755  -0.338   0.026  0.00  0.00    +0.000 C 
ATOM     17  C   UNL     1       3.262  -1.751  -0.388  0.00  0.00    +0.000 C 
ATOM     18  C   UNL     1       3.341   0.628  -1.008  0.00  0.00    +0.000 C 
ENDBRANCH   1  16
BRANCH   9  19
ATOM     19  C   UNL     1       2.958   2.500   1.771  0.00  0.00    +0.000 C 
BRANCH  19  20
ATOM     20  C   UNL     1       4.077   3.246   1.070  0.00  0.00    +0.000 A 
ATOM     21  C   UNL     1       3.748   4.295   0.191  0.00  0.00    +0.000 A 
ATOM     22  C   UNL     1       4.727   4.896  -0.603  0.00  0.00    +0.000 A 
ATOM     23  C   UNL     1       6.053   4.484  -0.506  0.00  0.00    +0.000 A 
ATOM     24  C   UNL     1       6.409   3.522   0.436  0.00  0.00    +0.000 A 
ATOM     25  C   UNL     1       5.432   2.923   1.234  0.00  0.00    +0.000 A 
ENDBRANCH  19  20
ENDBRANCH   9  19
TORSDOF 4
