REMARK  Name = 
REMARK  5 active torsions:
REMARK  status: ('A' for Active; 'I' for Inactive)
REMARK    1  A    between atoms: C_2  and  C_4
REMARK    2  A    between atoms: C_7  and  O_8
REMARK    3  A    between atoms: O_8  and  C_9
REMARK    4  A    between atoms: C_9  and  C_10
REMARK    5  A    between atoms: C_15  and  C_16
REMARK                            x       y       z     vdW  Elec       q    Type
REMARK                         _______ _______ _______ _____ _____    ______ ____
ROOT
ATOM      1  C   UNL     1       4.698  -5.346   2.383  0.00  0.00    +0.000 C 
ATOM      2  C   UNL     1       4.726  -6.706   1.701  0.00  0.00    +0.000 C 
ATOM      3  C   UNL     1       3.497  -6.262   2.415  0.00  0.00    +0.000 C 
ENDROOT
BRANCH   1   4
ATOM      4  C   UNL     1       5.549  -5.101   3.612  0.00  0.00    +0.000 A 
ATOM      5  C   UNL     1       6.943  -5.050   3.477  0.00  0.00    +0.000 A 
ATOM      6  C   UNL     1       7.729  -4.555   4.502  0.00  0.00    +0.000 A 
ATOM      7  F   UNL     1       9.049  -4.429   4.317  0.00  0.00    +0.000 F 
ATOM      8  C   UNL     1       7.163  -4.129   5.696  0.00  0.00    +0.000 A 
ATOM      9  C   UNL     1       5.781  -4.228   5.923  0.00  0.00    +0.000 A 
ATOM     10  C   UNL     1       4.995  -4.730   4.858  0.00  0.00    +0.000 A 
BRANCH   9  11
ATOM     11  C   UNL     1       5.188  -3.771   7.206  0.00  0.00    +0.000 A 
ATOM     12  C   UNL     1       5.918  -3.772   8.403  0.00  0.00    +0.000 A 
ATOM     13  C   UNL     1       5.368  -3.289   9.588  0.00  0.00    +0.000 A 
ATOM     14  C   UNL     1       4.066  -2.824   9.564  0.00  0.00    +0.000 A 
ATOM     15  N   UNL     1       3.311  -2.810   8.450  0.00  0.00    +0.000 NA
ATOM     16  C   UNL     1       3.886  -3.275   7.310  0.00  0.00    +0.000 A 
ENDBRANCH   9  11
ENDBRANCH   1   4
BRANCH   1  17
ATOM     17  O   UNL     1       4.811  -4.293   1.397  0.00  0.00    +0.000 OA
BRANCH  17  21
ATOM     18  C   UNL     1       1.975  -1.507   0.847  0.00  0.00    +0.000 A 
ATOM     19  C   UNL     1       1.709  -2.600   1.658  0.00  0.00    +0.000 A 
ATOM     20  N   UNL     1       2.658  -3.509   1.979  0.00  0.00    +0.000 NA
ATOM     21  C   UNL     1       3.875  -3.284   1.437  0.00  0.00    +0.000 A 
ATOM     22  C   UNL     1       4.161  -2.148   0.689  0.00  0.00    +0.000 A 
ATOM     23  N   UNL     1       3.223  -1.225   0.368  0.00  0.00    +0.000 NA
BRANCH  18  25
ATOM     24  N   UNL     1       1.189   0.294  -0.553  0.00  0.00    +0.000 N 
ATOM     25  C   UNL     1       0.849  -0.678   0.347  0.00  0.00    +0.000 C 
ATOM     26  O   UNL     1      -0.312  -0.885   0.675  0.00  0.00    +0.000 OA
ATOM     27  H   UNL     1       0.458   0.816  -1.015  0.00  0.00    +0.000 HD
ATOM     28  H   UNL     1       2.151   0.378  -0.863  0.00  0.00    +0.000 HD
ENDBRANCH  18  25
ENDBRANCH  17  21
ENDBRANCH   1  17
TORSDOF 5
