REMARK  Name = 
REMARK  4 active torsions:
REMARK  status: ('A' for Active; 'I' for Inactive)
REMARK    1  A    between atoms: C_2  and  C_4
REMARK    2  A    between atoms: C_7  and  O_8
REMARK    3  A    between atoms: O_8  and  C_9
REMARK    4  A    between atoms: C_9  and  C_10
REMARK                            x       y       z     vdW  Elec       q    Type
REMARK                         _______ _______ _______ _____ _____    ______ ____
ROOT
ATOM      1  C   UNL     1       2.958  -1.400  -1.728  0.00  0.00    +0.000 A 
ATOM      2  C   UNL     1       3.932  -0.514  -1.278  0.00  0.00    +0.000 A 
ATOM      3  C   UNL     1       4.763   0.105  -2.207  0.00  0.00    +0.000 A 
ATOM      4  C   UNL     1       4.593  -0.167  -3.559  0.00  0.00    +0.000 A 
ATOM      5  N   UNL     1       3.658  -1.023  -4.034  0.00  0.00    +0.000 NA
ATOM      6  C   UNL     1       2.869  -1.630  -3.102  0.00  0.00    +0.000 A 
ENDROOT
BRANCH   1   8
ATOM      7  N   UNL     1       1.804  -1.559   0.411  0.00  0.00    +0.000 N 
ATOM      8  C   UNL     1       2.064  -2.131  -0.806  0.00  0.00    +0.000 C 
ATOM      9  O   UNL     1       1.552  -3.198  -1.124  0.00  0.00    +0.000 OA
ATOM     10  H   UNL     1       1.136  -2.037   1.004  0.00  0.00    +0.000 HD
ATOM     11  H   UNL     1       2.014  -0.595   0.626  0.00  0.00    +0.000 HD
ENDBRANCH   1   8
BRANCH   4  12
ATOM     12  O   UNL     1       5.496   0.444  -4.400  0.00  0.00    +0.000 OA
BRANCH  12  13
ATOM     13  C   UNL     1       5.112   0.715  -5.766  0.00  0.00    +0.000 C 
ATOM     14  C   UNL     1       5.022   2.227  -5.986  0.00  0.00    +0.000 C 
ATOM     15  C   UNL     1       3.795   1.389  -6.098  0.00  0.00    +0.000 C 
BRANCH  13  16
ATOM     16  C   UNL     1       5.780  -0.129  -6.842  0.00  0.00    +0.000 A 
ATOM     17  C   UNL     1       5.193  -1.325  -7.291  0.00  0.00    +0.000 A 
ATOM     18  C   UNL     1       5.748  -2.063  -8.343  0.00  0.00    +0.000 A 
ATOM     19  C   UNL     1       6.912  -1.617  -8.959  0.00  0.00    +0.000 A 
ATOM     20 CL   UNL     1       7.574  -2.493 -10.284  0.00  0.00    +0.000 Cl
ATOM     21  C   UNL     1       7.538  -0.457  -8.517  0.00  0.00    +0.000 A 
ATOM     22  C   UNL     1       6.981   0.270  -7.460  0.00  0.00    +0.000 A 
ENDBRANCH  13  16
ENDBRANCH  12  13
ENDBRANCH   4  12
TORSDOF 4
