REMARK  Name = 
REMARK  7 active torsions:
REMARK  status: ('A' for Active; 'I' for Inactive)
REMARK    1  A    between atoms: C_1  and  C_2
REMARK    2  A    between atoms: C_2  and  N_3
REMARK    3  A    between atoms: C_2  and  C_16
REMARK    4  A    between atoms: C_4  and  C_6
REMARK    5  A    between atoms: C_19  and  C_20
REMARK    6  A    between atoms: C_20  and  N_21
REMARK    7  A    between atoms: C_22  and  C_24
REMARK                            x       y       z     vdW  Elec       q    Type
REMARK                         _______ _______ _______ _____ _____    ______ ____
ROOT
ATOM      1  C   UNL     1       3.813  -0.989  -0.330  0.00  0.00    +0.000 C 
ATOM      2  C   UNL     1       2.579  -0.123  -0.054  0.00  0.00    +0.000 C 
ENDROOT
BRANCH   2   3
ATOM      3  C   UNL     1       2.942   1.052   0.848  0.00  0.00    +0.000 A 
ATOM      4  C   UNL     1       2.820   2.371   0.392  0.00  0.00    +0.000 A 
ATOM      5  C   UNL     1       3.094   3.451   1.244  0.00  0.00    +0.000 A 
ATOM      6  C   UNL     1       3.506   3.237   2.567  0.00  0.00    +0.000 A 
ATOM      7  C   UNL     1       3.636   1.919   3.021  0.00  0.00    +0.000 A 
ATOM      8  C   UNL     1       3.366   0.842   2.171  0.00  0.00    +0.000 A 
BRANCH   6   9
ATOM      9  C   UNL     1       3.780   4.394   3.497  0.00  0.00    +0.000 C 
BRANCH   9  10
ATOM     10  N   UNL     1       2.586   4.806   4.199  0.00  0.00    +0.000 N 
ATOM     11  C   UNL     1       2.617   5.798   5.155  0.00  0.00    +0.000 C 
ATOM     12  O   UNL     1       3.646   6.383   5.471  0.00  0.00    +0.000 OA
ATOM     13  H   UNL     1       1.709   4.400   3.922  0.00  0.00    +0.000 HD
BRANCH  11  14
ATOM     14  C   UNL     1       1.343   6.095   5.758  0.00  0.00    +0.000 A 
ATOM     15  C   UNL     1       0.076   5.567   5.598  0.00  0.00    +0.000 A 
ATOM     16  C   UNL     1      -0.743   6.284   6.489  0.00  0.00    +0.000 A 
ATOM     17  N   UNL     1      -0.062   7.204   7.170  0.00  0.00    +0.000 NA
ATOM     18  N   UNL     1       1.196   7.072   6.714  0.00  0.00    +0.000 N 
ATOM     19  H   UNL     1       1.922   7.675   7.091  0.00  0.00    +0.000 HD
ENDBRANCH  11  14
ENDBRANCH   9  10
ENDBRANCH   6   9
ENDBRANCH   2   3
BRANCH   2  20
ATOM     20  N   UNL     1       1.499  -0.877   0.567  0.00  0.00    +0.000 N 
ATOM     21  C   UNL     1       0.901  -1.965  -0.017  0.00  0.00    +0.000 C 
ATOM     22  O   UNL     1       1.248  -2.415  -1.104  0.00  0.00    +0.000 OA
ATOM     23  H   UNL     1       0.968  -0.377   1.274  0.00  0.00    +0.000 HD
BRANCH  21  24
ATOM     24  C   UNL     1      -0.144  -2.622   0.775  0.00  0.00    +0.000 A 
ATOM     25  C   UNL     1      -0.364  -3.985   0.631  0.00  0.00    +0.000 A 
ATOM     26  S   UNL     1      -1.606  -4.585   1.634  0.00  0.00    +0.000 S 
ATOM     27  C   UNL     1      -1.922  -3.034   2.261  0.00  0.00    +0.000 A 
ATOM     28  N   UNL     1      -2.922  -2.833   3.160  0.00  0.00    +0.000 NA
ATOM     29  C   UNL     1      -3.072  -1.602   3.523  0.00  0.00    +0.000 A 
ATOM     30  N   UNL     1      -2.301  -0.558   3.082  0.00  0.00    +0.000 N 
ATOM     31  C   UNL     1      -1.250  -0.722   2.212  0.00  0.00    +0.000 A 
ATOM     32  O   UNL     1      -0.529   0.220   1.896  0.00  0.00    +0.000 OA
ATOM     33  C   UNL     1      -1.066  -2.080   1.742  0.00  0.00    +0.000 A 
ATOM     34  H   UNL     1      -2.458   0.379   3.422  0.00  0.00    +0.000 HD
ENDBRANCH  21  24
ENDBRANCH   2  20
TORSDOF 6
