REMARK  Name = 
REMARK  9 active torsions:
REMARK  status: ('A' for Active; 'I' for Inactive)
REMARK    1  A    between atoms: C_1  and  C_2
REMARK    2  A    between atoms: C_2  and  N_3
REMARK    3  A    between atoms: C_2  and  C_19
REMARK    4  A    between atoms: N_3  and  C_4
REMARK    5  A    between atoms: C_4  and  C_5
REMARK    6  A    between atoms: C_8  and  C_9
REMARK    7  A    between atoms: C_9  and  N_10
REMARK    8  A    between atoms: N_10  and  C_11
REMARK    9  A    between atoms: C_11  and  C_12
REMARK                            x       y       z     vdW  Elec       q    Type
REMARK                         _______ _______ _______ _____ _____    ______ ____
ROOT
ATOM      1  C   UNL     1       0.602  -0.327   1.283  0.00  0.00    +0.000 C 
ENDROOT
BRANCH   1   2
ATOM      2  C   UNL     1      -0.912  -0.322   1.306  0.00  0.00    +0.000 A 
ATOM      3  C   UNL     1      -1.615  -1.284   2.045  0.00  0.00    +0.000 A 
ATOM      4  C   UNL     1      -3.006  -1.222   2.157  0.00  0.00    +0.000 A 
ATOM      5  C   UNL     1      -3.729  -0.191   1.540  0.00  0.00    +0.000 A 
ATOM      6  C   UNL     1      -3.030   0.757   0.782  0.00  0.00    +0.000 A 
ATOM      7  C   UNL     1      -1.637   0.692   0.666  0.00  0.00    +0.000 A 
BRANCH   5   8
ATOM      8  C   UNL     1      -5.230  -0.101   1.707  0.00  0.00    +0.000 C 
BRANCH   8   9
ATOM      9  N   UNL     1      -5.577   0.070   3.120  0.00  0.00    +0.000 NA
ATOM     10  H   UNL     1      -5.142   0.935   3.444  0.00  0.00    +0.000 HD
BRANCH   9  11
ATOM     11  C   UNL     1      -7.020   0.178   3.309  0.00  0.00    +0.000 C 
BRANCH  11  12
ATOM     12  C   UNL     1      -7.309   0.315   4.758  0.00  0.00    +0.000 A 
ATOM     13  C   UNL     1      -8.317   0.945   5.456  0.00  0.00    +0.000 A 
ATOM     14  N   UNL     1      -8.151   0.786   6.809  0.00  0.00    +0.000 NA
ATOM     15  C   UNL     1      -7.061   0.065   6.944  0.00  0.00    +0.000 A 
ATOM     16  N   UNL     1      -6.523  -0.253   5.732  0.00  0.00    +0.000 N 
ATOM     17  H   UNL     1      -5.675  -0.776   5.555  0.00  0.00    +0.000 HD
ENDBRANCH  11  12
ENDBRANCH   9  11
ENDBRANCH   8   9
ENDBRANCH   5   8
ENDBRANCH   1   2
BRANCH   1  18
ATOM     18  N   UNL     1       1.135  -1.615   0.842  0.00  0.00    +0.000 NA
ATOM     19  H   UNL     1       0.757  -1.806  -0.086  0.00  0.00    +0.000 HD
BRANCH  18  21
ATOM     20  C   UNL     1       3.315  -1.366   2.081  0.00  0.00    +0.000 C 
ATOM     21  C   UNL     1       2.603  -1.635   0.748  0.00  0.00    +0.000 C 
BRANCH  21  22
ATOM     22  C   UNL     1       2.977  -3.006   0.217  0.00  0.00    +0.000 A 
ATOM     23  C   UNL     1       2.616  -4.201   0.825  0.00  0.00    +0.000 A 
ATOM     24  S   UNL     1       3.187  -5.582   0.001  0.00  0.00    +0.000 S 
ATOM     25  C   UNL     1       3.928  -4.629  -1.199  0.00  0.00    +0.000 A 
ATOM     26  N   UNL     1       4.602  -5.203  -2.233  0.00  0.00    +0.000 NA
ATOM     27  C   UNL     1       5.106  -4.357  -3.070  0.00  0.00    +0.000 A 
ATOM     28  N   UNL     1       5.004  -2.993  -2.967  0.00  0.00    +0.000 N 
ATOM     29  C   UNL     1       4.345  -2.366  -1.933  0.00  0.00    +0.000 A 
ATOM     30  O   UNL     1       4.289  -1.141  -1.862  0.00  0.00    +0.000 OA
ATOM     31  C   UNL     1       3.750  -3.277  -0.971  0.00  0.00    +0.000 A 
ATOM     32  H   UNL     1       5.425  -2.388  -3.655  0.00  0.00    +0.000 HD
ENDBRANCH  21  22
ENDBRANCH  18  21
ENDBRANCH   1  18
TORSDOF 8
