REMARK  Name = 
REMARK  11 active torsions:
REMARK  status: ('A' for Active; 'I' for Inactive)
REMARK    1  A    between atoms: N_1  and  C_2
REMARK    2  A    between atoms: C_2  and  C_3
REMARK    3  A    between atoms: C_3  and  C_4
REMARK    4  A    between atoms: C_4  and  N_5
REMARK    5  A    between atoms: N_5  and  C_6
REMARK    6  A    between atoms: N_5  and  C_27
REMARK    7  A    between atoms: C_6  and  C_7
REMARK    8  A    between atoms: C_10  and  C_11
REMARK    9  A    between atoms: C_11  and  N_12
REMARK   10  A    between atoms: C_13  and  C_15
REMARK   11  A    between atoms: C_27  and  C_28
REMARK                            x       y       z     vdW  Elec       q    Type
REMARK                         _______ _______ _______ _____ _____    ______ ____
ROOT
ATOM      1  C   UNL     1       2.964   1.695   3.750  0.00  0.00    +0.000 A 
ATOM      2  C   UNL     1       2.289   0.479   3.933  0.00  0.00    +0.000 A 
ATOM      3  C   UNL     1       0.893   0.435   3.930  0.00  0.00    +0.000 A 
ATOM      4  C   UNL     1       0.149   1.607   3.764  0.00  0.00    +0.000 A 
ATOM      5  C   UNL     1       0.819   2.833   3.705  0.00  0.00    +0.000 A 
ATOM      6  C   UNL     1       2.213   2.875   3.699  0.00  0.00    +0.000 A 
ENDROOT
BRANCH   1   7
ATOM      7  C   UNL     1       4.459   1.710   3.479  0.00  0.00    +0.000 C 
BRANCH   7   8
ATOM      8  N   UNL     1       4.849   1.599   2.048  0.00  0.00    +0.000 NA
BRANCH   8   9
ATOM      9  C   UNL     1       4.406   2.737   1.214  0.00  0.00    +0.000 C 
BRANCH   9  10
ATOM     10  C   UNL     1       4.938   4.097   1.684  0.00  0.00    +0.000 C 
BRANCH  10  11
ATOM     11  C   UNL     1       4.451   5.235   0.786  0.00  0.00    +0.000 C 
BRANCH  11  12
ATOM     12  N   UNL     1       4.959   6.505   1.296  0.00  0.00    +0.000 NA
ATOM     13  H   UNL     1       4.764   7.246   0.624  0.00  0.00    +0.000 HD
ATOM     14  H   UNL     1       5.974   6.457   1.384  0.00  0.00    +0.000 HD
ENDBRANCH  11  12
ENDBRANCH  10  11
ENDBRANCH   9  10
ENDBRANCH   8   9
BRANCH   8  15
ATOM     15  C   UNL     1       4.346   0.320   1.487  0.00  0.00    +0.000 C 
BRANCH  15  16
ATOM     16  C   UNL     1       4.813  -0.039   0.091  0.00  0.00    +0.000 A 
ATOM     17  C   UNL     1       6.169  -0.143  -0.202  0.00  0.00    +0.000 A 
ATOM     18  C   UNL     1       6.546  -0.553  -1.477  0.00  0.00    +0.000 A 
ATOM     19  C   UNL     1       5.567  -0.842  -2.421  0.00  0.00    +0.000 A 
ATOM     20  C   UNL     1       4.241  -0.696  -2.054  0.00  0.00    +0.000 A 
ATOM     21  N   UNL     1       3.845  -0.307  -0.826  0.00  0.00    +0.000 NA
ENDBRANCH  15  16
ENDBRANCH   8  15
ENDBRANCH   7   8
ENDBRANCH   1   7
BRANCH   4  22
ATOM     22  C   UNL     1      -1.353   1.569   3.660  0.00  0.00    +0.000 C 
BRANCH  22  23
ATOM     23  N   UNL     1      -1.965   1.689   4.952  0.00  0.00    +0.000 N 
ATOM     24  C   UNL     1      -3.327   1.640   5.099  0.00  0.00    +0.000 C 
ATOM     25  O   UNL     1      -4.082   1.442   4.150  0.00  0.00    +0.000 OA
ATOM     26  H   UNL     1      -1.401   2.098   5.689  0.00  0.00    +0.000 HD
BRANCH  24  27
ATOM     27  C   UNL     1      -3.834   1.772   6.468  0.00  0.00    +0.000 A 
ATOM     28  C   UNL     1      -5.061   1.218   6.806  0.00  0.00    +0.000 A 
ATOM     29  S   UNL     1      -5.467   1.411   8.452  0.00  0.00    +0.000 S 
ATOM     30  C   UNL     1      -4.043   2.293   8.755  0.00  0.00    +0.000 A 
ATOM     31  N   UNL     1      -3.778   2.791   9.993  0.00  0.00    +0.000 NA
ATOM     32  C   UNL     1      -2.680   3.467  10.072  0.00  0.00    +0.000 A 
ATOM     33  N   UNL     1      -1.820   3.685   9.029  0.00  0.00    +0.000 N 
ATOM     34  C   UNL     1      -2.029   3.173   7.770  0.00  0.00    +0.000 A 
ATOM     35  O   UNL     1      -1.214   3.342   6.872  0.00  0.00    +0.000 OA
ATOM     36  C   UNL     1      -3.259   2.419   7.623  0.00  0.00    +0.000 A 
ATOM     37  H   UNL     1      -0.970   4.213   9.158  0.00  0.00    +0.000 HD
ENDBRANCH  24  27
ENDBRANCH  22  23
ENDBRANCH   4  22
TORSDOF 11
