REMARK  Name = 
REMARK  5 active torsions:
REMARK  status: ('A' for Active; 'I' for Inactive)
REMARK    1  A    between atoms: C_2  and  C_3
REMARK    2  A    between atoms: C_6  and  N_7
REMARK    3  A    between atoms: N_7  and  C_8
REMARK    4  A    between atoms: C_8  and  C_9
REMARK    5  A    between atoms: C_13  and  C_14
REMARK                            x       y       z     vdW  Elec       q    Type
REMARK                         _______ _______ _______ _____ _____    ______ ____
ROOT
ATOM      1  C   UNL     1      10.198  -0.767  -1.043  0.00  0.00    +0.000 A 
ATOM      2  C   UNL     1      10.687   0.536  -1.184  0.00  0.00    +0.000 A 
ATOM      3  C   UNL     1      11.990   0.753  -1.627  0.00  0.00    +0.000 A 
ATOM      4  C   UNL     1      12.811  -0.329  -1.956  0.00  0.00    +0.000 A 
ATOM      5  C   UNL     1      12.356  -1.654  -1.845  0.00  0.00    +0.000 A 
ATOM      6  C   UNL     1      11.048  -1.846  -1.356  0.00  0.00    +0.000 A 
ENDROOT
BRANCH   5   7
ATOM      7  C   UNL     1      13.187  -2.794  -2.288  0.00  0.00    +0.000 A 
ATOM      8  C   UNL     1      13.153  -4.043  -1.655  0.00  0.00    +0.000 A 
ATOM      9  N   UNL     1      13.856  -5.141  -2.043  0.00  0.00    +0.000 NA
ATOM     10  C   UNL     1      14.650  -4.993  -3.125  0.00  0.00    +0.000 A 
ATOM     11  C   UNL     1      14.770  -3.806  -3.821  0.00  0.00    +0.000 A 
ATOM     12  F   UNL     1      15.571  -3.716  -4.889  0.00  0.00    +0.000 F 
ATOM     13  C   UNL     1      14.036  -2.702  -3.404  0.00  0.00    +0.000 A 
ENDBRANCH   5   7
BRANCH   1  14
ATOM     14  C   UNL     1       8.745  -1.021  -0.703  0.00  0.00    +0.000 C 
BRANCH  14  15
ATOM     15  N   UNL     1       8.622  -1.882   0.452  0.00  0.00    +0.000 N 
ATOM     16  H   UNL     1       9.153  -1.642   1.284  0.00  0.00    +0.000 HD
BRANCH  15  20
ATOM     17  C   UNL     1       5.408  -4.252   1.359  0.00  0.00    +0.000 A 
ATOM     18  C   UNL     1       6.431  -4.005   2.256  0.00  0.00    +0.000 A 
ATOM     19  N   UNL     1       7.482  -3.190   1.971  0.00  0.00    +0.000 NA
ATOM     20  C   UNL     1       7.510  -2.634   0.740  0.00  0.00    +0.000 A 
ATOM     21  C   UNL     1       6.474  -2.913  -0.160  0.00  0.00    +0.000 A 
ATOM     22  N   UNL     1       5.404  -3.705   0.125  0.00  0.00    +0.000 NA
BRANCH  17  24
ATOM     23  N   UNL     1       3.404  -5.763   2.025  0.00  0.00    +0.000 NA
ATOM     24  C   UNL     1       4.299  -5.085   1.709  0.00  0.00    +0.000 C 
ENDBRANCH  17  24
ENDBRANCH  15  20
ENDBRANCH  14  15
ENDBRANCH   1  14
TORSDOF 5
