REMARK  Name = 
REMARK  4 active torsions:
REMARK  status: ('A' for Active; 'I' for Inactive)
REMARK    1  A    between atoms: N_1  and  C_2
REMARK    2  A    between atoms: C_2  and  C_3
REMARK    3  A    between atoms: C_6  and  C_7
REMARK    4  A    between atoms: C_7  and  N_8
REMARK                            x       y       z     vdW  Elec       q    Type
REMARK                         _______ _______ _______ _____ _____    ______ ____
ROOT
ATOM      1  C   UNL     1       3.131  -1.333  -0.108  0.00  0.00    +0.000 A 
ATOM      2  C   UNL     1       2.956  -1.821   1.181  0.00  0.00    +0.000 A 
ATOM      3  C   UNL     1       3.376  -3.116   1.477  0.00  0.00    +0.000 A 
ATOM      4  C   UNL     1       3.966  -3.901   0.483  0.00  0.00    +0.000 A 
ATOM      5  C   UNL     1       4.128  -3.314  -0.769  0.00  0.00    +0.000 A 
ATOM      6  N   UNL     1       3.723  -2.063  -1.085  0.00  0.00    +0.000 NA
ENDROOT
BRANCH   1   7
ATOM      7  C   UNL     1       2.660   0.061  -0.474  0.00  0.00    +0.000 C 
BRANCH   7   8
ATOM      8  N   UNL     1       3.300   1.110   0.328  0.00  0.00    +0.000 NA
ATOM      9  H   UNL     1       3.105   2.010  -0.111  0.00  0.00    +0.000 HD
ATOM     10  H   UNL     1       4.310   0.983   0.258  0.00  0.00    +0.000 HD
ENDBRANCH   7   8
ENDBRANCH   1   7
BRANCH   4  11
ATOM     11  C   UNL     1       4.401  -5.318   0.739  0.00  0.00    +0.000 C 
BRANCH  11  12
ATOM     12  N   UNL     1       5.790  -5.398   1.175  0.00  0.00    +0.000 N 
ATOM     13  C   UNL     1       6.856  -5.574   0.327  0.00  0.00    +0.000 A 
ATOM     14  C   UNL     1       8.004  -5.585   1.085  0.00  0.00    +0.000 A 
ATOM     15  C   UNL     1       7.626  -5.436   2.446  0.00  0.00    +0.000 A 
ATOM     16  C   UNL     1       8.350  -5.365   3.653  0.00  0.00    +0.000 A 
ATOM     17  C   UNL     1       7.662  -5.225   4.862  0.00  0.00    +0.000 A 
ATOM     18  C   UNL     1       6.271  -5.181   4.883  0.00  0.00    +0.000 A 
ATOM     19  C   UNL     1       5.531  -5.256   3.700  0.00  0.00    +0.000 A 
ATOM     20  C   UNL     1       6.230  -5.361   2.485  0.00  0.00    +0.000 A 
ENDBRANCH  11  12
ENDBRANCH   4  11
TORSDOF 4
