REMARK  Name = 
REMARK  9 active torsions:
REMARK  status: ('A' for Active; 'I' for Inactive)
REMARK    1  A    between atoms: C_1  and  O_2
REMARK    2  A    between atoms: O_2  and  C_3
REMARK    3  A    between atoms: C_6  and  N_7
REMARK    4  A    between atoms: C_11  and  C_12
REMARK    5  A    between atoms: C_11  and  C_13
REMARK    6  A    between atoms: C_14  and  C_15
REMARK    7  A    between atoms: C_15  and  N_16
REMARK    8  A    between atoms: N_16  and  C_17
REMARK    9  A    between atoms: C_20  and  C_21
REMARK                            x       y       z     vdW  Elec       q    Type
REMARK                         _______ _______ _______ _____ _____    ______ ____
ROOT
ATOM      1  N   UNL     1       5.133   4.413  -1.745  0.00  0.00    +0.000 N 
ATOM      2  C   UNL     1       5.603   5.448  -0.826  0.00  0.00    +0.000 C 
ATOM      3  C   UNL     1       6.990   5.886  -1.281  0.00  0.00    +0.000 C 
ATOM      4  C   UNL     1       6.961   6.372  -2.724  0.00  0.00    +0.000 C 
ATOM      5  C   UNL     1       6.338   5.348  -3.716  0.00  0.00    +0.000 C 
ATOM      6  C   UNL     1       7.282   4.140  -3.900  0.00  0.00    +0.000 C 
ATOM      7  C   UNL     1       6.239   6.077  -5.077  0.00  0.00    +0.000 C 
ATOM      8  C   UNL     1       4.931   4.869  -3.174  0.00  0.00    +0.000 C 
ENDROOT
BRANCH   1  12
ATOM      9  C   UNL     1       3.022   1.112  -0.360  0.00  0.00    +0.000 A 
ATOM     10  C   UNL     1       2.898   2.293   0.362  0.00  0.00    +0.000 A 
ATOM     11  C   UNL     1       3.607   3.425  -0.083  0.00  0.00    +0.000 A 
ATOM     12  C   UNL     1       4.426   3.351  -1.210  0.00  0.00    +0.000 A 
ATOM     13  C   UNL     1       4.517   2.080  -1.777  0.00  0.00    +0.000 A 
ATOM     14  N   UNL     1       3.812   0.990  -1.434  0.00  0.00    +0.000 NA
BRANCH   9  16
ATOM     15  C   UNL     1       2.515  -1.100  -0.837  0.00  0.00    +0.000 C 
ATOM     16  O   UNL     1       2.314   0.004   0.046  0.00  0.00    +0.000 OA
ENDBRANCH   9  16
ENDBRANCH   1  12
BRANCH   8  17
ATOM     17  C   UNL     1       4.237   3.848  -4.145  0.00  0.00    +0.000 C 
BRANCH  17  18
ATOM     18  N   UNL     1       2.882   3.473  -3.727  0.00  0.00    +0.000 N 
ATOM     19  H   UNL     1       2.717   2.470  -3.648  0.00  0.00    +0.000 HD
BRANCH  18  20
ATOM     20  C   UNL     1       1.775   4.177  -4.142  0.00  0.00    +0.000 A 
ATOM     21  C   UNL     1       1.900   5.337  -4.915  0.00  0.00    +0.000 A 
ATOM     22  C   UNL     1       0.786   6.036  -5.348  0.00  0.00    +0.000 A 
ATOM     23  C   UNL     1      -0.484   5.627  -4.965  0.00  0.00    +0.000 A 
ATOM     24  C   UNL     1      -0.640   4.503  -4.142  0.00  0.00    +0.000 A 
ATOM     25  C   UNL     1       0.494   3.798  -3.721  0.00  0.00    +0.000 A 
BRANCH  23  26
ATOM     26  C   UNL     1      -1.606   6.440  -5.464  0.00  0.00    +0.000 C 
ATOM     27  N   UNL     1      -2.822   5.833  -5.598  0.00  0.00    +0.000 N 
ATOM     28  O   UNL     1      -1.461   7.616  -5.783  0.00  0.00    +0.000 OA
ATOM     29  H   UNL     1      -2.974   4.840  -5.475  0.00  0.00    +0.000 HD
ATOM     30  H   UNL     1      -3.568   6.390  -6.006  0.00  0.00    +0.000 HD
ENDBRANCH  23  26
ENDBRANCH  18  20
ENDBRANCH  17  18
ENDBRANCH   8  17
TORSDOF 6
