REMARK  Name = 
REMARK  5 active torsions:
REMARK  status: ('A' for Active; 'I' for Inactive)
REMARK    1  A    between atoms: C_1  and  C_2
REMARK    2  A    between atoms: C_2  and  O_3
REMARK    3  A    between atoms: C_2  and  C_13
REMARK    4  A    between atoms: O_3  and  C_4
REMARK    5  A    between atoms: C_7  and  C_8
REMARK                            x       y       z     vdW  Elec       q    Type
REMARK                         _______ _______ _______ _____ _____    ______ ____
ROOT
ATOM      1  C   UNL     1       0.449  -0.488  -1.129  0.00  0.00    +0.000 A 
ATOM      2  C   UNL     1       0.892  -1.454  -2.025  0.00  0.00    +0.000 A 
ATOM      3  C   UNL     1       0.102  -1.776  -3.132  0.00  0.00    +0.000 A 
ATOM      4  C   UNL     1      -1.116  -1.125  -3.292  0.00  0.00    +0.000 A 
ATOM      5  N   UNL     1      -1.587  -0.182  -2.432  0.00  0.00    +0.000 NA
ATOM      6  C   UNL     1      -0.791   0.101  -1.374  0.00  0.00    +0.000 A 
ENDROOT
BRANCH   4   7
ATOM      7  C   UNL     1      -2.002  -1.476  -4.448  0.00  0.00    +0.000 C 
ATOM      8  N   UNL     1      -3.189  -0.796  -4.504  0.00  0.00    +0.000 N 
ATOM      9  O   UNL     1      -1.697  -2.316  -5.285  0.00  0.00    +0.000 OA
ATOM     10  H   UNL     1      -3.413  -0.122  -3.781  0.00  0.00    +0.000 HD
ATOM     11  H   UNL     1      -3.847  -0.998  -5.241  0.00  0.00    +0.000 HD
ENDBRANCH   4   7
BRANCH   1  12
ATOM     12  O   UNL     1       1.074  -0.098   0.015  0.00  0.00    +0.000 OA
BRANCH  12  14
ATOM     13  C   UNL     1       3.002   1.245   0.365  0.00  0.00    +0.000 C 
ATOM     14  C   UNL     1       2.506  -0.175   0.090  0.00  0.00    +0.000 C 
BRANCH  14  15
ATOM     15  C   UNL     1       2.924  -1.113   1.212  0.00  0.00    +0.000 A 
ATOM     16  C   UNL     1       2.129  -1.286   2.359  0.00  0.00    +0.000 A 
ATOM     17  C   UNL     1       2.536  -2.134   3.393  0.00  0.00    +0.000 A 
ATOM     18  C   UNL     1       3.747  -2.815   3.303  0.00  0.00    +0.000 A 
ATOM     19  C   UNL     1       4.549  -2.644   2.176  0.00  0.00    +0.000 A 
ATOM     20 CL   UNL     1       6.051  -3.478   2.066  0.00  0.00    +0.000 Cl
ATOM     21  C   UNL     1       4.147  -1.800   1.138  0.00  0.00    +0.000 A 
ENDBRANCH  14  15
ENDBRANCH  12  14
ENDBRANCH   1  12
TORSDOF 4
