REMARK  Name = 
REMARK  5 active torsions:
REMARK  status: ('A' for Active; 'I' for Inactive)
REMARK    1  A    between atoms: C_2  and  C_4
REMARK    2  A    between atoms: C_7  and  O_8
REMARK    3  A    between atoms: O_8  and  C_9
REMARK    4  A    between atoms: C_9  and  C_10
REMARK    5  A    between atoms: C_14  and  C_15
REMARK                            x       y       z     vdW  Elec       q    Type
REMARK                         _______ _______ _______ _____ _____    ______ ____
ROOT
ATOM      1  C   UNL     1       5.717   6.967  -1.328  0.00  0.00    +0.000 A 
ATOM      2  C   UNL     1       5.214   8.271  -1.335  0.00  0.00    +0.000 A 
ATOM      3  C   UNL     1       6.040   9.335  -1.684  0.00  0.00    +0.000 A 
ATOM      4  C   UNL     1       7.373   9.105  -2.034  0.00  0.00    +0.000 A 
ATOM      5  C   UNL     1       7.919   7.808  -2.042  0.00  0.00    +0.000 A 
ATOM      6  C   UNL     1       7.057   6.748  -1.701  0.00  0.00    +0.000 A 
ENDROOT
BRANCH   5   7
ATOM      7  C   UNL     1       9.352   7.574  -2.354  0.00  0.00    +0.000 A 
ATOM      8  C   UNL     1       9.786   6.407  -3.016  0.00  0.00    +0.000 A 
ATOM      9  C   UNL     1      11.140   6.183  -3.296  0.00  0.00    +0.000 A 
ATOM     10  C   UNL     1      12.083   7.131  -2.926  0.00  0.00    +0.000 A 
ATOM     11  F   UNL     1      13.377   6.920  -3.203  0.00  0.00    +0.000 F 
ATOM     12  C   UNL     1      11.685   8.287  -2.274  0.00  0.00    +0.000 A 
ATOM     13  F   UNL     1      12.592   9.206  -1.913  0.00  0.00    +0.000 F 
ATOM     14  C   UNL     1      10.340   8.508  -1.982  0.00  0.00    +0.000 A 
ENDBRANCH   5   7
BRANCH   1  15
ATOM     15  C   UNL     1       4.862   5.821  -0.838  0.00  0.00    +0.000 C 
BRANCH  15  16
ATOM     16  O   UNL     1       4.020   5.310  -1.876  0.00  0.00    +0.000 OA
BRANCH  16  20
ATOM     17  C   UNL     1       1.687   2.183  -0.522  0.00  0.00    +0.000 A 
ATOM     18  C   UNL     1       1.591   2.588  -1.856  0.00  0.00    +0.000 A 
ATOM     19  C   UNL     1       2.378   3.652  -2.307  0.00  0.00    +0.000 A 
ATOM     20  C   UNL     1       3.235   4.269  -1.408  0.00  0.00    +0.000 A 
ATOM     21  N   UNL     1       3.334   3.901  -0.112  0.00  0.00    +0.000 NA
ATOM     22  C   UNL     1       2.555   2.878   0.305  0.00  0.00    +0.000 A 
BRANCH  17  24
ATOM     23  N   UNL     1       0.522   0.067  -0.775  0.00  0.00    +0.000 N 
ATOM     24  C   UNL     1       0.914   1.070   0.065  0.00  0.00    +0.000 C 
ATOM     25  O   UNL     1       0.673   1.021   1.265  0.00  0.00    +0.000 OA
ATOM     26  H   UNL     1       0.107  -0.744  -0.333  0.00  0.00    +0.000 HD
ATOM     27  H   UNL     1       0.915  -0.056  -1.697  0.00  0.00    +0.000 HD
ENDBRANCH  17  24
ENDBRANCH  16  20
ENDBRANCH  15  16
ENDBRANCH   1  15
TORSDOF 5
