REMARK  Name = 
REMARK  4 active torsions:
REMARK  status: ('A' for Active; 'I' for Inactive)
REMARK    1  A    between atoms: C_2  and  C_4
REMARK    2  A    between atoms: N_8  and  C_9
REMARK    3  A    between atoms: C_9  and  C_10
REMARK    4  A    between atoms: C_14  and  C_15
REMARK                            x       y       z     vdW  Elec       q    Type
REMARK                         _______ _______ _______ _____ _____    ______ ____
ROOT
ATOM      1  C   UNL     1       5.392  -5.522   1.538  0.00  0.00    +0.000 C 
ATOM      2  C   UNL     1       5.547  -6.368   0.287  0.00  0.00    +0.000 C 
ATOM      3  C   UNL     1       4.284  -6.449   1.081  0.00  0.00    +0.000 C 
ENDROOT
BRANCH   1   8
ATOM      4  C   UNL     1       3.094  -1.026   2.909  0.00  0.00    +0.000 A 
ATOM      5  C   UNL     1       2.720  -2.334   3.210  0.00  0.00    +0.000 A 
ATOM      6  C   UNL     1       3.484  -3.395   2.709  0.00  0.00    +0.000 A 
ATOM      7  C   UNL     1       4.603  -3.122   1.931  0.00  0.00    +0.000 A 
ATOM      8  N   UNL     1       5.355  -4.085   1.272  0.00  0.00    +0.000 N 
ATOM      9  N   UNL     1       4.996  -1.857   1.673  0.00  0.00    +0.000 NA
ATOM     10  C   UNL     1       4.234  -0.842   2.146  0.00  0.00    +0.000 A 
ATOM     11  H   UNL     1       6.187  -3.631   0.909  0.00  0.00    +0.000 HD
BRANCH   4  13
ATOM     12  N   UNL     1       1.517   0.077   4.407  0.00  0.00    +0.000 N 
ATOM     13  C   UNL     1       2.314   0.169   3.300  0.00  0.00    +0.000 C 
ATOM     14  O   UNL     1       2.399   1.216   2.671  0.00  0.00    +0.000 OA
ATOM     15  H   UNL     1       1.080   0.937   4.712  0.00  0.00    +0.000 HD
ATOM     16  H   UNL     1       1.619  -0.665   5.082  0.00  0.00    +0.000 HD
ENDBRANCH   4  13
ENDBRANCH   1   8
BRANCH   1  17
ATOM     17  C   UNL     1       6.156  -5.864   2.809  0.00  0.00    +0.000 A 
ATOM     18  C   UNL     1       7.534  -5.628   2.919  0.00  0.00    +0.000 A 
ATOM     19  C   UNL     1       8.178  -5.680   4.155  0.00  0.00    +0.000 A 
ATOM     20  C   UNL     1       7.453  -5.981   5.309  0.00  0.00    +0.000 A 
ATOM     21  C   UNL     1       6.083  -6.282   5.249  0.00  0.00    +0.000 A 
ATOM     22  C   UNL     1       5.474  -6.249   3.979  0.00  0.00    +0.000 A 
BRANCH  21  23
ATOM     23  C   UNL     1       5.283  -6.541   6.463  0.00  0.00    +0.000 A 
ATOM     24  N   UNL     1       5.838  -6.273   7.663  0.00  0.00    +0.000 NA
ATOM     25  C   UNL     1       5.052  -6.421   8.739  0.00  0.00    +0.000 A 
ATOM     26  C   UNL     1       3.739  -6.831   8.676  0.00  0.00    +0.000 A 
ATOM     27  C   UNL     1       3.265  -7.086   7.411  0.00  0.00    +0.000 A 
ATOM     28  N   UNL     1       4.005  -6.945   6.297  0.00  0.00    +0.000 NA
ENDBRANCH  21  23
ENDBRANCH   1  17
TORSDOF 4
