REMARK  Name = 
REMARK  6 active torsions:
REMARK  status: ('A' for Active; 'I' for Inactive)
REMARK    1  A    between atoms: C_2  and  C_25
REMARK    2  A    between atoms: N_3  and  C_4
REMARK    3  A    between atoms: C_4  and  C_5
REMARK    4  A    between atoms: C_8  and  C_9
REMARK    5  A    between atoms: C_9  and  N_10
REMARK    6  A    between atoms: C_11  and  C_13
REMARK                            x       y       z     vdW  Elec       q    Type
REMARK                         _______ _______ _______ _____ _____    ______ ____
ROOT
ATOM      1  C   UNL     1       3.226   2.346  -2.902  0.00  0.00    +0.000 A 
ATOM      2  C   UNL     1       3.055   3.727  -2.982  0.00  0.00    +0.000 A 
ATOM      3  C   UNL     1       3.874   4.460  -3.839  0.00  0.00    +0.000 A 
ATOM      4  C   UNL     1       4.854   3.809  -4.590  0.00  0.00    +0.000 A 
ATOM      5  C   UNL     1       4.942   2.428  -4.456  0.00  0.00    +0.000 A 
ATOM      6  N   UNL     1       4.156   1.687  -3.638  0.00  0.00    +0.000 NA
ENDROOT
BRANCH   1   7
ATOM      7  C   UNL     1       2.319   1.518  -2.021  0.00  0.00    +0.000 C 
BRANCH   7  10
ATOM      8  O   UNL     1      -0.142   2.900  -2.082  0.00  0.00    +0.000 OA
ATOM      9  C   UNL     1      -0.025   1.852  -2.707  0.00  0.00    +0.000 C 
ATOM     10  N   UNL     1       1.123   1.099  -2.714  0.00  0.00    +0.000 N 
ATOM     11  H   UNL     1       1.177   0.338  -3.384  0.00  0.00    +0.000 HD
BRANCH   9  12
ATOM     12  C   UNL     1      -1.111   1.286  -3.513  0.00  0.00    +0.000 A 
ATOM     13  C   UNL     1      -2.346   1.895  -3.657  0.00  0.00    +0.000 A 
ATOM     14  S   UNL     1      -3.379   0.930  -4.623  0.00  0.00    +0.000 S 
ATOM     15  C   UNL     1      -2.118  -0.221  -4.785  0.00  0.00    +0.000 A 
ATOM     16  N   UNL     1      -0.983   0.067  -4.186  0.00  0.00    +0.000 NA
ENDBRANCH   9  12
ENDBRANCH   7  10
ENDBRANCH   1   7
BRANCH   4  17
ATOM     17  C   UNL     1       5.742   4.558  -5.539  0.00  0.00    +0.000 C 
BRANCH  17  18
ATOM     18  N   UNL     1       5.161   4.635  -6.855  0.00  0.00    +0.000 N 
ATOM     19  C   UNL     1       5.852   5.175  -7.910  0.00  0.00    +0.000 C 
ATOM     20  O   UNL     1       7.008   5.574  -7.794  0.00  0.00    +0.000 OA
ATOM     21  H   UNL     1       4.149   4.551  -6.919  0.00  0.00    +0.000 HD
BRANCH  19  22
ATOM     22  C   UNL     1       5.160   5.194  -9.206  0.00  0.00    +0.000 A 
ATOM     23  C   UNL     1       5.897   5.223 -10.384  0.00  0.00    +0.000 A 
ATOM     24  S   UNL     1       4.936   5.189 -11.792  0.00  0.00    +0.000 S 
ATOM     25  C   UNL     1       3.501   5.191 -10.879  0.00  0.00    +0.000 A 
ATOM     26  N   UNL     1       2.283   5.196 -11.486  0.00  0.00    +0.000 NA
ATOM     27  C   UNL     1       1.281   5.231 -10.673  0.00  0.00    +0.000 A 
ATOM     28  N   UNL     1       1.385   5.254  -9.306  0.00  0.00    +0.000 N 
ATOM     29  C   UNL     1       2.591   5.215  -8.649  0.00  0.00    +0.000 A 
ATOM     30  O   UNL     1       2.649   5.183  -7.424  0.00  0.00    +0.000 OA
ATOM     31  C   UNL     1       3.751   5.194  -9.518  0.00  0.00    +0.000 A 
ATOM     32  H   UNL     1       0.561   5.270  -8.724  0.00  0.00    +0.000 HD
ENDBRANCH  19  22
ENDBRANCH  17  18
ENDBRANCH   4  17
TORSDOF 6
