REMARK  Name = 
REMARK  7 active torsions:
REMARK  status: ('A' for Active; 'I' for Inactive)
REMARK    1  A    between atoms: C_1  and  C_2
REMARK    2  A    between atoms: C_7  and  C_8
REMARK    3  A    between atoms: N_10  and  C_11
REMARK    4  A    between atoms: C_11  and  C_12
REMARK    5  A    between atoms: C_15  and  C_16
REMARK    6  A    between atoms: C_16  and  N_17
REMARK    7  A    between atoms: C_18  and  C_20
REMARK                            x       y       z     vdW  Elec       q    Type
REMARK                         _______ _______ _______ _____ _____    ______ ____
ROOT
ATOM      1  C   UNL     1       2.142  -5.080  -0.121  0.00  0.00    +0.000 A 
ATOM      2  C   UNL     1       0.796  -4.884  -0.459  0.00  0.00    +0.000 A 
ATOM      3  C   UNL     1      -0.106  -5.953  -0.460  0.00  0.00    +0.000 A 
ATOM      4  C   UNL     1       0.315  -7.245  -0.120  0.00  0.00    +0.000 A 
ATOM      5  C   UNL     1       1.674  -7.458   0.147  0.00  0.00    +0.000 A 
ATOM      6  C   UNL     1       2.576  -6.384   0.159  0.00  0.00    +0.000 A 
ENDROOT
BRANCH   1   7
ATOM      7  C   UNL     1       3.062  -3.892   0.042  0.00  0.00    +0.000 C 
BRANCH   7  10
ATOM      8  C   UNL     1       3.665  -2.259   1.823  0.00  0.00    +0.000 C 
ATOM      9  O   UNL     1       4.399  -1.609   1.087  0.00  0.00    +0.000 OA
ATOM     10  N   UNL     1       2.941  -3.354   1.384  0.00  0.00    +0.000 N 
ATOM     11  H   UNL     1       2.443  -3.920   2.055  0.00  0.00    +0.000 HD
BRANCH   8  18
ATOM     12  C   UNL     1       5.915  -1.032   3.462  0.00  0.00    +0.000 C 
ATOM     13  C   UNL     1       4.600  -1.454   4.060  0.00  0.00    +0.000 A 
ATOM     14  C   UNL     1       4.432  -1.313   5.452  0.00  0.00    +0.000 A 
ATOM     15  C   UNL     1       3.220  -1.628   6.067  0.00  0.00    +0.000 A 
ATOM     16  C   UNL     1       2.142  -2.045   5.296  0.00  0.00    +0.000 A 
ATOM     17  C   UNL     1       2.291  -2.196   3.916  0.00  0.00    +0.000 A 
ATOM     18  C   UNL     1       3.526  -1.948   3.288  0.00  0.00    +0.000 A 
ENDBRANCH   8  18
ENDBRANCH   7  10
ENDBRANCH   1   7
BRANCH   4  19
ATOM     19  C   UNL     1      -0.680  -8.376  -0.044  0.00  0.00    +0.000 C 
BRANCH  19  20
ATOM     20  N   UNL     1      -0.853  -9.028  -1.316  0.00  0.00    +0.000 N 
ATOM     21  C   UNL     1      -1.844  -9.960  -1.500  0.00  0.00    +0.000 C 
ATOM     22  O   UNL     1      -2.645 -10.241  -0.612  0.00  0.00    +0.000 OA
ATOM     23  H   UNL     1      -0.080  -8.980  -1.972  0.00  0.00    +0.000 HD
BRANCH  21  24
ATOM     24  C   UNL     1      -1.945 -10.566  -2.834  0.00  0.00    +0.000 A 
ATOM     25  C   UNL     1      -3.151 -11.115  -3.248  0.00  0.00    +0.000 A 
ATOM     26  S   UNL     1      -3.113 -11.742  -4.833  0.00  0.00    +0.000 S 
ATOM     27  C   UNL     1      -1.468 -11.346  -5.006  0.00  0.00    +0.000 A 
ATOM     28  N   UNL     1      -0.795 -11.648  -6.149  0.00  0.00    +0.000 NA
ATOM     29  C   UNL     1       0.453 -11.318  -6.135  0.00  0.00    +0.000 A 
ATOM     30  N   UNL     1       1.087 -10.706  -5.084  0.00  0.00    +0.000 N 
ATOM     31  C   UNL     1       0.443 -10.356  -3.921  0.00  0.00    +0.000 A 
ATOM     32  O   UNL     1       1.026  -9.771  -3.017  0.00  0.00    +0.000 OA
ATOM     33  C   UNL     1      -0.961 -10.722  -3.879  0.00  0.00    +0.000 A 
ATOM     34  H   UNL     1       2.065 -10.468  -5.140  0.00  0.00    +0.000 HD
ENDBRANCH  21  24
ENDBRANCH  19  20
ENDBRANCH   4  19
TORSDOF 6
