REMARK  Name = 
REMARK  7 active torsions:
REMARK  status: ('A' for Active; 'I' for Inactive)
REMARK    1  A    between atoms: C_1  and  C_2
REMARK    2  A    between atoms: C_2  and  N_3
REMARK    3  A    between atoms: C_2  and  C_16
REMARK    4  A    between atoms: C_4  and  C_6
REMARK    5  A    between atoms: C_19  and  O_20
REMARK    6  A    between atoms: O_20  and  C_21
REMARK    7  A    between atoms: C_21  and  C_22
REMARK                            x       y       z     vdW  Elec       q    Type
REMARK                         _______ _______ _______ _____ _____    ______ ____
ROOT
ATOM      1  C   UNL     1       1.756  -1.328  -0.114  0.00  0.00    +0.000 C 
ATOM      2  C   UNL     1       2.431   0.049  -0.144  0.00  0.00    +0.000 C 
ENDROOT
BRANCH   2   3
ATOM      3  C   UNL     1       2.786   0.569   1.238  0.00  0.00    +0.000 A 
ATOM      4  C   UNL     1       2.765   1.949   1.498  0.00  0.00    +0.000 A 
ATOM      5  C   UNL     1       3.059   2.438   2.774  0.00  0.00    +0.000 A 
ATOM      6  C   UNL     1       3.376   1.554   3.806  0.00  0.00    +0.000 A 
ATOM      7  C   UNL     1       3.491   0.192   3.532  0.00  0.00    +0.000 A 
ATOM      8  C   UNL     1       3.196  -0.294   2.262  0.00  0.00    +0.000 A 
BRANCH   6   9
ATOM      9  O   UNL     1       3.545   2.107   5.048  0.00  0.00    +0.000 OA
BRANCH   9  10
ATOM     10  C   UNL     1       3.341   1.189   6.131  0.00  0.00    +0.000 C 
BRANCH  10  11
ATOM     11  C   UNL     1       3.003   1.926   7.399  0.00  0.00    +0.000 A 
ATOM     12  C   UNL     1       1.909   2.789   7.430  0.00  0.00    +0.000 A 
ATOM     13  C   UNL     1       1.573   3.402   8.631  0.00  0.00    +0.000 A 
ATOM     14  C   UNL     1       2.331   3.137   9.765  0.00  0.00    +0.000 A 
ATOM     15  C   UNL     1       3.398   2.263   9.651  0.00  0.00    +0.000 A 
ATOM     16  N   UNL     1       3.747   1.648   8.499  0.00  0.00    +0.000 NA
ENDBRANCH  10  11
ENDBRANCH   9  10
ENDBRANCH   6   9
ENDBRANCH   2   3
BRANCH   2  17
ATOM     17  N   UNL     1       3.639   0.011  -0.939  0.00  0.00    +0.000 N 
ATOM     18  C   UNL     1       3.649   0.160  -2.299  0.00  0.00    +0.000 C 
ATOM     19  O   UNL     1       2.635   0.389  -2.949  0.00  0.00    +0.000 OA
ATOM     20  H   UNL     1       4.471  -0.331  -0.471  0.00  0.00    +0.000 HD
BRANCH  18  21
ATOM     21  C   UNL     1       4.974   0.110  -2.926  0.00  0.00    +0.000 A 
ATOM     22  C   UNL     1       5.213   0.811  -4.100  0.00  0.00    +0.000 A 
ATOM     23  S   UNL     1       6.825   0.695  -4.644  0.00  0.00    +0.000 S 
ATOM     24  C   UNL     1       7.243  -0.342  -3.361  0.00  0.00    +0.000 A 
ATOM     25  N   UNL     1       8.506  -0.837  -3.241  0.00  0.00    +0.000 NA
ATOM     26  C   UNL     1       8.669  -1.642  -2.246  0.00  0.00    +0.000 A 
ATOM     27  N   UNL     1       7.690  -1.996  -1.356  0.00  0.00    +0.000 N 
ATOM     28  C   UNL     1       6.411  -1.489  -1.410  0.00  0.00    +0.000 A 
ATOM     29  O   UNL     1       5.576  -1.772  -0.559  0.00  0.00    +0.000 OA
ATOM     30  C   UNL     1       6.171  -0.587  -2.523  0.00  0.00    +0.000 A 
ATOM     31  H   UNL     1       7.887  -2.624  -0.591  0.00  0.00    +0.000 HD
ENDBRANCH  18  21
ENDBRANCH   2  17
TORSDOF 6
