REMARK  Name = 
REMARK  7 active torsions:
REMARK  status: ('A' for Active; 'I' for Inactive)
REMARK    1  A    between atoms: C_1  and  C_2
REMARK    2  A    between atoms: C_2  and  N_3
REMARK    3  A    between atoms: C_2  and  C_17
REMARK    4  A    between atoms: C_4  and  C_6
REMARK    5  A    between atoms: N_12  and  C_13
REMARK    6  A    between atoms: C_20  and  O_21
REMARK    7  A    between atoms: O_21  and  C_22
REMARK                            x       y       z     vdW  Elec       q    Type
REMARK                         _______ _______ _______ _____ _____    ______ ____
ROOT
ATOM      1  C   UNL     1       2.964   1.202   0.928  0.00  0.00    +0.000 C 
ATOM      2  C   UNL     1       2.516   0.013   0.073  0.00  0.00    +0.000 C 
ENDROOT
BRANCH   2   3
ATOM      3  C   UNL     1       3.050  -1.335   0.536  0.00  0.00    +0.000 A 
ATOM      4  C   UNL     1       3.200  -2.354  -0.420  0.00  0.00    +0.000 A 
ATOM      5  C   UNL     1       3.646  -3.624  -0.054  0.00  0.00    +0.000 A 
ATOM      6  C   UNL     1       4.008  -3.886   1.268  0.00  0.00    +0.000 A 
ATOM      7  C   UNL     1       3.807  -2.905   2.238  0.00  0.00    +0.000 A 
ATOM      8  C   UNL     1       3.322  -1.642   1.878  0.00  0.00    +0.000 A 
BRANCH   6   9
ATOM      9  O   UNL     1       4.516  -5.089   1.706  0.00  0.00    +0.000 OA
BRANCH   9  10
ATOM     10  C   UNL     1       5.328  -5.827   0.870  0.00  0.00    +0.000 A 
ATOM     11  C   UNL     1       6.212  -5.269  -0.059  0.00  0.00    +0.000 A 
ATOM     12  C   UNL     1       6.950  -6.092  -0.910  0.00  0.00    +0.000 A 
ATOM     13  C   UNL     1       6.858  -7.477  -0.791  0.00  0.00    +0.000 A 
ATOM     14  C   UNL     1       6.036  -8.038   0.186  0.00  0.00    +0.000 A 
ATOM     15  C   UNL     1       5.272  -7.214   1.016  0.00  0.00    +0.000 A 
ENDBRANCH   9  10
ENDBRANCH   6   9
ENDBRANCH   2   3
BRANCH   2  16
ATOM     16  N   UNL     1       1.069  -0.053  -0.000  0.00  0.00    +0.000 N 
ATOM     17  C   UNL     1       0.330   0.746  -0.833  0.00  0.00    +0.000 C 
ATOM     18  O   UNL     1       0.848   1.597  -1.550  0.00  0.00    +0.000 OA
ATOM     19  H   UNL     1       0.624  -0.843   0.458  0.00  0.00    +0.000 HD
BRANCH  17  20
ATOM     20  C   UNL     1      -1.128   0.572  -0.785  0.00  0.00    +0.000 A 
ATOM     21  C   UNL     1      -1.953   1.617  -1.181  0.00  0.00    +0.000 A 
ATOM     22  S   UNL     1      -3.615   1.269  -1.035  0.00  0.00    +0.000 S 
ATOM     23  C   UNL     1      -3.291  -0.306  -0.478  0.00  0.00    +0.000 A 
ATOM     24  N   UNL     1      -4.306  -1.162  -0.189  0.00  0.00    +0.000 NA
ATOM     25  C   UNL     1      -3.921  -2.333   0.208  0.00  0.00    +0.000 A 
ATOM     26  N   UNL     1      -2.612  -2.739   0.344  0.00  0.00    +0.000 N 
ATOM     27  C   UNL     1      -2.296  -4.075   0.813  0.00  0.00    +0.000 C 
ATOM     28  C   UNL     1      -1.549  -1.877   0.076  0.00  0.00    +0.000 A 
ATOM     29  O   UNL     1      -0.378  -2.203   0.246  0.00  0.00    +0.000 OA
ATOM     30  C   UNL     1      -1.937  -0.556  -0.382  0.00  0.00    +0.000 A 
ENDBRANCH  17  20
ENDBRANCH   2  16
TORSDOF 5
