REMARK  Name = 
REMARK  10 active torsions:
REMARK  status: ('A' for Active; 'I' for Inactive)
REMARK    1  A    between atoms: C_1  and  C_2
REMARK    2  A    between atoms: C_2  and  N_3
REMARK    3  A    between atoms: C_2  and  C_19
REMARK    4  A    between atoms: N_3  and  C_4
REMARK    5  A    between atoms: C_4  and  C_5
REMARK    6  A    between atoms: C_8  and  C_9
REMARK    7  A    between atoms: C_9  and  O_10
REMARK    8  A    between atoms: C_9  and  C_11
REMARK    9  A    between atoms: C_11  and  N_12
REMARK   10  A    between atoms: C_19  and  C_21
REMARK                            x       y       z     vdW  Elec       q    Type
REMARK                         _______ _______ _______ _____ _____    ______ ____
ROOT
ATOM      1  N   UNL     1      -5.875   2.614  -4.456  0.00  0.00    +0.000 NA
ATOM      2  H   UNL     1      -5.001   2.227  -4.828  0.00  0.00    +0.000 HD
ENDROOT
BRANCH   1   4
ATOM      3  C   UNL     1      -5.842   4.473  -6.024  0.00  0.00    +0.000 C 
ATOM      4  C   UNL     1      -6.619   3.238  -5.579  0.00  0.00    +0.000 C 
BRANCH   4   5
ATOM      5  C   UNL     1      -6.787   2.246  -6.759  0.00  0.00    +0.000 C 
ATOM      6  O   UNL     1      -5.876   1.475  -7.067  0.00  0.00    +0.000 OA
BRANCH   5   7
ATOM      7  C   UNL     1      -8.048   2.260  -7.517  0.00  0.00    +0.000 A 
ATOM      8  C   UNL     1      -8.773   3.414  -7.759  0.00  0.00    +0.000 A 
ATOM      9  S   UNL     1     -10.120   3.163  -8.780  0.00  0.00    +0.000 S 
ATOM     10  C   UNL     1      -9.783   1.500  -8.912  0.00  0.00    +0.000 A 
ATOM     11  N   UNL     1     -10.549   0.689  -9.689  0.00  0.00    +0.000 NA
ATOM     12  C   UNL     1     -10.169  -0.546  -9.698  0.00  0.00    +0.000 A 
ATOM     13  N   UNL     1      -9.114  -1.047  -8.978  0.00  0.00    +0.000 N 
ATOM     14  C   UNL     1      -8.395  -0.287  -8.080  0.00  0.00    +0.000 A 
ATOM     15  O   UNL     1      -7.656  -0.807  -7.250  0.00  0.00    +0.000 OA
ATOM     16  C   UNL     1      -8.697   1.132  -8.142  0.00  0.00    +0.000 A 
ATOM     17  H   UNL     1      -8.935  -2.041  -8.962  0.00  0.00    +0.000 HD
ENDBRANCH   5   7
ENDBRANCH   4   5
ENDBRANCH   1   4
BRANCH   1  18
ATOM     18  C   UNL     1      -6.643   1.521  -3.866  0.00  0.00    +0.000 C 
BRANCH  18  19
ATOM     19  C   UNL     1      -5.990   0.952  -2.640  0.00  0.00    +0.000 A 
ATOM     20  C   UNL     1      -5.714   1.729  -1.510  0.00  0.00    +0.000 A 
ATOM     21  C   UNL     1      -5.284   1.116  -0.334  0.00  0.00    +0.000 A 
ATOM     22  C   UNL     1      -5.141  -0.267  -0.326  0.00  0.00    +0.000 A 
ATOM     23  N   UNL     1      -5.334  -1.036  -1.433  0.00  0.00    +0.000 NA
ATOM     24  C   UNL     1      -5.747  -0.412  -2.555  0.00  0.00    +0.000 A 
BRANCH  22  25
ATOM     25  C   UNL     1      -4.870  -1.040   0.955  0.00  0.00    +0.000 C 
BRANCH  25  26
ATOM     26  O   UNL     1      -4.148  -2.227   0.592  0.00  0.00    +0.000 OA
ATOM     27  H   UNL     1      -4.351  -2.358  -0.359  0.00  0.00    +0.000 HD
ENDBRANCH  25  26
BRANCH  25  28
ATOM     28  C   UNL     1      -6.240  -1.425   1.586  0.00  0.00    +0.000 C 
BRANCH  28  29
ATOM     29  N   UNL     1      -6.316  -2.118   2.889  0.00  0.00    +0.000 NA
ATOM     30  C   UNL     1      -5.697  -3.444   2.880  0.00  0.00    +0.000 C 
ATOM     31  C   UNL     1      -4.290  -3.249   3.416  0.00  0.00    +0.000 C 
ATOM     32  O   UNL     1      -4.256  -1.945   4.013  0.00  0.00    +0.000 OA
ATOM     33  C   UNL     1      -5.581  -1.433   3.941  0.00  0.00    +0.000 C 
ENDBRANCH  28  29
ENDBRANCH  25  28
ENDBRANCH  22  25
ENDBRANCH  18  19
ENDBRANCH   1  18
TORSDOF 9
