REMARK  Name = 
REMARK  4 active torsions:
REMARK  status: ('A' for Active; 'I' for Inactive)
REMARK    1  A    between atoms: C_2  and  C_4
REMARK    2  A    between atoms: N_8  and  C_9
REMARK    3  A    between atoms: C_9  and  C_10
REMARK    4  A    between atoms: C_14  and  C_15
REMARK                            x       y       z     vdW  Elec       q    Type
REMARK                         _______ _______ _______ _____ _____    ______ ____
ROOT
ATOM      1  C   UNL     1       5.499  -4.644   3.601  0.00  0.00    +0.000 C 
ENDROOT
BRANCH   1   6
ATOM      2  C   UNL     1       0.865  -5.257   1.522  0.00  0.00    +0.000 A 
ATOM      3  C   UNL     1       2.108  -5.583   0.992  0.00  0.00    +0.000 A 
ATOM      4  C   UNL     1       3.239  -5.491   1.806  0.00  0.00    +0.000 A 
ATOM      5  C   UNL     1       3.115  -5.057   3.122  0.00  0.00    +0.000 A 
ATOM      6  N   UNL     1       4.167  -5.037   4.014  0.00  0.00    +0.000 N 
ATOM      7  N   UNL     1       1.918  -4.717   3.637  0.00  0.00    +0.000 NA
ATOM      8  C   UNL     1       0.822  -4.818   2.836  0.00  0.00    +0.000 A 
ATOM      9  H   UNL     1       3.841  -4.605   4.876  0.00  0.00    +0.000 HD
BRANCH   2  11
ATOM     10  N   UNL     1      -0.425  -6.256  -0.283  0.00  0.00    +0.000 N 
ATOM     11  C   UNL     1      -0.386  -5.350   0.742  0.00  0.00    +0.000 C 
ATOM     12  O   UNL     1      -1.363  -4.665   1.022  0.00  0.00    +0.000 OA
ATOM     13  H   UNL     1      -1.321  -6.380  -0.738  0.00  0.00    +0.000 HD
ATOM     14  H   UNL     1       0.248  -7.003  -0.374  0.00  0.00    +0.000 HD
ENDBRANCH   2  11
ENDBRANCH   1   6
BRANCH   1  15
ATOM     15  C   UNL     1       6.514  -5.276   4.514  0.00  0.00    +0.000 A 
ATOM     16  C   UNL     1       6.550  -6.658   4.676  0.00  0.00    +0.000 A 
ATOM     17  N   UNL     1       7.459  -7.306   5.431  0.00  0.00    +0.000 NA
ATOM     18  C   UNL     1       8.388  -6.542   6.055  0.00  0.00    +0.000 A 
ATOM     19  C   UNL     1       8.480  -5.149   5.967  0.00  0.00    +0.000 A 
ATOM     20  C   UNL     1       7.500  -4.528   5.170  0.00  0.00    +0.000 A 
BRANCH  19  21
ATOM     21  C   UNL     1       9.549  -4.377   6.643  0.00  0.00    +0.000 A 
ATOM     22  C   UNL     1       9.311  -3.076   7.135  0.00  0.00    +0.000 A 
ATOM     23  C   UNL     1      10.325  -2.318   7.737  0.00  0.00    +0.000 A 
ATOM     24  C   UNL     1      11.603  -2.850   7.876  0.00  0.00    +0.000 A 
ATOM     25  C   UNL     1      11.854  -4.134   7.416  0.00  0.00    +0.000 A 
ATOM     26  F   UNL     1      13.084  -4.649   7.555  0.00  0.00    +0.000 F 
ATOM     27  C   UNL     1      10.850  -4.886   6.808  0.00  0.00    +0.000 A 
ATOM     28  F   UNL     1      11.164  -6.112   6.360  0.00  0.00    +0.000 F 
ENDBRANCH  19  21
ENDBRANCH   1  15
TORSDOF 4
