REMARK  Name = 
REMARK  5 active torsions:
REMARK  status: ('A' for Active; 'I' for Inactive)
REMARK    1  A    between atoms: C_1  and  C_2
REMARK    2  A    between atoms: C_2  and  C_3
REMARK    3  A    between atoms: C_2  and  C_14
REMARK    4  A    between atoms: C_3  and  N_4
REMARK    5  A    between atoms: C_8  and  C_9
REMARK                            x       y       z     vdW  Elec       q    Type
REMARK                         _______ _______ _______ _____ _____    ______ ____
ROOT
ATOM      1  N   UNL     1       2.691   0.966   2.380  0.00  0.00    +0.000 N 
ATOM      2  C   UNL     1       3.246   0.914   3.668  0.00  0.00    +0.000 A 
ATOM      3  C   UNL     1       3.019   1.969   4.567  0.00  0.00    +0.000 A 
ATOM      4  N   UNL     1       3.505   2.012   5.837  0.00  0.00    +0.000 NA
ATOM      5  C   UNL     1       4.262   0.935   6.180  0.00  0.00    +0.000 A 
ATOM      6  C   UNL     1       4.511  -0.106   5.301  0.00  0.00    +0.000 A 
ATOM      7  N   UNL     1       4.017  -0.130   4.038  0.00  0.00    +0.000 NA
ATOM      8  H   UNL     1       1.686   1.098   2.456  0.00  0.00    +0.000 HD
ENDROOT
BRANCH   5   9
ATOM      9  C   UNL     1       4.827   0.880   7.555  0.00  0.00    +0.000 C 
ATOM     10  N   UNL     1       4.544   1.944   8.362  0.00  0.00    +0.000 N 
ATOM     11  O   UNL     1       5.505  -0.063   7.945  0.00  0.00    +0.000 OA
ATOM     12  H   UNL     1       3.980   2.712   8.013  0.00  0.00    +0.000 HD
ATOM     13  H   UNL     1       4.899   1.960   9.308  0.00  0.00    +0.000 HD
ENDBRANCH   5   9
BRANCH   1  14
ATOM     14  C   UNL     1       2.998  -0.196   1.554  0.00  0.00    +0.000 C 
BRANCH  14  16
ATOM     15  C   UNL     1       2.759   0.995  -0.715  0.00  0.00    +0.000 C 
ATOM     16  C   UNL     1       2.252  -0.020   0.262  0.00  0.00    +0.000 C 
BRANCH  16  17
ATOM     17  C   UNL     1       0.852  -0.464   0.193  0.00  0.00    +0.000 A 
ATOM     18  C   UNL     1       0.502  -1.793   0.465  0.00  0.00    +0.000 A 
ATOM     19  C   UNL     1      -0.838  -2.190   0.443  0.00  0.00    +0.000 A 
ATOM     20  C   UNL     1      -1.837  -1.261   0.156  0.00  0.00    +0.000 A 
ATOM     21  C   UNL     1      -1.498   0.060  -0.122  0.00  0.00    +0.000 A 
ATOM     22  C   UNL     1      -0.160   0.453  -0.112  0.00  0.00    +0.000 A 
ENDBRANCH  16  17
ENDBRANCH  14  16
ENDBRANCH   1  14
TORSDOF 4
