REMARK  Name = 
REMARK  5 active torsions:
REMARK  status: ('A' for Active; 'I' for Inactive)
REMARK    1  A    between atoms: N_1  and  C_2
REMARK    2  A    between atoms: C_2  and  C_3
REMARK    3  A    between atoms: C_3  and  C_4
REMARK    4  A    between atoms: C_7  and  C_8
REMARK    5  A    between atoms: C_8  and  N_9
REMARK                            x       y       z     vdW  Elec       q    Type
REMARK                         _______ _______ _______ _____ _____    ______ ____
ROOT
ATOM      1  C   UNL     1       4.345  -0.385  -1.361  0.00  0.00    +0.000 A 
ATOM      2  C   UNL     1       5.009   0.847  -1.409  0.00  0.00    +0.000 A 
ATOM      3  C   UNL     1       6.404   0.906  -1.342  0.00  0.00    +0.000 A 
ATOM      4  C   UNL     1       7.164  -0.266  -1.222  0.00  0.00    +0.000 A 
ATOM      5  C   UNL     1       6.497  -1.499  -1.222  0.00  0.00    +0.000 A 
ATOM      6  C   UNL     1       5.103  -1.559  -1.298  0.00  0.00    +0.000 A 
ENDROOT
BRANCH   1   7
ATOM      7  C   UNL     1       2.836  -0.441  -1.374  0.00  0.00    +0.000 C 
BRANCH   7   8
ATOM      8  C   UNL     1       2.276  -0.489  -2.798  0.00  0.00    +0.000 C 
BRANCH   8   9
ATOM      9  N   UNL     1       0.813  -0.519  -2.790  0.00  0.00    +0.000 NA
ATOM     10  H   UNL     1       0.475  -0.525  -3.752  0.00  0.00    +0.000 HD
ATOM     11  H   UNL     1       0.454   0.336  -2.368  0.00  0.00    +0.000 HD
ENDBRANCH   8   9
ENDBRANCH   7   8
ENDBRANCH   1   7
BRANCH   4  12
ATOM     12  C   UNL     1       8.665  -0.220  -1.088  0.00  0.00    +0.000 C 
BRANCH  12  13
ATOM     13  N   UNL     1       9.108  -0.163   0.302  0.00  0.00    +0.000 N 
ATOM     14  C   UNL     1       9.386  -1.268   1.077  0.00  0.00    +0.000 A 
ATOM     15  C   UNL     1       9.942  -0.837   2.263  0.00  0.00    +0.000 A 
ATOM     16  C   UNL     1      10.024   0.573   2.202  0.00  0.00    +0.000 A 
ATOM     17  N   UNL     1      10.540   1.431   3.115  0.00  0.00    +0.000 NA
ATOM     18  C   UNL     1      10.510   2.727   2.752  0.00  0.00    +0.000 A 
ATOM     19  C   UNL     1       9.984   3.224   1.570  0.00  0.00    +0.000 A 
ATOM     20  C   UNL     1       9.441   2.339   0.643  0.00  0.00    +0.000 A 
ATOM     21  C   UNL     1       9.485   0.981   0.982  0.00  0.00    +0.000 A 
ENDBRANCH  12  13
ENDBRANCH   4  12
TORSDOF 5
