REMARK  Name = 
REMARK  5 active torsions:
REMARK  status: ('A' for Active; 'I' for Inactive)
REMARK    1  A    between atoms: C_2  and  C_4
REMARK    2  A    between atoms: N_8  and  C_9
REMARK    3  A    between atoms: C_9  and  C_10
REMARK    4  A    between atoms: C_10  and  C_11
REMARK    5  A    between atoms: C_15  and  N_16
REMARK                            x       y       z     vdW  Elec       q    Type
REMARK                         _______ _______ _______ _____ _____    ______ ____
ROOT
ATOM      1  C   UNL     1       5.060   4.232  -4.487  0.00  0.00    +0.000 C 
ENDROOT
BRANCH   1   6
ATOM      2  C   UNL     1       4.349   1.383  -0.311  0.00  0.00    +0.000 A 
ATOM      3  C   UNL     1       4.006   2.698  -0.599  0.00  0.00    +0.000 A 
ATOM      4  C   UNL     1       4.369   3.235  -1.833  0.00  0.00    +0.000 A 
ATOM      5  C   UNL     1       5.067   2.460  -2.758  0.00  0.00    +0.000 A 
ATOM      6  N   UNL     1       5.442   2.929  -3.993  0.00  0.00    +0.000 N 
ATOM      7  N   UNL     1       5.424   1.192  -2.476  0.00  0.00    +0.000 NA
ATOM      8  C   UNL     1       5.071   0.683  -1.263  0.00  0.00    +0.000 A 
ATOM      9  H   UNL     1       5.918   2.251  -4.575  0.00  0.00    +0.000 HD
BRANCH   2  11
ATOM     10  N   UNL     1       2.863   1.191   1.597  0.00  0.00    +0.000 N 
ATOM     11  C   UNL     1       3.983   0.731   0.962  0.00  0.00    +0.000 C 
ATOM     12  O   UNL     1       4.633  -0.203   1.413  0.00  0.00    +0.000 OA
ATOM     13  H   UNL     1       2.563   0.673   2.413  0.00  0.00    +0.000 HD
ATOM     14  H   UNL     1       2.179   1.776   1.140  0.00  0.00    +0.000 HD
ENDBRANCH   2  11
ENDBRANCH   1   6
BRANCH   1  15
ATOM     15  C   UNL     1       5.520   4.482  -5.925  0.00  0.00    +0.000 C 
BRANCH  15  16
ATOM     16  C   UNL     1       5.105   5.878  -6.334  0.00  0.00    +0.000 A 
ATOM     17  C   UNL     1       3.880   6.105  -6.962  0.00  0.00    +0.000 A 
ATOM     18  C   UNL     1       3.461   7.408  -7.203  0.00  0.00    +0.000 A 
ATOM     19  C   UNL     1       4.254   8.491  -6.802  0.00  0.00    +0.000 A 
ATOM     20  C   UNL     1       5.488   8.310  -6.162  0.00  0.00    +0.000 A 
ATOM     21  C   UNL     1       5.897   6.981  -5.962  0.00  0.00    +0.000 A 
BRANCH  20  22
ATOM     22  N   UNL     1       6.243   9.378  -5.712  0.00  0.00    +0.000 N 
ATOM     23  C   UNL     1       7.110   9.268  -4.528  0.00  0.00    +0.000 C 
ATOM     24  C   UNL     1       8.587   9.384  -4.908  0.00  0.00    +0.000 C 
ATOM     25  S   UNL     1       8.961  11.009  -5.654  0.00  0.00    +0.000 S 
ATOM     26  C   UNL     1       7.671  10.985  -6.950  0.00  0.00    +0.000 C 
ATOM     27  C   UNL     1       6.270  10.676  -6.402  0.00  0.00    +0.000 C 
ENDBRANCH  20  22
ENDBRANCH  15  16
ENDBRANCH   1  15
TORSDOF 5
