REMARK  Name = 
REMARK  7 active torsions:
REMARK  status: ('A' for Active; 'I' for Inactive)
REMARK    1  A    between atoms: C_1  and  O_2
REMARK    2  A    between atoms: O_2  and  C_3
REMARK    3  A    between atoms: N_10  and  C_11
REMARK    4  A    between atoms: C_11  and  C_12
REMARK    5  A    between atoms: C_15  and  C_16
REMARK    6  A    between atoms: C_16  and  C_17
REMARK    7  A    between atoms: C_17  and  N_18
REMARK                            x       y       z     vdW  Elec       q    Type
REMARK                         _______ _______ _______ _____ _____    ______ ____
ROOT
ATOM      1  C   UNL     1       5.353  -5.148  -2.904  0.00  0.00    +0.000 C 
ENDROOT
BRANCH   1   9
ATOM      2  C   UNL     1       7.272  -1.093  -0.328  0.00  0.00    +0.000 A 
ATOM      3  C   UNL     1       7.542  -1.611  -1.592  0.00  0.00    +0.000 A 
ATOM      4  N   UNL     1       6.935  -2.684  -2.167  0.00  0.00    +0.000 NA
ATOM      5  C   UNL     1       5.991  -3.244  -1.380  0.00  0.00    +0.000 A 
ATOM      6  C   UNL     1       5.626  -2.828  -0.100  0.00  0.00    +0.000 A 
ATOM      7  C   UNL     1       4.597  -3.697   0.345  0.00  0.00    +0.000 A 
ATOM      8  C   UNL     1       4.367  -4.618  -0.656  0.00  0.00    +0.000 A 
ATOM      9  N   UNL     1       5.222  -4.340  -1.696  0.00  0.00    +0.000 N 
ATOM     10  C   UNL     1       6.301  -1.724   0.448  0.00  0.00    +0.000 A 
BRANCH   2  12
ATOM     11  C   UNL     1       8.463   0.928  -0.624  0.00  0.00    +0.000 C 
ATOM     12  O   UNL     1       7.898  -0.031   0.264  0.00  0.00    +0.000 OA
ENDBRANCH   2  12
ENDBRANCH   1   9
BRANCH   1  13
ATOM     13  C   UNL     1       4.346  -4.762  -3.962  0.00  0.00    +0.000 A 
ATOM     14  C   UNL     1       4.411  -3.507  -4.582  0.00  0.00    +0.000 A 
ATOM     15  C   UNL     1       3.434  -3.110  -5.498  0.00  0.00    +0.000 A 
ATOM     16  C   UNL     1       2.376  -3.966  -5.825  0.00  0.00    +0.000 A 
ATOM     17  C   UNL     1       2.348  -5.248  -5.265  0.00  0.00    +0.000 A 
ATOM     18  C   UNL     1       3.322  -5.643  -4.340  0.00  0.00    +0.000 A 
BRANCH  16  19
ATOM     19  C   UNL     1       1.267  -3.499  -6.738  0.00  0.00    +0.000 C 
BRANCH  19  20
ATOM     20  C   UNL     1       1.540  -3.788  -8.216  0.00  0.00    +0.000 C 
BRANCH  20  21
ATOM     21  N   UNL     1       0.430  -3.327  -9.052  0.00  0.00    +0.000 NA
ATOM     22  H   UNL     1      -0.419  -3.835  -8.807  0.00  0.00    +0.000 HD
ATOM     23  H   UNL     1       0.626  -3.553 -10.026  0.00  0.00    +0.000 HD
ENDBRANCH  20  21
ENDBRANCH  19  20
ENDBRANCH  16  19
ENDBRANCH   1  13
TORSDOF 6
