REMARK  Name = 
REMARK  6 active torsions:
REMARK  status: ('A' for Active; 'I' for Inactive)
REMARK    1  A    between atoms: C_2  and  C_3
REMARK    2  A    between atoms: C_6  and  N_7
REMARK    3  A    between atoms: N_7  and  C_8
REMARK    4  A    between atoms: C_8  and  C_9
REMARK    5  A    between atoms: C_13  and  C_14
REMARK    6  A    between atoms: C_25  and  C_26
REMARK                            x       y       z     vdW  Elec       q    Type
REMARK                         _______ _______ _______ _____ _____    ______ ____
ROOT
ATOM      1  C   UNL     1      -4.600   0.910  -0.242  0.00  0.00    +0.000 C 
ATOM      2  C   UNL     1      -4.785   2.061  -1.218  0.00  0.00    +0.000 C 
ATOM      3  C   UNL     1      -4.471   2.366   0.206  0.00  0.00    +0.000 C 
ENDROOT
BRANCH   1   4
ATOM      4  C   UNL     1      -5.802   0.222   0.397  0.00  0.00    +0.000 A 
ATOM      5  C   UNL     1      -5.818  -0.071   1.771  0.00  0.00    +0.000 A 
ATOM      6  C   UNL     1      -6.999  -0.428   2.419  0.00  0.00    +0.000 A 
ATOM      7  C   UNL     1      -8.190  -0.509   1.697  0.00  0.00    +0.000 A 
ATOM      8  C   UNL     1      -8.212  -0.287   0.312  0.00  0.00    +0.000 A 
ATOM      9  C   UNL     1      -6.996   0.031  -0.318  0.00  0.00    +0.000 A 
BRANCH   8  10
ATOM     10  C   UNL     1      -9.470  -0.265  -0.460  0.00  0.00    +0.000 A 
ATOM     11  C   UNL     1      -9.543  -0.799  -1.761  0.00  0.00    +0.000 A 
ATOM     12  C   UNL     1     -10.712  -0.704  -2.521  0.00  0.00    +0.000 A 
ATOM     13  C   UNL     1     -11.839  -0.085  -1.989  0.00  0.00    +0.000 A 
ATOM     14  C   UNL     1     -11.790   0.441  -0.702  0.00  0.00    +0.000 A 
ATOM     15 CL   UNL     1     -13.178   1.214  -0.039  0.00  0.00    +0.000 Cl
ATOM     16  C   UNL     1     -10.620   0.359   0.054  0.00  0.00    +0.000 A 
ENDBRANCH   8  10
ENDBRANCH   1   4
BRANCH   1  17
ATOM     17  N   UNL     1      -3.385   0.090  -0.341  0.00  0.00    +0.000 N 
ATOM     18  H   UNL     1      -2.593   0.358   0.236  0.00  0.00    +0.000 HD
BRANCH  17  22
ATOM     19  C   UNL     1      -2.384  -2.526  -3.440  0.00  0.00    +0.000 A 
ATOM     20  N   UNL     1      -1.537  -2.367  -2.389  0.00  0.00    +0.000 NA
ATOM     21  C   UNL     1      -1.903  -1.494  -1.424  0.00  0.00    +0.000 A 
ATOM     22  C   UNL     1      -3.069  -0.732  -1.433  0.00  0.00    +0.000 A 
ATOM     23  C   UNL     1      -3.913  -0.936  -2.525  0.00  0.00    +0.000 A 
ATOM     24  C   UNL     1      -3.580  -1.836  -3.557  0.00  0.00    +0.000 A 
BRANCH  24  25
ATOM     25  C   UNL     1      -4.522  -1.996  -4.710  0.00  0.00    +0.000 C 
ATOM     26  F   UNL     1      -4.171  -2.924  -5.633  0.00  0.00    +0.000 F 
ATOM     27  F   UNL     1      -5.777  -2.342  -4.303  0.00  0.00    +0.000 F 
ATOM     28  F   UNL     1      -4.675  -0.832  -5.404  0.00  0.00    +0.000 F 
ENDBRANCH  24  25
BRANCH  19  30
ATOM     29  N   UNL     1      -1.553  -4.264  -5.194  0.00  0.00    +0.000 NA
ATOM     30  C   UNL     1      -1.912  -3.489  -4.400  0.00  0.00    +0.000 C 
ENDBRANCH  19  30
ENDBRANCH  17  22
ENDBRANCH   1  17
TORSDOF 6
