REMARK  Name = 
REMARK  8 active torsions:
REMARK  status: ('A' for Active; 'I' for Inactive)
REMARK    1  A    between atoms: C_2  and  C_27
REMARK    2  A    between atoms: N_3  and  CA_4
REMARK    3  A    between atoms: CA_4  and  C_5
REMARK    4  A    between atoms: CA_4  and  C_7
REMARK    5  A    between atoms: C_5  and  O_6
REMARK    6  A    between atoms: C_10  and  C_11
REMARK    7  A    between atoms: C_11  and  N_12
REMARK    8  A    between atoms: C_13  and  C_15
REMARK                            x       y       z     vdW  Elec       q    Type
REMARK                         _______ _______ _______ _____ _____    ______ ____
ROOT
ATOM      1  C   UNL     1       3.144  -3.394   1.585  0.00  0.00    +0.000 A 
ATOM      2  C   UNL     1       4.231  -2.957   2.364  0.00  0.00    +0.000 A 
ATOM      3  C   UNL     1       5.107  -3.870   2.965  0.00  0.00    +0.000 A 
ATOM      4  C   UNL     1       4.922  -5.244   2.790  0.00  0.00    +0.000 A 
ATOM      5  C   UNL     1       3.818  -5.685   2.053  0.00  0.00    +0.000 A 
ATOM      6  C   UNL     1       2.937  -4.774   1.462  0.00  0.00    +0.000 A 
ENDROOT
BRANCH   1   7
ATOM      7  CA  UNL     1       2.225  -2.364   0.946  0.00  0.00    +0.000 C 
BRANCH   7  10
ATOM      8  O   UNL     1       1.615  -0.670  -1.159  0.00  0.00    +0.000 OA
ATOM      9  C   UNL     1       1.430  -1.874  -1.352  0.00  0.00    +0.000 C 
ATOM     10  N   UNL     1       1.717  -2.787  -0.360  0.00  0.00    +0.000 N 
ATOM     11  H   UNL     1       1.419  -3.740  -0.508  0.00  0.00    +0.000 HD
BRANCH   9  12
ATOM     12  C   UNL     1       0.902  -2.393  -2.606  0.00  0.00    +0.000 A 
ATOM     13  C   UNL     1       0.693  -1.665  -3.766  0.00  0.00    +0.000 A 
ATOM     14  C   UNL     1       0.140  -2.445  -4.820  0.00  0.00    +0.000 A 
ATOM     15  C   UNL     1      -0.060  -3.752  -4.436  0.00  0.00    +0.000 A 
ATOM     16  S   UNL     1       0.441  -4.030  -2.822  0.00  0.00    +0.000 S 
ENDBRANCH   9  12
ENDBRANCH   7  10
BRANCH   7  17
ATOM     17  C   UNL     1       1.083  -1.956   1.909  0.00  0.00    +0.000 C 
BRANCH  17  18
ATOM     18  O   UNL     1       0.251  -0.915   1.394  0.00  0.00    +0.000 OA
ATOM     19  H   UNL     1       0.744  -0.444   0.690  0.00  0.00    +0.000 HD
ENDBRANCH  17  18
ENDBRANCH   7  17
ENDBRANCH   1   7
BRANCH   4  20
ATOM     20  C   UNL     1       5.862  -6.253   3.406  0.00  0.00    +0.000 C 
BRANCH  20  21
ATOM     21  N   UNL     1       5.408  -6.660   4.711  0.00  0.00    +0.000 N 
ATOM     22  C   UNL     1       6.119  -7.553   5.469  0.00  0.00    +0.000 C 
ATOM     23  O   UNL     1       7.194  -8.017   5.095  0.00  0.00    +0.000 OA
ATOM     24  H   UNL     1       4.427  -6.505   4.923  0.00  0.00    +0.000 HD
BRANCH  22  25
ATOM     25  C   UNL     1       5.558  -7.883   6.785  0.00  0.00    +0.000 A 
ATOM     26  C   UNL     1       6.392  -8.329   7.800  0.00  0.00    +0.000 A 
ATOM     27  S   UNL     1       5.583  -8.608   9.277  0.00  0.00    +0.000 S 
ATOM     28  C   UNL     1       4.079  -8.196   8.594  0.00  0.00    +0.000 A 
ATOM     29  N   UNL     1       2.936  -8.254   9.328  0.00  0.00    +0.000 NA
ATOM     30  C   UNL     1       1.865  -7.947   8.675  0.00  0.00    +0.000 A 
ATOM     31  N   UNL     1       1.835  -7.578   7.355  0.00  0.00    +0.000 N 
ATOM     32  C   UNL     1       2.966  -7.476   6.582  0.00  0.00    +0.000 A 
ATOM     33  O   UNL     1       2.906  -7.099   5.418  0.00  0.00    +0.000 OA
ATOM     34  C   UNL     1       4.197  -7.828   7.265  0.00  0.00    +0.000 A 
ATOM     35  H   UNL     1       0.964  -7.337   6.905  0.00  0.00    +0.000 HD
ENDBRANCH  22  25
ENDBRANCH  20  21
ENDBRANCH   4  20
TORSDOF 8
