REMARK  Name = 
REMARK  6 active torsions:
REMARK  status: ('A' for Active; 'I' for Inactive)
REMARK    1  A    between atoms: C_2  and  C_20
REMARK    2  A    between atoms: N_3  and  C_4
REMARK    3  A    between atoms: C_4  and  C_5
REMARK    4  A    between atoms: C_8  and  O_9
REMARK    5  A    between atoms: O_9  and  C_10
REMARK    6  A    between atoms: C_10  and  C_11
REMARK                            x       y       z     vdW  Elec       q    Type
REMARK                         _______ _______ _______ _____ _____    ______ ____
ROOT
ATOM      1  C   UNL     1       2.408  -2.063  -1.406  0.00  0.00    +0.000 C 
ENDROOT
BRANCH   1   2
ATOM      2  C   UNL     1       3.369  -3.023  -2.062  0.00  0.00    +0.000 A 
ATOM      3  C   UNL     1       4.539  -2.556  -2.675  0.00  0.00    +0.000 A 
ATOM      4  C   UNL     1       5.455  -3.447  -3.254  0.00  0.00    +0.000 A 
ATOM      5  C   UNL     1       5.204  -4.819  -3.239  0.00  0.00    +0.000 A 
ATOM      6  C   UNL     1       4.010  -5.283  -2.684  0.00  0.00    +0.000 A 
ATOM      7  C   UNL     1       3.100  -4.397  -2.097  0.00  0.00    +0.000 A 
BRANCH   5   8
ATOM      8  O   UNL     1       6.016  -5.787  -3.766  0.00  0.00    +0.000 OA
BRANCH   8   9
ATOM      9  C   UNL     1       7.402  -5.473  -3.839  0.00  0.00    +0.000 C 
BRANCH   9  10
ATOM     10  C   UNL     1       8.214  -6.644  -4.404  0.00  0.00    +0.000 C 
ATOM     11  O   UNL     1       8.886  -6.501  -5.430  0.00  0.00    +0.000 OA
ATOM     12  N   UNL     1       8.227  -7.828  -3.698  0.00  0.00    +0.000 N 
ATOM     13  C   UNL     1       7.509  -8.137  -2.478  0.00  0.00    +0.000 C 
ATOM     14  C   UNL     1       8.377  -9.206  -1.834  0.00  0.00    +0.000 C 
ATOM     15  C   UNL     1       8.905  -9.997  -3.026  0.00  0.00    +0.000 C 
ATOM     16  C   UNL     1       8.999  -8.972  -4.153  0.00  0.00    +0.000 C 
ENDBRANCH   9  10
ENDBRANCH   8   9
ENDBRANCH   5   8
ENDBRANCH   1   2
BRANCH   1  19
ATOM     17  O   UNL     1       0.232  -0.471  -0.734  0.00  0.00    +0.000 OA
ATOM     18  C   UNL     1       0.386  -0.777  -1.911  0.00  0.00    +0.000 C 
ATOM     19  N   UNL     1       1.388  -1.624  -2.322  0.00  0.00    +0.000 N 
ATOM     20  H   UNL     1       1.617  -1.670  -3.309  0.00  0.00    +0.000 HD
BRANCH  18  21
ATOM     21  C   UNL     1      -0.527  -0.297  -2.956  0.00  0.00    +0.000 A 
ATOM     22  C   UNL     1      -1.815   0.101  -2.625  0.00  0.00    +0.000 A 
ATOM     23  S   UNL     1      -2.749   0.583  -3.971  0.00  0.00    +0.000 S 
ATOM     24  C   UNL     1      -1.446   0.326  -5.036  0.00  0.00    +0.000 A 
ATOM     25  N   UNL     1      -1.569   0.573  -6.366  0.00  0.00    +0.000 NA
ATOM     26  C   UNL     1      -0.490   0.367  -7.050  0.00  0.00    +0.000 A 
ATOM     27  N   UNL     1       0.698  -0.062  -6.521  0.00  0.00    +0.000 N 
ATOM     28  C   UNL     1       0.863  -0.343  -5.187  0.00  0.00    +0.000 A 
ATOM     29  O   UNL     1       1.934  -0.752  -4.749  0.00  0.00    +0.000 OA
ATOM     30  C   UNL     1      -0.319  -0.129  -4.374  0.00  0.00    +0.000 A 
ATOM     31  H   UNL     1       1.505  -0.206  -7.112  0.00  0.00    +0.000 HD
ENDBRANCH  18  21
ENDBRANCH   1  19
TORSDOF 6
