REMARK  Name = 
REMARK  8 active torsions:
REMARK  status: ('A' for Active; 'I' for Inactive)
REMARK    1  A    between atoms: C_1  and  C_2
REMARK    2  A    between atoms: C_2  and  N_3
REMARK    3  A    between atoms: C_2  and  C_17
REMARK    4  A    between atoms: C_4  and  C_6
REMARK    5  A    between atoms: N_12  and  C_13
REMARK    6  A    between atoms: C_20  and  C_21
REMARK    7  A    between atoms: C_21  and  O_22
REMARK    8  A    between atoms: O_22  and  C_23
REMARK                            x       y       z     vdW  Elec       q    Type
REMARK                         _______ _______ _______ _____ _____    ______ ____
ROOT
ATOM      1  C   UNL     1       3.078   1.496  -0.086  0.00  0.00    +0.000 C 
ATOM      2  C   UNL     1       2.604   0.040  -0.114  0.00  0.00    +0.000 C 
ENDROOT
BRANCH   2   3
ATOM      3  C   UNL     1       3.031  -0.777   1.096  0.00  0.00    +0.000 A 
ATOM      4  C   UNL     1       3.272  -2.151   0.935  0.00  0.00    +0.000 A 
ATOM      5  C   UNL     1       3.637  -2.952   2.020  0.00  0.00    +0.000 A 
ATOM      6  C   UNL     1       3.752  -2.402   3.300  0.00  0.00    +0.000 A 
ATOM      7  C   UNL     1       3.521  -1.032   3.470  0.00  0.00    +0.000 A 
ATOM      8  C   UNL     1       3.151  -0.232   2.384  0.00  0.00    +0.000 A 
BRANCH   6   9
ATOM      9  C   UNL     1       4.061  -3.275   4.491  0.00  0.00    +0.000 C 
BRANCH   9  10
ATOM     10  O   UNL     1       5.472  -3.353   4.711  0.00  0.00    +0.000 OA
BRANCH  10  11
ATOM     11  C   UNL     1       5.754  -4.091   5.848  0.00  0.00    +0.000 A 
ATOM     12  C   UNL     1       7.090  -4.283   6.169  0.00  0.00    +0.000 A 
ATOM     13  C   UNL     1       7.387  -5.014   7.323  0.00  0.00    +0.000 A 
ATOM     14  C   UNL     1       6.351  -5.518   8.102  0.00  0.00    +0.000 A 
ATOM     15  C   UNL     1       5.053  -5.273   7.697  0.00  0.00    +0.000 A 
ATOM     16  N   UNL     1       4.735  -4.574   6.590  0.00  0.00    +0.000 NA
ENDBRANCH  10  11
ENDBRANCH   9  10
ENDBRANCH   6   9
ENDBRANCH   2   3
BRANCH   2  17
ATOM     17  N   UNL     1       1.161   0.030  -0.241  0.00  0.00    +0.000 N 
ATOM     18  C   UNL     1       0.462  -0.898  -0.966  0.00  0.00    +0.000 C 
ATOM     19  O   UNL     1       1.006  -1.745  -1.668  0.00  0.00    +0.000 OA
ATOM     20  H   UNL     1       0.667   0.545   0.478  0.00  0.00    +0.000 HD
BRANCH  18  21
ATOM     21  C   UNL     1      -1.002  -0.777  -0.906  0.00  0.00    +0.000 A 
ATOM     22  C   UNL     1      -1.783  -1.231  -1.959  0.00  0.00    +0.000 A 
ATOM     23  S   UNL     1      -3.457  -1.012  -1.709  0.00  0.00    +0.000 S 
ATOM     24  C   UNL     1      -3.195  -0.333  -0.168  0.00  0.00    +0.000 A 
ATOM     25  N   UNL     1      -4.236   0.043   0.616  0.00  0.00    +0.000 NA
ATOM     26  C   UNL     1      -3.892   0.519   1.770  0.00  0.00    +0.000 A 
ATOM     27  N   UNL     1      -2.596   0.676   2.216  0.00  0.00    +0.000 N 
ATOM     28  C   UNL     1      -2.318   1.253   3.514  0.00  0.00    +0.000 C 
ATOM     29  C   UNL     1      -1.508   0.356   1.412  0.00  0.00    +0.000 A 
ATOM     30  O   UNL     1      -0.353   0.605   1.746  0.00  0.00    +0.000 OA
ATOM     31  C   UNL     1      -1.850  -0.235   0.131  0.00  0.00    +0.000 A 
ENDBRANCH  18  21
ENDBRANCH   2  17
TORSDOF 6
