REMARK  Name = 
REMARK  6 active torsions:
REMARK  status: ('A' for Active; 'I' for Inactive)
REMARK    1  A    between atoms: N_1  and  C_2
REMARK    2  A    between atoms: C_5  and  O_6
REMARK    3  A    between atoms: O_6  and  C_7
REMARK    4  A    between atoms: C_10  and  C_11
REMARK    5  A    between atoms: C_11  and  N_12
REMARK    6  A    between atoms: C_13  and  C_15
REMARK                            x       y       z     vdW  Elec       q    Type
REMARK                         _______ _______ _______ _____ _____    ______ ____
ROOT
ATOM      1  C   UNL     1      -3.826   1.370  -0.163  0.00  0.00    +0.000 A 
ATOM      2  C   UNL     1      -3.705   2.160  -1.307  0.00  0.00    +0.000 A 
ATOM      3  C   UNL     1      -4.359   3.392  -1.381  0.00  0.00    +0.000 A 
ATOM      4  C   UNL     1      -5.184   3.823  -0.334  0.00  0.00    +0.000 A 
ATOM      5  C   UNL     1      -5.401   2.965   0.753  0.00  0.00    +0.000 A 
ATOM      6  C   UNL     1      -4.719   1.749   0.841  0.00  0.00    +0.000 A 
ENDROOT
BRANCH   1   7
ATOM      7  O   UNL     1      -3.158   0.184   0.034  0.00  0.00    +0.000 OA
BRANCH   7  11
ATOM      8  C   UNL     1       0.672  -0.487  -1.406  0.00  0.00    +0.000 A 
ATOM      9  C   UNL     1       0.321   0.809  -1.045  0.00  0.00    +0.000 A 
ATOM     10  C   UNL     1      -0.952   1.075  -0.535  0.00  0.00    +0.000 A 
ATOM     11  C   UNL     1      -1.866   0.032  -0.423  0.00  0.00    +0.000 A 
ATOM     12  N   UNL     1      -1.529  -1.248  -0.687  0.00  0.00    +0.000 NA
ATOM     13  C   UNL     1      -0.270  -1.476  -1.135  0.00  0.00    +0.000 A 
BRANCH   8  14
ATOM     14  N   UNL     1       1.987  -0.789  -1.776  0.00  0.00    +0.000 N 
ATOM     15  H   UNL     1       2.470  -0.025  -2.240  0.00  0.00    +0.000 HD
ATOM     16  H   UNL     1       2.089  -1.666  -2.277  0.00  0.00    +0.000 HD
ENDBRANCH   8  14
ENDBRANCH   7  11
ENDBRANCH   1   7
BRANCH   4  17
ATOM     17  C   UNL     1      -5.879   5.157  -0.404  0.00  0.00    +0.000 C 
BRANCH  17  18
ATOM     18  N   UNL     1      -7.136   5.032  -1.082  0.00  0.00    +0.000 N 
ATOM     19  C   UNL     1      -7.919   6.123  -1.366  0.00  0.00    +0.000 C 
ATOM     20  O   UNL     1      -7.564   7.268  -1.101  0.00  0.00    +0.000 OA
ATOM     21  H   UNL     1      -7.554   4.107  -1.092  0.00  0.00    +0.000 HD
BRANCH  19  22
ATOM     22  C   UNL     1      -9.174   5.841  -2.070  0.00  0.00    +0.000 A 
ATOM     23  C   UNL     1      -9.790   6.840  -2.811  0.00  0.00    +0.000 A 
ATOM     24  S   UNL     1     -11.182   6.312  -3.645  0.00  0.00    +0.000 S 
ATOM     25  C   UNL     1     -11.042   4.743  -3.000  0.00  0.00    +0.000 A 
ATOM     26  N   UNL     1     -11.940   3.772  -3.317  0.00  0.00    +0.000 NA
ATOM     27  C   UNL     1     -11.731   2.640  -2.732  0.00  0.00    +0.000 A 
ATOM     28  N   UNL     1     -10.707   2.392  -1.855  0.00  0.00    +0.000 N 
ATOM     29  C   UNL     1      -9.768   3.336  -1.519  0.00  0.00    +0.000 A 
ATOM     30  O   UNL     1      -8.853   3.074  -0.744  0.00  0.00    +0.000 OA
ATOM     31  C   UNL     1      -9.951   4.626  -2.158  0.00  0.00    +0.000 A 
ATOM     32  H   UNL     1     -10.599   1.483  -1.428  0.00  0.00    +0.000 HD
ENDBRANCH  19  22
ENDBRANCH  17  18
ENDBRANCH   4  17
TORSDOF 6
