REMARK  Name = 
REMARK  9 active torsions:
REMARK  status: ('A' for Active; 'I' for Inactive)
REMARK    1  A    between atoms: C_1  and  O_2
REMARK    2  A    between atoms: O_2  and  C_3
REMARK    3  A    between atoms: C_10  and  C_11
REMARK    4  A    between atoms: N_13  and  C_14
REMARK    5  A    between atoms: C_14  and  C_15
REMARK    6  A    between atoms: C_18  and  N_19
REMARK    7  A    between atoms: N_19  and  C_20
REMARK    8  A    between atoms: C_20  and  C_21
REMARK    9  A    between atoms: N_24  and  C_25
REMARK                            x       y       z     vdW  Elec       q    Type
REMARK                         _______ _______ _______ _____ _____    ______ ____
ROOT
ATOM      1  C   UNL     1       2.989  -1.541   2.865  0.00  0.00    +0.000 C 
ENDROOT
BRANCH   1   2
ATOM      2  C   UNL     1       1.852  -0.636   3.270  0.00  0.00    +0.000 A 
ATOM      3  C   UNL     1       0.654  -1.179   3.736  0.00  0.00    +0.000 A 
ATOM      4  C   UNL     1      -0.394  -0.345   4.145  0.00  0.00    +0.000 A 
ATOM      5  C   UNL     1      -0.310   1.054   4.064  0.00  0.00    +0.000 A 
ATOM      6  C   UNL     1       0.885   1.588   3.566  0.00  0.00    +0.000 A 
ATOM      7  C   UNL     1       1.951   0.757   3.171  0.00  0.00    +0.000 A 
BRANCH   5   8
ATOM      8  N   UNL     1      -1.309   1.928   4.556  0.00  0.00    +0.000 N 
ATOM      9  H   UNL     1      -1.475   2.708   3.923  0.00  0.00    +0.000 HD
BRANCH   8  10
ATOM     10  C   UNL     1      -2.500   1.310   5.124  0.00  0.00    +0.000 C 
BRANCH  10  11
ATOM     11  C   UNL     1      -3.623   2.282   5.524  0.00  0.00    +0.000 C 
ATOM     12  C   UNL     1      -3.275   3.294   6.625  0.00  0.00    +0.000 C 
ATOM     13  C   UNL     1      -3.170   2.677   8.026  0.00  0.00    +0.000 C 
ATOM     14  N   UNL     1      -4.350   1.868   8.370  0.00  0.00    +0.000 NA
ATOM     15  C   UNL     1      -4.203   1.288   9.706  0.00  0.00    +0.000 C 
ATOM     16  C   UNL     1      -4.595   0.821   7.377  0.00  0.00    +0.000 C 
ATOM     17  C   UNL     1      -4.833   1.447   5.998  0.00  0.00    +0.000 C 
ENDBRANCH  10  11
ENDBRANCH   8  10
ENDBRANCH   5   8
ENDBRANCH   1   2
BRANCH   1  20
ATOM     18  C   UNL     1       3.765  -2.767   0.875  0.00  0.00    +0.000 C 
ATOM     19  O   UNL     1       4.672  -3.300   1.511  0.00  0.00    +0.000 OA
ATOM     20  N   UNL     1       2.901  -1.889   1.470  0.00  0.00    +0.000 N 
ATOM     21  H   UNL     1       2.201  -1.417   0.919  0.00  0.00    +0.000 HD
BRANCH  18  29
ATOM     22  C   UNL     1       1.392  -1.790  -1.418  0.00  0.00    +0.000 A 
ATOM     23  N   UNL     1       0.612  -1.575  -2.494  0.00  0.00    +0.000 NA
ATOM     24  C   UNL     1       0.952  -2.168  -3.644  0.00  0.00    +0.000 A 
ATOM     25  N   UNL     1       1.998  -2.966  -3.859  0.00  0.00    +0.000 NA
ATOM     26  C   UNL     1       2.749  -3.149  -2.760  0.00  0.00    +0.000 A 
ATOM     27  S   UNL     1       4.125  -4.138  -2.845  0.00  0.00    +0.000 S 
ATOM     28  C   UNL     1       4.476  -3.879  -1.202  0.00  0.00    +0.000 A 
ATOM     29  C   UNL     1       3.567  -3.046  -0.558  0.00  0.00    +0.000 A 
ATOM     30  C   UNL     1       2.536  -2.606  -1.496  0.00  0.00    +0.000 A 
BRANCH  22  32
ATOM     31  C   UNL     1      -0.306  -0.786  -0.155  0.00  0.00    +0.000 C 
ATOM     32  O   UNL     1       1.070  -1.146  -0.244  0.00  0.00    +0.000 OA
ENDBRANCH  22  32
ENDBRANCH  18  29
ENDBRANCH   1  20
TORSDOF 7
