REMARK  Name = 
REMARK  7 active torsions:
REMARK  status: ('A' for Active; 'I' for Inactive)
REMARK    1  A    between atoms: C_2  and  C_20
REMARK    2  A    between atoms: N_3  and  C_4
REMARK    3  A    between atoms: C_4  and  C_5
REMARK    4  A    between atoms: C_8  and  C_9
REMARK    5  A    between atoms: C_9  and  N_10
REMARK    6  A    between atoms: N_10  and  C_11
REMARK    7  A    between atoms: C_11  and  C_12
REMARK                            x       y       z     vdW  Elec       q    Type
REMARK                         _______ _______ _______ _____ _____    ______ ____
ROOT
ATOM      1  C   UNL     1       3.123  -2.892   2.176  0.00  0.00    +0.000 A 
ATOM      2  C   UNL     1       4.132  -2.398   3.009  0.00  0.00    +0.000 A 
ATOM      3  C   UNL     1       4.932  -3.274   3.738  0.00  0.00    +0.000 A 
ATOM      4  C   UNL     1       4.711  -4.659   3.687  0.00  0.00    +0.000 A 
ATOM      5  C   UNL     1       3.714  -5.151   2.841  0.00  0.00    +0.000 A 
ATOM      6  C   UNL     1       2.937  -4.278   2.084  0.00  0.00    +0.000 A 
ENDROOT
BRANCH   1   7
ATOM      7  C   UNL     1       2.208  -1.954   1.440  0.00  0.00    +0.000 C 
BRANCH   7  10
ATOM      8  O   UNL     1       3.768   0.290   1.042  0.00  0.00    +0.000 OA
ATOM      9  C   UNL     1       3.477  -0.418   0.061  0.00  0.00    +0.000 C 
ATOM     10  N   UNL     1       2.696  -1.533   0.160  0.00  0.00    +0.000 N 
ATOM     11  H   UNL     1       2.658  -2.200  -0.606  0.00  0.00    +0.000 HD
BRANCH   9  12
ATOM     12  C   UNL     1       3.956  -0.075  -1.266  0.00  0.00    +0.000 A 
ATOM     13  C   UNL     1       4.204   1.231  -1.665  0.00  0.00    +0.000 A 
ATOM     14  S   UNL     1       4.873   1.321  -3.241  0.00  0.00    +0.000 S 
ATOM     15  C   UNL     1       4.830  -0.371  -3.418  0.00  0.00    +0.000 A 
ATOM     16  N   UNL     1       5.288  -0.988  -4.541  0.00  0.00    +0.000 NA
ATOM     17  C   UNL     1       5.204  -2.277  -4.517  0.00  0.00    +0.000 A 
ATOM     18  N   UNL     1       4.694  -3.009  -3.473  0.00  0.00    +0.000 N 
ATOM     19  C   UNL     1       4.148  -2.438  -2.362  0.00  0.00    +0.000 A 
ATOM     20  O   UNL     1       3.537  -3.123  -1.542  0.00  0.00    +0.000 OA
ATOM     21  C   UNL     1       4.281  -0.995  -2.315  0.00  0.00    +0.000 A 
ATOM     22  H   UNL     1       4.601  -4.010  -3.543  0.00  0.00    +0.000 HD
ENDBRANCH   9  12
ENDBRANCH   7  10
ENDBRANCH   1   7
BRANCH   4  23
ATOM     23  C   UNL     1       5.534  -5.641   4.493  0.00  0.00    +0.000 C 
BRANCH  23  24
ATOM     24  N   UNL     1       6.042  -5.107   5.766  0.00  0.00    +0.000 NA
ATOM     25  H   UNL     1       6.673  -4.329   5.571  0.00  0.00    +0.000 HD
BRANCH  24  26
ATOM     26  C   UNL     1       4.951  -4.668   6.637  0.00  0.00    +0.000 C 
BRANCH  26  27
ATOM     27  C   UNL     1       5.483  -4.066   7.955  0.00  0.00    +0.000 C 
ATOM     28  C   UNL     1       6.340  -5.026   8.799  0.00  0.00    +0.000 C 
ATOM     29  C   UNL     1       5.511  -6.172   9.377  0.00  0.00    +0.000 C 
ATOM     30  N   UNL     1       4.409  -5.663  10.201  0.00  0.00    +0.000 NA
ATOM     31  C   UNL     1       3.536  -4.776   9.428  0.00  0.00    +0.000 C 
ATOM     32  C   UNL     1       4.302  -3.595   8.820  0.00  0.00    +0.000 C 
ATOM     33  H   UNL     1       4.804  -5.137  10.981  0.00  0.00    +0.000 HD
ENDBRANCH  26  27
ENDBRANCH  24  26
ENDBRANCH  23  24
ENDBRANCH   4  23
TORSDOF 7
