REMARK  Name = 
REMARK  8 active torsions:
REMARK  status: ('A' for Active; 'I' for Inactive)
REMARK    1  A    between atoms: C_1  and  N_2
REMARK    2  A    between atoms: C_3  and  C_5
REMARK    3  A    between atoms: C_8  and  O_9
REMARK    4  A    between atoms: O_9  and  C_10
REMARK    5  A    between atoms: C_10  and  C_11
REMARK    6  A    between atoms: C_11  and  C_12
REMARK    7  A    between atoms: C_11  and  C_13
REMARK    8  A    between atoms: C_11  and  C_14
REMARK                            x       y       z     vdW  Elec       q    Type
REMARK                         _______ _______ _______ _____ _____    ______ ____
ROOT
ATOM      1  C   UNL     1       4.651  -0.735  -0.318  0.00  0.00    +0.000 A 
ATOM      2  C   UNL     1       5.122  -0.722  -1.631  0.00  0.00    +0.000 A 
ATOM      3  C   UNL     1       6.501  -0.790  -1.861  0.00  0.00    +0.000 A 
ATOM      4  C   UNL     1       7.352  -0.868  -0.768  0.00  0.00    +0.000 A 
ATOM      5  N   UNL     1       6.922  -0.881   0.511  0.00  0.00    +0.000 NA
ATOM      6  C   UNL     1       5.585  -0.802   0.707  0.00  0.00    +0.000 A 
ENDROOT
BRANCH   1   9
ATOM      7  C   UNL     1       0.898  -1.103  -0.561  0.00  0.00    +0.000 C 
ATOM      8  N   UNL     1       2.308  -1.126  -0.864  0.00  0.00    +0.000 N 
ATOM      9  C   UNL     1       3.220  -0.636   0.047  0.00  0.00    +0.000 C 
ATOM     10  O   UNL     1       2.900  -0.160   1.129  0.00  0.00    +0.000 OA
ATOM     11  H   UNL     1       2.621  -1.665  -1.660  0.00  0.00    +0.000 HD
ENDBRANCH   1   9
BRANCH   4  12
ATOM     12  O   UNL     1       8.707  -0.930  -1.032  0.00  0.00    +0.000 OA
BRANCH  12  13
ATOM     13  C   UNL     1       9.509  -0.983   0.161  0.00  0.00    +0.000 C 
BRANCH  13  14
ATOM     14  C   UNL     1      11.020  -1.024  -0.194  0.00  0.00    +0.000 C 
ATOM     15  C   UNL     1      11.307  -2.259  -1.083  0.00  0.00    +0.000 C 
ATOM     16  C   UNL     1      11.378   0.212  -1.058  0.00  0.00    +0.000 C 
BRANCH  14  17
ATOM     17  C   UNL     1      11.833  -1.066   1.120  0.00  0.00    +0.000 A 
ATOM     18  C   UNL     1      12.124  -2.284   1.764  0.00  0.00    +0.000 A 
ATOM     19  C   UNL     1      12.878  -2.327   2.942  0.00  0.00    +0.000 A 
ATOM     20  C   UNL     1      13.346  -1.151   3.517  0.00  0.00    +0.000 A 
ATOM     21  C   UNL     1      13.043   0.068   2.923  0.00  0.00    +0.000 A 
ATOM     22  C   UNL     1      12.289   0.110   1.745  0.00  0.00    +0.000 A 
ENDBRANCH  14  17
ENDBRANCH  13  14
ENDBRANCH  12  13
ENDBRANCH   4  12
TORSDOF 5
