REMARK  Name = 
REMARK  4 active torsions:
REMARK  status: ('A' for Active; 'I' for Inactive)
REMARK    1  A    between atoms: N_1  and  C_2
REMARK    2  A    between atoms: C_2  and  C_3
REMARK    3  A    between atoms: N_6  and  C_7
REMARK    4  A    between atoms: C_7  and  N_8
REMARK                            x       y       z     vdW  Elec       q    Type
REMARK                         _______ _______ _______ _____ _____    ______ ____
ROOT
ATOM      1  C   UNL     1       2.980  -1.006  -1.011  0.00  0.00    +0.000 C 
ATOM      2  C   UNL     1       1.933  -1.947  -1.621  0.00  0.00    +0.000 C 
ATOM      3  C   UNL     1       1.315  -2.892  -0.589  0.00  0.00    +0.000 C 
ATOM      4  N   UNL     1       2.305  -3.647   0.198  0.00  0.00    +0.000 NA
ATOM      5  C   UNL     1       3.336  -2.771   0.783  0.00  0.00    +0.000 C 
ATOM      6  C   UNL     1       4.000  -1.871  -0.263  0.00  0.00    +0.000 C 
ENDROOT
BRANCH   1   7
ATOM      7  C   UNL     1       2.414   0.081  -0.076  0.00  0.00    +0.000 C 
BRANCH   7   8
ATOM      8  N   UNL     1       1.494   0.988  -0.750  0.00  0.00    +0.000 NA
ATOM      9  H   UNL     1       1.295   1.779  -0.136  0.00  0.00    +0.000 HD
ATOM     10  H   UNL     1       0.599   0.526  -0.904  0.00  0.00    +0.000 HD
ENDBRANCH   7   8
ENDBRANCH   1   7
BRANCH   4  11
ATOM     11  C   UNL     1       1.582  -4.431   1.230  0.00  0.00    +0.000 C 
BRANCH  11  12
ATOM     12  N   UNL     1       2.521  -5.179   2.070  0.00  0.00    +0.000 N 
ATOM     13  C   UNL     1       3.341  -6.183   1.613  0.00  0.00    +0.000 A 
ATOM     14  C   UNL     1       4.187  -6.537   2.640  0.00  0.00    +0.000 A 
ATOM     15  C   UNL     1       3.842  -5.750   3.775  0.00  0.00    +0.000 A 
ATOM     16  C   UNL     1       4.367  -5.648   5.080  0.00  0.00    +0.000 A 
ATOM     17  C   UNL     1       3.770  -4.773   5.996  0.00  0.00    +0.000 A 
ATOM     18  C   UNL     1       2.650  -4.036   5.638  0.00  0.00    +0.000 A 
ATOM     19  C   UNL     1       2.115  -4.113   4.348  0.00  0.00    +0.000 A 
ATOM     20  C   UNL     1       2.747  -4.961   3.418  0.00  0.00    +0.000 A 
ENDBRANCH  11  12
ENDBRANCH   4  11
TORSDOF 4
