REMARK  Name = 
REMARK  6 active torsions:
REMARK  status: ('A' for Active; 'I' for Inactive)
REMARK    1  A    between atoms: C_2  and  C_4
REMARK    2  A    between atoms: C_7  and  N_8
REMARK    3  A    between atoms: N_8  and  C_9
REMARK    4  A    between atoms: C_9  and  C_10
REMARK    5  A    between atoms: C_10  and  C_13
REMARK    6  A    between atoms: C_17  and  N_18
REMARK                            x       y       z     vdW  Elec       q    Type
REMARK                         _______ _______ _______ _____ _____    ______ ____
ROOT
ATOM      1  C   UNL     1       5.918  -2.363   6.886  0.00  0.00    +0.000 C 
ATOM      2  F   UNL     1       5.186  -1.243   7.158  0.00  0.00    +0.000 F 
ATOM      3  F   UNL     1       5.626  -2.678   5.584  0.00  0.00    +0.000 F 
ENDROOT
BRANCH   1   4
ATOM      4  C   UNL     1       5.595  -3.502   7.832  0.00  0.00    +0.000 A 
ATOM      5  C   UNL     1       5.649  -4.830   7.408  0.00  0.00    +0.000 A 
ATOM      6  C   UNL     1       5.454  -5.867   8.312  0.00  0.00    +0.000 A 
ATOM      7  C   UNL     1       5.246  -5.580   9.661  0.00  0.00    +0.000 A 
ATOM      8  C   UNL     1       5.196  -4.263  10.129  0.00  0.00    +0.000 A 
ATOM      9  C   UNL     1       5.324  -3.234   9.185  0.00  0.00    +0.000 A 
BRANCH   8  10
ATOM     10  N   UNL     1       5.070  -3.993  11.472  0.00  0.00    +0.000 N 
ATOM     11  C   UNL     1       4.408  -2.787  11.977  0.00  0.00    +0.000 C 
ATOM     12  C   UNL     1       5.374  -1.981  12.852  0.00  0.00    +0.000 C 
ATOM     13  O   UNL     1       5.928  -2.788  13.906  0.00  0.00    +0.000 OA
ATOM     14  C   UNL     1       6.647  -3.906  13.359  0.00  0.00    +0.000 C 
ATOM     15  C   UNL     1       5.739  -4.806  12.499  0.00  0.00    +0.000 C 
ENDBRANCH   8  10
ENDBRANCH   1   4
BRANCH   1  16
ATOM     16  C   UNL     1       7.428  -2.006   6.961  0.00  0.00    +0.000 C 
BRANCH  16  17
ATOM     17  N   UNL     1       7.813  -0.957   6.002  0.00  0.00    +0.000 N 
ATOM     18  H   UNL     1       7.329  -1.006   5.105  0.00  0.00    +0.000 HD
BRANCH  17  22
ATOM     19  C   UNL     1      11.711   0.634   5.824  0.00  0.00    +0.000 A 
ATOM     20  C   UNL     1      11.442  -0.438   6.676  0.00  0.00    +0.000 A 
ATOM     21  C   UNL     1      10.156  -0.984   6.731  0.00  0.00    +0.000 A 
ATOM     22  C   UNL     1       9.123  -0.500   5.920  0.00  0.00    +0.000 A 
ATOM     23  C   UNL     1       9.404   0.591   5.085  0.00  0.00    +0.000 A 
ATOM     24  C   UNL     1      10.684   1.160   5.038  0.00  0.00    +0.000 A 
BRANCH  19  26
ATOM     25  N   UNL     1      14.128   0.462   6.050  0.00  0.00    +0.000 N 
ATOM     26  C   UNL     1      13.050   1.266   5.774  0.00  0.00    +0.000 C 
ATOM     27  O   UNL     1      13.202   2.438   5.474  0.00  0.00    +0.000 OA
ATOM     28  H   UNL     1      15.038   0.878   5.917  0.00  0.00    +0.000 HD
ATOM     29  H   UNL     1      14.060  -0.545   6.038  0.00  0.00    +0.000 HD
ENDBRANCH  19  26
ENDBRANCH  17  22
ENDBRANCH  16  17
ENDBRANCH   1  16
TORSDOF 6
