REMARK  Name = 
REMARK  6 active torsions:
REMARK  status: ('A' for Active; 'I' for Inactive)
REMARK    1  A    between atoms: C_2  and  C_4
REMARK    2  A    between atoms: C_7  and  N_8
REMARK    3  A    between atoms: N_8  and  CA_9
REMARK    4  A    between atoms: CA_9  and  C_10
REMARK    5  A    between atoms: CA_9  and  C_12
REMARK    6  A    between atoms: C_10  and  O_11
REMARK                            x       y       z     vdW  Elec       q    Type
REMARK                         _______ _______ _______ _____ _____    ______ ____
ROOT
ATOM      1  N   UNL     1       5.321   1.722  -4.535  0.00  0.00    +0.000 N 
ATOM      2  H   UNL     1       6.024   2.009  -3.853  0.00  0.00    +0.000 HD
ENDROOT
BRANCH   1   6
ATOM      3  C   UNL     1       2.405  -0.404  -2.554  0.00  0.00    +0.000 A 
ATOM      4  C   UNL     1       2.081   0.392  -3.641  0.00  0.00    +0.000 A 
ATOM      5  N   UNL     1       3.009   1.138  -4.306  0.00  0.00    +0.000 NA
ATOM      6  C   UNL     1       4.283   1.051  -3.870  0.00  0.00    +0.000 A 
ATOM      7  C   UNL     1       4.591   0.193  -2.799  0.00  0.00    +0.000 A 
ATOM      8  N   UNL     1       3.677  -0.526  -2.098  0.00  0.00    +0.000 NA
BRANCH   3  10
ATOM      9  N   UNL     1       1.731  -1.781  -0.677  0.00  0.00    +0.000 N 
ATOM     10  C   UNL     1       1.335  -1.136  -1.818  0.00  0.00    +0.000 C 
ATOM     11  O   UNL     1       0.172  -1.142  -2.195  0.00  0.00    +0.000 OA
ATOM     12  H   UNL     1       1.043  -2.258  -0.114  0.00  0.00    +0.000 HD
ATOM     13  H   UNL     1       2.695  -1.726  -0.372  0.00  0.00    +0.000 HD
ENDBRANCH   3  10
ENDBRANCH   1   6
BRANCH   1  14
ATOM     14  CA  UNL     1       4.916   2.921  -5.306  0.00  0.00    +0.000 C 
BRANCH  14  15
ATOM     15  C   UNL     1       5.908   3.126  -6.465  0.00  0.00    +0.000 A 
ATOM     16  C   UNL     1       6.460   2.008  -7.122  0.00  0.00    +0.000 A 
ATOM     17  C   UNL     1       7.369   2.158  -8.174  0.00  0.00    +0.000 A 
ATOM     18  C   UNL     1       7.723   3.430  -8.607  0.00  0.00    +0.000 A 
ATOM     19 CL   UNL     1       8.853   3.619  -9.890  0.00  0.00    +0.000 Cl
ATOM     20  C   UNL     1       7.161   4.552  -8.007  0.00  0.00    +0.000 A 
ATOM     21  C   UNL     1       6.252   4.400  -6.954  0.00  0.00    +0.000 A 
ENDBRANCH  14  15
BRANCH  14  22
ATOM     22  C   UNL     1       4.894   4.108  -4.298  0.00  0.00    +0.000 C 
BRANCH  22  23
ATOM     23  O   UNL     1       6.151   4.207  -3.603  0.00  0.00    +0.000 OA
ATOM     24  H   UNL     1       6.859   4.184  -4.274  0.00  0.00    +0.000 HD
ENDBRANCH  22  23
ENDBRANCH  14  22
ENDBRANCH   1  14
TORSDOF 6
