REMARK  Name = 
REMARK  6 active torsions:
REMARK  status: ('A' for Active; 'I' for Inactive)
REMARK    1  A    between atoms: C_1  and  O_2
REMARK    2  A    between atoms: O_2  and  C_3
REMARK    3  A    between atoms: C_5  and  C_6
REMARK    4  A    between atoms: C_6  and  N_7
REMARK    5  A    between atoms: C_11  and  C_12
REMARK    6  A    between atoms: C_21  and  C_22
REMARK                            x       y       z     vdW  Elec       q    Type
REMARK                         _______ _______ _______ _____ _____    ______ ____
ROOT
ATOM      1  C   UNL     1       5.826  -1.521   3.198  0.00  0.00    +0.000 C 
ATOM      2  C   UNL     1       7.229  -2.104   3.150  0.00  0.00    +0.000 C 
ATOM      3  C   UNL     1       6.305  -2.546   4.232  0.00  0.00    +0.000 C 
ENDROOT
BRANCH   1   4
ATOM      4  N   UNL     1       5.539  -0.210   3.771  0.00  0.00    +0.000 N 
ATOM      5  C   UNL     1       5.872   1.041   3.273  0.00  0.00    +0.000 A 
ATOM      6  C   UNL     1       6.155   1.324   1.945  0.00  0.00    +0.000 A 
ATOM      7  C   UNL     1       6.463   2.643   1.585  0.00  0.00    +0.000 A 
ATOM      8  C   UNL     1       6.464   3.652   2.553  0.00  0.00    +0.000 A 
ATOM      9  C   UNL     1       6.139   3.277   3.843  0.00  0.00    +0.000 A 
ATOM     10  N   UNL     1       5.850   2.007   4.213  0.00  0.00    +0.000 NA
ATOM     11  H   UNL     1       5.435  -0.119   4.774  0.00  0.00    +0.000 HD
BRANCH   8  12
ATOM     12  C   UNL     1       6.804   5.043   2.171  0.00  0.00    +0.000 C 
ATOM     13  N   UNL     1       6.812   6.017   3.131  0.00  0.00    +0.000 N 
ATOM     14  O   UNL     1       7.085   5.328   1.011  0.00  0.00    +0.000 OA
ATOM     15  H   UNL     1       6.616   5.894   4.111  0.00  0.00    +0.000 HD
ATOM     16  H   UNL     1       7.057   6.951   2.823  0.00  0.00    +0.000 HD
ENDBRANCH   8  12
ENDBRANCH   1   4
BRANCH   1  19
ATOM     17  C   UNL     1       2.459  -2.645   1.660  0.00  0.00    +0.000 A 
ATOM     18  C   UNL     1       3.427  -2.120   2.537  0.00  0.00    +0.000 A 
ATOM     19  C   UNL     1       4.787  -2.007   2.186  0.00  0.00    +0.000 A 
ATOM     20  C   UNL     1       5.137  -2.372   0.877  0.00  0.00    +0.000 A 
ATOM     21  C   UNL     1       4.187  -2.863  -0.017  0.00  0.00    +0.000 A 
ATOM     22  C   UNL     1       2.848  -3.002   0.364  0.00  0.00    +0.000 A 
BRANCH  17  24
ATOM     23  C   UNL     1       0.374  -3.792   1.790  0.00  0.00    +0.000 C 
ATOM     24  O   UNL     1       1.199  -2.702   2.197  0.00  0.00    +0.000 OA
ENDBRANCH  17  24
BRANCH  22  25
ATOM     25  C   UNL     1       1.956  -3.477  -0.642  0.00  0.00    +0.000 C 
ATOM     26  N   UNL     1       1.255  -3.891  -1.477  0.00  0.00    +0.000 NA
ENDBRANCH  22  25
ENDBRANCH   1  19
TORSDOF 5
