REMARK  Name = 
REMARK  6 active torsions:
REMARK  status: ('A' for Active; 'I' for Inactive)
REMARK    1  A    between atoms: C_2  and  C_18
REMARK    2  A    between atoms: N_3  and  C_4
REMARK    3  A    between atoms: C_4  and  C_5
REMARK    4  A    between atoms: C_8  and  C_9
REMARK    5  A    between atoms: C_9  and  N_10
REMARK    6  A    between atoms: N_10  and  C_11
REMARK                            x       y       z     vdW  Elec       q    Type
REMARK                         _______ _______ _______ _____ _____    ______ ____
ROOT
ATOM      1  C   UNL     1       2.395  -1.025  -2.122  0.00  0.00    +0.000 C 
ENDROOT
BRANCH   1   2
ATOM      2  C   UNL     1       3.313  -1.553  -3.182  0.00  0.00    +0.000 A 
ATOM      3  C   UNL     1       4.105  -0.700  -3.949  0.00  0.00    +0.000 A 
ATOM      4  C   UNL     1       4.940  -1.227  -4.931  0.00  0.00    +0.000 A 
ATOM      5  C   UNL     1       4.969  -2.607  -5.126  0.00  0.00    +0.000 A 
ATOM      6  N   UNL     1       4.197  -3.454  -4.398  0.00  0.00    +0.000 NA
ATOM      7  C   UNL     1       3.381  -2.912  -3.466  0.00  0.00    +0.000 A 
BRANCH   5   8
ATOM      8  C   UNL     1       5.925  -3.212  -6.142  0.00  0.00    +0.000 C 
BRANCH   8   9
ATOM      9  N   UNL     1       5.246  -3.945  -7.211  0.00  0.00    +0.000 NA
ATOM     10  H   UNL     1       4.620  -3.328  -7.720  0.00  0.00    +0.000 HD
BRANCH   9  11
ATOM     11  C   UNL     1       6.155  -4.549  -8.139  0.00  0.00    +0.000 C 
ATOM     12  C   UNL     1       7.084  -3.613  -8.899  0.00  0.00    +0.000 C 
ATOM     13  C   UNL     1       7.429  -4.436 -10.127  0.00  0.00    +0.000 C 
ATOM     14  C   UNL     1       6.190  -5.292 -10.361  0.00  0.00    +0.000 C 
ATOM     15  N   UNL     1       5.324  -5.073  -9.203  0.00  0.00    +0.000 NA
ATOM     16  H   UNL     1       4.890  -5.939  -8.889  0.00  0.00    +0.000 HD
ENDBRANCH   9  11
ENDBRANCH   8   9
ENDBRANCH   5   8
ENDBRANCH   1   2
BRANCH   1  19
ATOM     17  O   UNL     1       1.520   1.507  -2.985  0.00  0.00    +0.000 OA
ATOM     18  C   UNL     1       0.774   0.540  -3.120  0.00  0.00    +0.000 C 
ATOM     19  N   UNL     1       1.101  -0.710  -2.666  0.00  0.00    +0.000 N 
ATOM     20  H   UNL     1       0.541  -1.501  -2.966  0.00  0.00    +0.000 HD
BRANCH  18  21
ATOM     21  C   UNL     1      -0.550   0.675  -3.741  0.00  0.00    +0.000 A 
ATOM     22  C   UNL     1      -1.172   1.916  -3.776  0.00  0.00    +0.000 A 
ATOM     23  S   UNL     1      -2.708   1.889  -4.516  0.00  0.00    +0.000 S 
ATOM     24  C   UNL     1      -2.575   0.228  -4.862  0.00  0.00    +0.000 A 
ATOM     25  N   UNL     1      -3.561  -0.430  -5.529  0.00  0.00    +0.000 NA
ATOM     26  C   UNL     1      -3.306  -1.674  -5.766  0.00  0.00    +0.000 A 
ATOM     27  N   UNL     1      -2.162  -2.325  -5.382  0.00  0.00    +0.000 N 
ATOM     28  C   UNL     1      -1.180  -1.722  -4.634  0.00  0.00    +0.000 A 
ATOM     29  O   UNL     1      -0.240  -2.367  -4.180  0.00  0.00    +0.000 OA
ATOM     30  C   UNL     1      -1.390  -0.306  -4.390  0.00  0.00    +0.000 A 
ATOM     31  H   UNL     1      -2.037  -3.308  -5.572  0.00  0.00    +0.000 HD
ENDBRANCH  18  21
ENDBRANCH   1  19
TORSDOF 6
