REMARK  Name = 
REMARK  9 active torsions:
REMARK  status: ('A' for Active; 'I' for Inactive)
REMARK    1  A    between atoms: C_1  and  C_2
REMARK    2  A    between atoms: C_2  and  N_3
REMARK    3  A    between atoms: C_2  and  C_19
REMARK    4  A    between atoms: N_3  and  C_4
REMARK    5  A    between atoms: C_4  and  C_5
REMARK    6  A    between atoms: C_8  and  C_9
REMARK    7  A    between atoms: C_9  and  N_10
REMARK    8  A    between atoms: N_10  and  C_11
REMARK    9  A    between atoms: C_11  and  C_12
REMARK                            x       y       z     vdW  Elec       q    Type
REMARK                         _______ _______ _______ _____ _____    ______ ____
ROOT
ATOM      1  C   UNL     1       0.501   0.580   0.850  0.00  0.00    +0.000 C 
ENDROOT
BRANCH   1   2
ATOM      2  C   UNL     1      -0.988   0.636   1.049  0.00  0.00    +0.000 A 
ATOM      3  C   UNL     1      -1.850  -0.014   0.160  0.00  0.00    +0.000 A 
ATOM      4  C   UNL     1      -3.212   0.250   0.194  0.00  0.00    +0.000 A 
ATOM      5  C   UNL     1      -3.689   1.172   1.119  0.00  0.00    +0.000 A 
ATOM      6  N   UNL     1      -2.889   1.763   2.046  0.00  0.00    +0.000 NA
ATOM      7  C   UNL     1      -1.563   1.493   1.980  0.00  0.00    +0.000 A 
BRANCH   5   8
ATOM      8  C   UNL     1      -5.157   1.567   1.091  0.00  0.00    +0.000 C 
BRANCH   8   9
ATOM      9  N   UNL     1      -5.424   2.911   1.626  0.00  0.00    +0.000 NA
ATOM     10  H   UNL     1      -4.901   2.965   2.505  0.00  0.00    +0.000 HD
BRANCH   9  11
ATOM     11  C   UNL     1      -4.914   3.976   0.744  0.00  0.00    +0.000 C 
BRANCH  11  12
ATOM     12  C   UNL     1      -5.238   5.351   1.355  0.00  0.00    +0.000 C 
ATOM     13  C   UNL     1      -6.734   5.613   1.471  0.00  0.00    +0.000 C 
ATOM     14  C   UNL     1      -6.786   7.108   1.713  0.00  0.00    +0.000 C 
ATOM     15  C   UNL     1      -5.547   7.654   1.013  0.00  0.00    +0.000 C 
ATOM     16  N   UNL     1      -4.792   6.489   0.537  0.00  0.00    +0.000 NA
ATOM     17  H   UNL     1      -3.791   6.639   0.651  0.00  0.00    +0.000 HD
ENDBRANCH  11  12
ENDBRANCH   9  11
ENDBRANCH   8   9
ENDBRANCH   5   8
ENDBRANCH   1   2
BRANCH   1  18
ATOM     18  N   UNL     1       1.270   0.266   2.059  0.00  0.00    +0.000 NA
ATOM     19  H   UNL     1       1.035  -0.707   2.296  0.00  0.00    +0.000 HD
BRANCH  18  21
ATOM     20  C   UNL     1       3.106   1.800   1.490  0.00  0.00    +0.000 C 
ATOM     21  C   UNL     1       2.727   0.334   1.808  0.00  0.00    +0.000 C 
BRANCH  21  22
ATOM     22  C   UNL     1       3.525  -0.175   3.017  0.00  0.00    +0.000 A 
ATOM     23  C   UNL     1       4.825   0.242   3.292  0.00  0.00    +0.000 A 
ATOM     24  S   UNL     1       5.453  -0.338   4.765  0.00  0.00    +0.000 S 
ATOM     25  C   UNL     1       4.043  -1.236   5.064  0.00  0.00    +0.000 A 
ATOM     26  N   UNL     1       3.900  -1.936   6.221  0.00  0.00    +0.000 NA
ATOM     27  C   UNL     1       2.782  -2.577   6.314  0.00  0.00    +0.000 A 
ATOM     28  N   UNL     1       1.824  -2.625   5.331  0.00  0.00    +0.000 N 
ATOM     29  C   UNL     1       1.981  -2.021   4.105  0.00  0.00    +0.000 A 
ATOM     30  O   UNL     1       1.220  -2.254   3.173  0.00  0.00    +0.000 OA
ATOM     31  C   UNL     1       3.146  -1.158   4.013  0.00  0.00    +0.000 A 
ATOM     32  H   UNL     1       1.014  -3.215   5.436  0.00  0.00    +0.000 HD
ENDBRANCH  21  22
ENDBRANCH  18  21
ENDBRANCH   1  18
TORSDOF 8
