REMARK  Name = 
REMARK  7 active torsions:
REMARK  status: ('A' for Active; 'I' for Inactive)
REMARK    1  A    between atoms: C_7  and  C_8
REMARK    2  A    between atoms: N_10  and  C_11
REMARK    3  A    between atoms: C_11  and  C_12
REMARK    4  A    between atoms: C_15  and  C_16
REMARK    5  A    between atoms: C_16  and  N_17
REMARK    6  A    between atoms: N_17  and  C_18
REMARK    7  A    between atoms: C_18  and  C_19
REMARK                            x       y       z     vdW  Elec       q    Type
REMARK                         _______ _______ _______ _____ _____    ______ ____
ROOT
ATOM      1  C   UNL     1       9.191   1.410   1.521  0.00  0.00    +0.000 C 
ATOM      2  O   UNL     1       9.481   0.666   0.587  0.00  0.00    +0.000 OA
ATOM      3  N   UNL     1       8.706   2.674   1.298  0.00  0.00    +0.000 N 
ATOM      4  H   UNL     1       8.475   3.290   2.072  0.00  0.00    +0.000 HD
ENDROOT
BRANCH   1  11
ATOM      5  N   UNL     1       8.422   2.807   8.055  0.00  0.00    +0.000 N 
ATOM      6  C   UNL     1       8.680   2.373   6.798  0.00  0.00    +0.000 A 
ATOM      7  N   UNL     1       9.168   1.189   6.587  0.00  0.00    +0.000 NA
ATOM      8  C   UNL     1       9.350   0.859   5.280  0.00  0.00    +0.000 A 
ATOM      9  S   UNL     1       9.961  -0.667   4.843  0.00  0.00    +0.000 S 
ATOM     10  C   UNL     1       9.840  -0.301   3.183  0.00  0.00    +0.000 A 
ATOM     11  C   UNL     1       9.348   0.974   2.919  0.00  0.00    +0.000 A 
ATOM     12  C   UNL     1       9.075   1.644   4.174  0.00  0.00    +0.000 A 
ATOM     13  C   UNL     1       8.555   2.964   4.457  0.00  0.00    +0.000 A 
ATOM     14  O   UNL     1       8.261   3.793   3.599  0.00  0.00    +0.000 OA
ATOM     15  N   UNL     1       8.395   3.251   5.790  0.00  0.00    +0.000 N 
ATOM     16  H   UNL     1       8.852   2.244   8.782  0.00  0.00    +0.000 HD
ATOM     17  H   UNL     1       8.410   3.799   8.245  0.00  0.00    +0.000 HD
ATOM     18  H   UNL     1       8.002   4.154   5.996  0.00  0.00    +0.000 HD
ENDBRANCH   1  11
BRANCH   3  19
ATOM     19  C   UNL     1       8.519   3.190  -0.036  0.00  0.00    +0.000 C 
BRANCH  19  20
ATOM     20  C   UNL     1       7.967   4.593  -0.025  0.00  0.00    +0.000 A 
ATOM     21  C   UNL     1       8.822   5.703   0.001  0.00  0.00    +0.000 A 
ATOM     22  C   UNL     1       8.304   7.004   0.004  0.00  0.00    +0.000 A 
ATOM     23  C   UNL     1       6.919   7.225  -0.014  0.00  0.00    +0.000 A 
ATOM     24  C   UNL     1       6.065   6.114  -0.018  0.00  0.00    +0.000 A 
ATOM     25  C   UNL     1       6.583   4.814  -0.018  0.00  0.00    +0.000 A 
BRANCH  23  26
ATOM     26  C   UNL     1       6.354   8.628  -0.010  0.00  0.00    +0.000 C 
BRANCH  26  27
ATOM     27  N   UNL     1       6.794   9.382  -1.178  0.00  0.00    +0.000 NA
ATOM     28  H   UNL     1       6.525   8.887  -2.030  0.00  0.00    +0.000 HD
BRANCH  27  29
ATOM     29  C   UNL     1       6.169  10.716  -1.225  0.00  0.00    +0.000 C 
BRANCH  29  30
ATOM     30  C   UNL     1       6.583  11.511  -2.454  0.00  0.00    +0.000 A 
ATOM     31  N   UNL     1       6.300  10.978  -3.665  0.00  0.00    +0.000 NA
ATOM     32  C   UNL     1       6.731  11.668  -4.737  0.00  0.00    +0.000 A 
ATOM     33  C   UNL     1       7.412  12.859  -4.650  0.00  0.00    +0.000 A 
ATOM     34  C   UNL     1       7.630  13.328  -3.377  0.00  0.00    +0.000 A 
ATOM     35  N   UNL     1       7.226  12.683  -2.267  0.00  0.00    +0.000 NA
ENDBRANCH  29  30
ENDBRANCH  27  29
ENDBRANCH  26  27
ENDBRANCH  23  26
ENDBRANCH  19  20
ENDBRANCH   3  19
TORSDOF 7
