REMARK  Name = 
REMARK  5 active torsions:
REMARK  status: ('A' for Active; 'I' for Inactive)
REMARK    1  A    between atoms: N_1  and  C_2
REMARK    2  A    between atoms: C_2  and  C_3
REMARK    3  A    between atoms: C_6  and  O_7
REMARK    4  A    between atoms: O_7  and  C_8
REMARK    5  A    between atoms: C_8  and  C_9
REMARK                            x       y       z     vdW  Elec       q    Type
REMARK                         _______ _______ _______ _____ _____    ______ ____
ROOT
ATOM      1  C   UNL     1       2.805   1.367   0.204  0.00  0.00    +0.000 A 
ATOM      2  C   UNL     1       2.211   2.470  -0.426  0.00  0.00    +0.000 A 
ATOM      3  C   UNL     1       2.620   3.771  -0.118  0.00  0.00    +0.000 A 
ATOM      4  C   UNL     1       3.618   3.986   0.831  0.00  0.00    +0.000 A 
ATOM      5  C   UNL     1       4.258   2.890   1.415  0.00  0.00    +0.000 A 
ATOM      6  C   UNL     1       3.846   1.591   1.112  0.00  0.00    +0.000 A 
ENDROOT
BRANCH   1   7
ATOM      7  C   UNL     1       2.320  -0.033  -0.065  0.00  0.00    +0.000 C 
BRANCH   7   8
ATOM      8  N   UNL     1       2.537  -0.424  -1.450  0.00  0.00    +0.000 NA
ATOM      9  H   UNL     1       2.279  -1.402  -1.563  0.00  0.00    +0.000 HD
ATOM     10  H   UNL     1       3.534  -0.362  -1.655  0.00  0.00    +0.000 HD
ENDBRANCH   7   8
ENDBRANCH   1   7
BRANCH   4  11
ATOM     11  O   UNL     1       3.892   5.297   1.126  0.00  0.00    +0.000 OA
BRANCH  11  12
ATOM     12  C   UNL     1       4.481   5.502   2.413  0.00  0.00    +0.000 C 
BRANCH  12  13
ATOM     13  C   UNL     1       4.307   6.917   2.890  0.00  0.00    +0.000 A 
ATOM     14  C   UNL     1       5.197   7.460   3.821  0.00  0.00    +0.000 A 
ATOM     15  C   UNL     1       4.977   8.737   4.329  0.00  0.00    +0.000 A 
ATOM     16  C   UNL     1       3.863   9.430   3.890  0.00  0.00    +0.000 A 
ATOM     17  N   UNL     1       2.974   8.938   3.001  0.00  0.00    +0.000 NA
ATOM     18  C   UNL     1       3.213   7.694   2.525  0.00  0.00    +0.000 A 
ENDBRANCH  12  13
ENDBRANCH  11  12
ENDBRANCH   4  11
TORSDOF 5
