REMARK  Name = 
REMARK  7 active torsions:
REMARK  status: ('A' for Active; 'I' for Inactive)
REMARK    1  A    between atoms: C_1  and  O_2
REMARK    2  A    between atoms: O_2  and  C_3
REMARK    3  A    between atoms: C_5  and  C_6
REMARK    4  A    between atoms: C_11  and  N_12
REMARK    5  A    between atoms: N_12  and  C_13
REMARK    6  A    between atoms: C_13  and  C_14
REMARK    7  A    between atoms: C_14  and  C_15
REMARK                            x       y       z     vdW  Elec       q    Type
REMARK                         _______ _______ _______ _____ _____    ______ ____
ROOT
ATOM      1  C   UNL     1       4.312  -0.494   2.732  0.00  0.00    +0.000 A 
ATOM      2  C   UNL     1       3.964  -1.823   2.995  0.00  0.00    +0.000 A 
ATOM      3  C   UNL     1       3.382  -2.611   2.000  0.00  0.00    +0.000 A 
ATOM      4  C   UNL     1       3.170  -2.018   0.770  0.00  0.00    +0.000 A 
ATOM      5  N   UNL     1       3.457  -0.722   0.490  0.00  0.00    +0.000 NA
ATOM      6  C   UNL     1       4.017   0.039   1.459  0.00  0.00    +0.000 A 
ENDROOT
BRANCH   3   7
ATOM      7  C   UNL     1       3.021  -4.014   2.322  0.00  0.00    +0.000 C 
ATOM      8  N   UNL     1       2.450  -4.797   1.360  0.00  0.00    +0.000 N 
ATOM      9  O   UNL     1       3.225  -4.478   3.442  0.00  0.00    +0.000 OA
ATOM     10  H   UNL     1       2.221  -4.515   0.418  0.00  0.00    +0.000 HD
ATOM     11  H   UNL     1       2.207  -5.741   1.636  0.00  0.00    +0.000 HD
ENDBRANCH   3   7
BRANCH   1  13
ATOM     12  C   UNL     1       5.379  -0.260   4.848  0.00  0.00    +0.000 C 
ATOM     13  O   UNL     1       4.891   0.345   3.654  0.00  0.00    +0.000 OA
ENDBRANCH   1  13
BRANCH   6  14
ATOM     14  N   UNL     1       4.290   1.395   1.190  0.00  0.00    +0.000 N 
ATOM     15  H   UNL     1       5.282   1.570   1.330  0.00  0.00    +0.000 HD
BRANCH  14  16
ATOM     16  C   UNL     1       3.711   1.917  -0.048  0.00  0.00    +0.000 C 
BRANCH  16  17
ATOM     17  C   UNL     1       4.234   3.326  -0.362  0.00  0.00    +0.000 C 
BRANCH  17  18
ATOM     18  C   UNL     1       3.474   3.972  -1.501  0.00  0.00    +0.000 A 
ATOM     19  C   UNL     1       2.342   4.759  -1.242  0.00  0.00    +0.000 A 
ATOM     20  C   UNL     1       1.624   5.340  -2.290  0.00  0.00    +0.000 A 
ATOM     21  C   UNL     1       2.024   5.135  -3.608  0.00  0.00    +0.000 A 
ATOM     22  C   UNL     1       3.140   4.346  -3.879  0.00  0.00    +0.000 A 
ATOM     23  C   UNL     1       3.860   3.764  -2.833  0.00  0.00    +0.000 A 
ENDBRANCH  17  18
ENDBRANCH  16  17
ENDBRANCH  14  16
ENDBRANCH   6  14
TORSDOF 6
