REMARK  Name = 
REMARK  4 active torsions:
REMARK  status: ('A' for Active; 'I' for Inactive)
REMARK    1  A    between atoms: C_4  and  C_5
REMARK    2  A    between atoms: C_9  and  C_10
REMARK    3  A    between atoms: C_10  and  C_11
REMARK    4  A    between atoms: C_11  and  N_12
REMARK                            x       y       z     vdW  Elec       q    Type
REMARK                         _______ _______ _______ _____ _____    ______ ____
ROOT
ATOM      1  C   UNL     1      -2.856   0.433  -0.176  0.00  0.00    +0.000 A 
ATOM      2  C   UNL     1      -3.713  -0.090   0.791  0.00  0.00    +0.000 A 
ATOM      3  C   UNL     1      -5.078   0.116   0.671  0.00  0.00    +0.000 A 
ATOM      4  C   UNL     1      -5.562   0.850  -0.403  0.00  0.00    +0.000 A 
ATOM      5  C   UNL     1      -4.666   1.372  -1.335  0.00  0.00    +0.000 A 
ATOM      6  N   UNL     1      -3.327   1.168  -1.223  0.00  0.00    +0.000 NA
ENDROOT
BRANCH   1  10
ATOM      7  C   UNL     1       1.407  -0.176   0.003  0.00  0.00    +0.000 A 
ATOM      8  C   UNL     1       0.545  -1.155   0.483  0.00  0.00    +0.000 A 
ATOM      9  C   UNL     1      -0.838  -0.960   0.416  0.00  0.00    +0.000 A 
ATOM     10  C   UNL     1      -1.393   0.217  -0.125  0.00  0.00    +0.000 A 
ATOM     11  C   UNL     1      -0.497   1.184  -0.613  0.00  0.00    +0.000 A 
ATOM     12  C   UNL     1       0.887   0.993  -0.548  0.00  0.00    +0.000 A 
ENDBRANCH   1  10
BRANCH   5  13
ATOM     13  C   UNL     1      -5.112   2.195  -2.531  0.00  0.00    +0.000 C 
BRANCH  13  14
ATOM     14  C   UNL     1      -6.628   2.365  -2.651  0.00  0.00    +0.000 C 
BRANCH  14  15
ATOM     15  N   UNL     1      -7.022   3.171  -3.811  0.00  0.00    +0.000 N 
ATOM     16  C   UNL     1      -8.429   3.295  -3.901  0.00  0.00    +0.000 A 
ATOM     17  C   UNL     1      -8.968   4.025  -4.957  0.00  0.00    +0.000 A 
ATOM     18  C   UNL     1     -10.352   4.174  -5.053  0.00  0.00    +0.000 A 
ATOM     19  C   UNL     1     -11.167   3.591  -4.093  0.00  0.00    +0.000 A 
ATOM     20  C   UNL     1     -10.558   2.890  -3.072  0.00  0.00    +0.000 A 
ATOM     21  N   UNL     1      -9.221   2.737  -2.959  0.00  0.00    +0.000 NA
ATOM     22  H   UNL     1      -6.679   2.787  -4.688  0.00  0.00    +0.000 HD
ENDBRANCH  14  15
ENDBRANCH  13  14
ENDBRANCH   5  13
TORSDOF 4
