REMARK  Name = 
REMARK  5 active torsions:
REMARK  status: ('A' for Active; 'I' for Inactive)
REMARK    1  A    between atoms: C_1  and  C_2
REMARK    2  A    between atoms: C_2  and  O_3
REMARK    3  A    between atoms: C_2  and  C_13
REMARK    4  A    between atoms: O_3  and  C_4
REMARK    5  A    between atoms: C_7  and  C_8
REMARK                            x       y       z     vdW  Elec       q    Type
REMARK                         _______ _______ _______ _____ _____    ______ ____
ROOT
ATOM      1  C   UNL     1       2.957  -2.450   0.533  0.00  0.00    +0.000 A 
ATOM      2  C   UNL     1       2.297  -2.513   1.754  0.00  0.00    +0.000 A 
ATOM      3  C   UNL     1       2.433  -3.648   2.553  0.00  0.00    +0.000 A 
ATOM      4  C   UNL     1       3.244  -4.685   2.109  0.00  0.00    +0.000 A 
ATOM      5  N   UNL     1       3.920  -4.658   0.929  0.00  0.00    +0.000 NA
ATOM      6  C   UNL     1       3.748  -3.538   0.176  0.00  0.00    +0.000 A 
ENDROOT
BRANCH   4   7
ATOM      7  C   UNL     1       3.379  -5.912   2.954  0.00  0.00    +0.000 C 
ATOM      8  N   UNL     1       4.198  -6.890   2.461  0.00  0.00    +0.000 N 
ATOM      9  O   UNL     1       2.789  -6.048   4.019  0.00  0.00    +0.000 OA
ATOM     10  H   UNL     1       4.659  -6.759   1.568  0.00  0.00    +0.000 HD
ATOM     11  H   UNL     1       4.303  -7.753   2.974  0.00  0.00    +0.000 HD
ENDBRANCH   4   7
BRANCH   1  12
ATOM     12  O   UNL     1       2.855  -1.443  -0.382  0.00  0.00    +0.000 OA
BRANCH  12  14
ATOM     13  C   UNL     1       0.957   0.057   0.014  0.00  0.00    +0.000 C 
ATOM     14  C   UNL     1       2.475  -0.126   0.054  0.00  0.00    +0.000 C 
BRANCH  14  15
ATOM     15  C   UNL     1       3.121   0.888  -0.888  0.00  0.00    +0.000 A 
ATOM     16  C   UNL     1       3.491   2.155  -0.408  0.00  0.00    +0.000 A 
ATOM     17  C   UNL     1       4.097   3.090  -1.253  0.00  0.00    +0.000 A 
ATOM     18  C   UNL     1       4.333   2.768  -2.587  0.00  0.00    +0.000 A 
ATOM     19 CL   UNL     1       5.117   3.902  -3.616  0.00  0.00    +0.000 Cl
ATOM     20  C   UNL     1       3.943   1.530  -3.091  0.00  0.00    +0.000 A 
ATOM     21  C   UNL     1       3.331   0.599  -2.248  0.00  0.00    +0.000 A 
ENDBRANCH  14  15
ENDBRANCH  12  14
ENDBRANCH   1  12
TORSDOF 4
