REMARK  Name = 
REMARK  9 active torsions:
REMARK  status: ('A' for Active; 'I' for Inactive)
REMARK    1  A    between atoms: C_1  and  O_2
REMARK    2  A    between atoms: O_2  and  C_3
REMARK    3  A    between atoms: C_5  and  C_6
REMARK    4  A    between atoms: C_11  and  C_12
REMARK    5  A    between atoms: N_14  and  C_15
REMARK    6  A    between atoms: C_15  and  C_16
REMARK    7  A    between atoms: N_20  and  C_21
REMARK    8  A    between atoms: C_21  and  C_22
REMARK    9  A    between atoms: C_22  and  N_23
REMARK                            x       y       z     vdW  Elec       q    Type
REMARK                         _______ _______ _______ _____ _____    ______ ____
ROOT
ATOM      1  C   UNL     1       4.835  -4.351  -1.235  0.00  0.00    +0.000 C 
ENDROOT
BRANCH   1   2
ATOM      2  C   UNL     1       5.723  -5.479  -1.663  0.00  0.00    +0.000 A 
ATOM      3  C   UNL     1       5.327  -6.807  -1.535  0.00  0.00    +0.000 A 
ATOM      4  C   UNL     1       6.200  -7.824  -1.917  0.00  0.00    +0.000 A 
ATOM      5  C   UNL     1       7.478  -7.507  -2.368  0.00  0.00    +0.000 A 
ATOM      6  N   UNL     1       8.357  -8.563  -2.598  0.00  0.00    +0.000 N 
ATOM      7  N   UNL     1       7.883  -6.227  -2.491  0.00  0.00    +0.000 NA
ATOM      8  C   UNL     1       7.001  -5.251  -2.159  0.00  0.00    +0.000 A 
ATOM      9  H   UNL     1       8.015  -9.205  -3.310  0.00  0.00    +0.000 HD
BRANCH   6  10
ATOM     10  C   UNL     1       9.761  -8.231  -2.797  0.00  0.00    +0.000 C 
BRANCH  10  11
ATOM     11  C   UNL     1      10.577  -9.546  -2.847  0.00  0.00    +0.000 C 
BRANCH  11  12
ATOM     12  N   UNL     1      10.202 -10.446  -3.963  0.00  0.00    +0.000 NA
ATOM     13  C   UNL     1      10.575  -9.873  -5.266  0.00  0.00    +0.000 C 
ATOM     14  C   UNL     1      10.093 -10.769  -6.403  0.00  0.00    +0.000 C 
ATOM     15  C   UNL     1      10.657 -12.178  -6.275  0.00  0.00    +0.000 C 
ATOM     16  C   UNL     1      10.386 -12.738  -4.883  0.00  0.00    +0.000 C 
ATOM     17  C   UNL     1      10.832 -11.766  -3.787  0.00  0.00    +0.000 C 
ENDBRANCH  11  12
ENDBRANCH  10  11
ENDBRANCH   6  10
ENDBRANCH   1   2
BRANCH   1  20
ATOM     18  C   UNL     1       4.283  -3.040   0.761  0.00  0.00    +0.000 C 
ATOM     19  O   UNL     1       3.320  -2.520   0.205  0.00  0.00    +0.000 OA
ATOM     20  N   UNL     1       5.036  -4.013   0.153  0.00  0.00    +0.000 N 
ATOM     21  H   UNL     1       5.889  -4.328   0.599  0.00  0.00    +0.000 HD
BRANCH  18  30
ATOM     22  C   UNL     1       7.249  -3.096   2.382  0.00  0.00    +0.000 A 
ATOM     23  N   UNL     1       8.273  -3.095   3.257  0.00  0.00    +0.000 NA
ATOM     24  C   UNL     1       8.032  -2.753   4.533  0.00  0.00    +0.000 A 
ATOM     25  C   UNL     1       9.198  -2.769   5.474  0.00  0.00    +0.000 C 
ATOM     26  N   UNL     1       6.850  -2.383   5.033  0.00  0.00    +0.000 NA
ATOM     27  C   UNL     1       5.857  -2.398   4.129  0.00  0.00    +0.000 A 
ATOM     28  S   UNL     1       4.290  -1.916   4.578  0.00  0.00    +0.000 S 
ATOM     29  C   UNL     1       3.697  -2.189   3.004  0.00  0.00    +0.000 A 
ATOM     30  C   UNL     1       4.656  -2.693   2.138  0.00  0.00    +0.000 A 
ATOM     31  C   UNL     1       5.951  -2.765   2.794  0.00  0.00    +0.000 A 
BRANCH  22  33
ATOM     32  C   UNL     1       8.878  -3.525   0.750  0.00  0.00    +0.000 C 
ATOM     33  O   UNL     1       7.492  -3.447   1.069  0.00  0.00    +0.000 OA
ENDBRANCH  22  33
ENDBRANCH  18  30
ENDBRANCH   1  20
TORSDOF 7
