REMARK  Name = 
REMARK  8 active torsions:
REMARK  status: ('A' for Active; 'I' for Inactive)
REMARK    1  A    between atoms: C_1  and  O_2
REMARK    2  A    between atoms: O_2  and  C_3
REMARK    3  A    between atoms: C_5  and  C_6
REMARK    4  A    between atoms: C_6  and  N_7
REMARK    5  A    between atoms: C_8  and  C_10
REMARK    6  A    between atoms: C_17  and  C_18
REMARK    7  A    between atoms: C_18  and  N_19
REMARK    8  A    between atoms: C_20  and  C_22
REMARK                            x       y       z     vdW  Elec       q    Type
REMARK                         _______ _______ _______ _____ _____    ______ ____
ROOT
ATOM      1  C   UNL     1       2.940  -0.117   1.137  0.00  0.00    +0.000 A 
ATOM      2  C   UNL     1       2.611  -1.121   2.061  0.00  0.00    +0.000 A 
ATOM      3  C   UNL     1       3.382  -1.327   3.216  0.00  0.00    +0.000 A 
ATOM      4  C   UNL     1       4.483  -0.497   3.449  0.00  0.00    +0.000 A 
ATOM      5  C   UNL     1       4.820   0.501   2.533  0.00  0.00    +0.000 A 
ATOM      6  C   UNL     1       4.066   0.698   1.364  0.00  0.00    +0.000 A 
ENDROOT
BRANCH   1   8
ATOM      7  C   UNL     1       0.915  -0.392  -0.084  0.00  0.00    +0.000 C 
ATOM      8  O   UNL     1       2.241   0.120  -0.019  0.00  0.00    +0.000 OA
ENDBRANCH   1   8
BRANCH   3   9
ATOM      9  C   UNL     1       2.997  -2.388   4.215  0.00  0.00    +0.000 C 
BRANCH   9  10
ATOM     10  N   UNL     1       2.114  -1.855   5.224  0.00  0.00    +0.000 N 
ATOM     11  C   UNL     1       1.593  -2.648   6.216  0.00  0.00    +0.000 C 
ATOM     12  O   UNL     1       1.811  -3.854   6.281  0.00  0.00    +0.000 OA
ATOM     13  H   UNL     1       1.983  -0.855   5.257  0.00  0.00    +0.000 HD
BRANCH  11  14
ATOM     14  C   UNL     1       0.774  -1.961   7.181  0.00  0.00    +0.000 A 
ATOM     15  C   UNL     1       0.350  -0.650   7.303  0.00  0.00    +0.000 A 
ATOM     16  C   UNL     1      -0.437  -0.624   8.469  0.00  0.00    +0.000 A 
ATOM     17  N   UNL     1      -0.514  -1.817   9.053  0.00  0.00    +0.000 NA
ATOM     18  N   UNL     1       0.223  -2.610   8.257  0.00  0.00    +0.000 N 
ATOM     19  H   UNL     1       0.320  -3.593   8.495  0.00  0.00    +0.000 HD
ENDBRANCH  11  14
ENDBRANCH   9  10
ENDBRANCH   3   9
BRANCH   6  20
ATOM     20  C   UNL     1       4.449   1.831   0.436  0.00  0.00    +0.000 C 
BRANCH  20  21
ATOM     21  N   UNL     1       3.788   3.057   0.823  0.00  0.00    +0.000 N 
ATOM     22  C   UNL     1       4.277   4.301   0.527  0.00  0.00    +0.000 C 
ATOM     23  O   UNL     1       5.339   4.468  -0.065  0.00  0.00    +0.000 OA
ATOM     24  H   UNL     1       2.917   2.960   1.329  0.00  0.00    +0.000 HD
BRANCH  22  25
ATOM     25  C   UNL     1       3.422   5.436   0.903  0.00  0.00    +0.000 A 
ATOM     26  C   UNL     1       3.543   6.649   0.237  0.00  0.00    +0.000 A 
ATOM     27  S   UNL     1       2.419   7.826   0.751  0.00  0.00    +0.000 S 
ATOM     28  C   UNL     1       1.767   6.774   1.918  0.00  0.00    +0.000 A 
ATOM     29  N   UNL     1       0.742   7.169   2.722  0.00  0.00    +0.000 NA
ATOM     30  C   UNL     1       0.369   6.284   3.584  0.00  0.00    +0.000 A 
ATOM     31  N   UNL     1       0.930   5.042   3.721  0.00  0.00    +0.000 N 
ATOM     32  C   UNL     1       1.952   4.592   2.917  0.00  0.00    +0.000 A 
ATOM     33  O   UNL     1       2.402   3.459   3.051  0.00  0.00    +0.000 OA
ATOM     34  C   UNL     1       2.402   5.545   1.921  0.00  0.00    +0.000 A 
ATOM     35  H   UNL     1       0.595   4.394   4.417  0.00  0.00    +0.000 HD
ENDBRANCH  22  25
ENDBRANCH  20  21
ENDBRANCH   6  20
TORSDOF 7
