REMARK  Name = 
REMARK  7 active torsions:
REMARK  status: ('A' for Active; 'I' for Inactive)
REMARK    1  A    between atoms: C_1  and  C_2
REMARK    2  A    between atoms: C_5  and  C_6
REMARK    3  A    between atoms: N_8  and  C_9
REMARK    4  A    between atoms: C_9  and  C_10
REMARK    5  A    between atoms: C_13  and  C_14
REMARK    6  A    between atoms: C_14  and  N_15
REMARK    7  A    between atoms: C_16  and  C_18
REMARK                            x       y       z     vdW  Elec       q    Type
REMARK                         _______ _______ _______ _____ _____    ______ ____
ROOT
ATOM      1  C   UNL     1       6.606   4.986  -0.002  0.00  0.00    +0.000 A 
ATOM      2  C   UNL     1       5.387   5.396   0.556  0.00  0.00    +0.000 A 
ATOM      3  C   UNL     1       5.054   6.755   0.629  0.00  0.00    +0.000 A 
ATOM      4  C   UNL     1       5.927   7.732   0.131  0.00  0.00    +0.000 A 
ATOM      5  C   UNL     1       7.159   7.323  -0.395  0.00  0.00    +0.000 A 
ATOM      6  C   UNL     1       7.490   5.966  -0.472  0.00  0.00    +0.000 A 
ENDROOT
BRANCH   1   7
ATOM      7  C   UNL     1       6.963   3.525  -0.085  0.00  0.00    +0.000 C 
BRANCH   7  10
ATOM      8  C   UNL     1       6.728   1.553  -1.505  0.00  0.00    +0.000 C 
ATOM      9  O   UNL     1       7.329   0.836  -0.713  0.00  0.00    +0.000 OA
ATOM     10  N   UNL     1       6.492   2.890  -1.292  0.00  0.00    +0.000 N 
ATOM     11  H   UNL     1       6.006   3.415  -2.012  0.00  0.00    +0.000 HD
BRANCH   8  16
ATOM     12  C   UNL     1       4.476   1.248  -5.950  0.00  0.00    +0.000 C 
ATOM     13  C   UNL     1       5.228   0.938  -4.701  0.00  0.00    +0.000 C 
ATOM     14  C   UNL     1       5.797  -0.397  -4.445  0.00  0.00    +0.000 C 
ATOM     15  C   UNL     1       6.412  -0.250  -3.166  0.00  0.00    +0.000 C 
ATOM     16  C   UNL     1       6.197   1.026  -2.804  0.00  0.00    +0.000 C 
ATOM     17  N   UNL     1       5.472   1.782  -3.727  0.00  0.00    +0.000 NA
ENDBRANCH   8  16
ENDBRANCH   7  10
ENDBRANCH   1   7
BRANCH   4  18
ATOM     18  C   UNL     1       5.567   9.197   0.180  0.00  0.00    +0.000 C 
BRANCH  18  19
ATOM     19  N   UNL     1       6.019   9.809   1.403  0.00  0.00    +0.000 N 
ATOM     20  C   UNL     1       5.736  11.118   1.701  0.00  0.00    +0.000 C 
ATOM     21  O   UNL     1       5.054  11.824   0.963  0.00  0.00    +0.000 OA
ATOM     22  H   UNL     1       6.771   9.340   1.895  0.00  0.00    +0.000 HD
BRANCH  20  23
ATOM     23  C   UNL     1       6.242  11.616   2.987  0.00  0.00    +0.000 A 
ATOM     24  C   UNL     1       5.621  12.695   3.604  0.00  0.00    +0.000 A 
ATOM     25  S   UNL     1       6.300  13.102   5.115  0.00  0.00    +0.000 S 
ATOM     26  C   UNL     1       7.484  11.888   4.973  0.00  0.00    +0.000 A 
ATOM     27  N   UNL     1       8.423  11.711   5.940  0.00  0.00    +0.000 NA
ATOM     28  C   UNL     1       9.275  10.772   5.691  0.00  0.00    +0.000 A 
ATOM     29  N   UNL     1       9.268   9.992   4.562  0.00  0.00    +0.000 N 
ATOM     30  C   UNL     1       8.324  10.118   3.573  0.00  0.00    +0.000 A 
ATOM     31  O   UNL     1       8.325   9.377   2.595  0.00  0.00    +0.000 OA
ATOM     32  C   UNL     1       7.349  11.167   3.800  0.00  0.00    +0.000 A 
ATOM     33  H   UNL     1       9.959   9.269   4.428  0.00  0.00    +0.000 HD
ENDBRANCH  20  23
ENDBRANCH  18  19
ENDBRANCH   4  18
TORSDOF 6
