REMARK  Name = 
REMARK  6 active torsions:
REMARK  status: ('A' for Active; 'I' for Inactive)
REMARK    1  A    between atoms: C_1  and  C_2
REMARK    2  A    between atoms: C_2  and  N_3
REMARK    3  A    between atoms: C_2  and  C_16
REMARK    4  A    between atoms: C_4  and  C_6
REMARK    5  A    between atoms: C_19  and  C_20
REMARK    6  A    between atoms: C_20  and  N_21
REMARK                            x       y       z     vdW  Elec       q    Type
REMARK                         _______ _______ _______ _____ _____    ______ ____
ROOT
ATOM      1  C   UNL     1       2.594  -0.808   1.367  0.00  0.00    +0.000 C 
ATOM      2  C   UNL     1       2.466   0.004   0.074  0.00  0.00    +0.000 C 
ENDROOT
BRANCH   2   3
ATOM      3  C   UNL     1       3.068   1.394   0.180  0.00  0.00    +0.000 A 
ATOM      4  C   UNL     1       2.508   2.436  -0.574  0.00  0.00    +0.000 A 
ATOM      5  C   UNL     1       2.941   3.752  -0.402  0.00  0.00    +0.000 A 
ATOM      6  C   UNL     1       3.965   4.050   0.506  0.00  0.00    +0.000 A 
ATOM      7  C   UNL     1       4.581   3.005   1.201  0.00  0.00    +0.000 A 
ATOM      8  C   UNL     1       4.150   1.689   1.024  0.00  0.00    +0.000 A 
BRANCH   6   9
ATOM      9  C   UNL     1       4.365   5.482   0.761  0.00  0.00    +0.000 C 
BRANCH   9  10
ATOM     10  N   UNL     1       3.550   6.029   1.826  0.00  0.00    +0.000 N 
ATOM     11  C   UNL     1       3.880   7.341   2.135  0.00  0.00    +0.000 A 
ATOM     12  N   UNL     1       4.310   8.163   1.165  0.00  0.00    +0.000 NA
ATOM     13  C   UNL     1       4.628   9.420   1.517  0.00  0.00    +0.000 A 
ATOM     14  C   UNL     1       4.536   9.888   2.802  0.00  0.00    +0.000 A 
ATOM     15  C   UNL     1       4.088   8.975   3.723  0.00  0.00    +0.000 A 
ATOM     16  N   UNL     1       3.763   7.703   3.419  0.00  0.00    +0.000 NA
ATOM     17  H   UNL     1       3.552   5.501   2.691  0.00  0.00    +0.000 HD
ENDBRANCH   9  10
ENDBRANCH   6   9
ENDBRANCH   2   3
BRANCH   2  18
ATOM     18  N   UNL     1       3.068  -0.704  -1.032  0.00  0.00    +0.000 N 
ATOM     19  C   UNL     1       2.402  -1.655  -1.759  0.00  0.00    +0.000 C 
ATOM     20  O   UNL     1       1.195  -1.860  -1.647  0.00  0.00    +0.000 OA
ATOM     21  H   UNL     1       4.081  -0.691  -1.046  0.00  0.00    +0.000 HD
BRANCH  19  22
ATOM     22  C   UNL     1       3.218  -2.403  -2.723  0.00  0.00    +0.000 A 
ATOM     23  C   UNL     1       2.644  -2.945  -3.864  0.00  0.00    +0.000 A 
ATOM     24  S   UNL     1       3.760  -3.759  -4.867  0.00  0.00    +0.000 S 
ATOM     25  C   UNL     1       5.036  -3.470  -3.777  0.00  0.00    +0.000 A 
ATOM     26  N   UNL     1       6.287  -3.947  -4.016  0.00  0.00    +0.000 NA
ATOM     27  C   UNL     1       7.144  -3.686  -3.086  0.00  0.00    +0.000 A 
ATOM     28  N   UNL     1       6.867  -2.982  -1.943  0.00  0.00    +0.000 N 
ATOM     29  C   UNL     1       5.635  -2.434  -1.686  0.00  0.00    +0.000 A 
ATOM     30  O   UNL     1       5.452  -1.728  -0.700  0.00  0.00    +0.000 OA
ATOM     31  C   UNL     1       4.624  -2.730  -2.683  0.00  0.00    +0.000 A 
ATOM     32  H   UNL     1       7.589  -2.788  -1.264  0.00  0.00    +0.000 HD
ENDBRANCH  19  22
ENDBRANCH   2  18
TORSDOF 5
