REMARK  Name = 
REMARK  10 active torsions:
REMARK  status: ('A' for Active; 'I' for Inactive)
REMARK    1  A    between atoms: N_1  and  C_2
REMARK    2  A    between atoms: C_2  and  C_3
REMARK    3  A    between atoms: C_3  and  N_4
REMARK    4  A    between atoms: C_3  and  C_20
REMARK    5  A    between atoms: N_4  and  C_5
REMARK    6  A    between atoms: C_5  and  C_6
REMARK    7  A    between atoms: C_9  and  C_10
REMARK    8  A    between atoms: C_10  and  N_11
REMARK    9  A    between atoms: N_11  and  C_12
REMARK   10  A    between atoms: C_12  and  C_13
REMARK                            x       y       z     vdW  Elec       q    Type
REMARK                         _______ _______ _______ _____ _____    ______ ____
ROOT
ATOM      1  N   UNL     1       2.525   0.410   2.250  0.00  0.00    +0.000 NA
ATOM      2  H   UNL     1       2.974   0.975   2.970  0.00  0.00    +0.000 HD
ENDROOT
BRANCH   1   3
ATOM      3  C   UNL     1       3.006   0.903   0.944  0.00  0.00    +0.000 C 
BRANCH   3   4
ATOM      4  C   UNL     1       4.530   0.893   0.992  0.00  0.00    +0.000 A 
ATOM      5  C   UNL     1       5.307  -0.029   1.682  0.00  0.00    +0.000 A 
ATOM      6  S   UNL     1       6.984   0.229   1.508  0.00  0.00    +0.000 S 
ATOM      7  C   UNL     1       6.728   1.560   0.475  0.00  0.00    +0.000 A 
ATOM      8  N   UNL     1       7.771   2.245  -0.067  0.00  0.00    +0.000 NA
ATOM      9  C   UNL     1       7.419   3.211  -0.846  0.00  0.00    +0.000 A 
ATOM     10  N   UNL     1       6.123   3.564  -1.130  0.00  0.00    +0.000 N 
ATOM     11  C   UNL     1       5.036   2.902  -0.605  0.00  0.00    +0.000 A 
ATOM     12  O   UNL     1       3.887   3.225  -0.888  0.00  0.00    +0.000 OA
ATOM     13  C   UNL     1       5.386   1.806   0.279  0.00  0.00    +0.000 A 
ATOM     14  H   UNL     1       5.918   4.326  -1.755  0.00  0.00    +0.000 HD
ENDBRANCH   3   4
BRANCH   3  15
ATOM     15  C   UNL     1       2.482   0.084  -0.277  0.00  0.00    +0.000 C 
BRANCH  15  16
ATOM     16  N   UNL     1       2.795  -1.351  -0.215  0.00  0.00    +0.000 NA
ATOM     17  H   UNL     1       2.285  -1.852  -0.937  0.00  0.00    +0.000 HD
ATOM     18  H   UNL     1       2.489  -1.705   0.693  0.00  0.00    +0.000 HD
ENDBRANCH  15  16
ENDBRANCH   3  15
ENDBRANCH   1   3
BRANCH   1  19
ATOM     19  C   UNL     1       1.078   0.531   2.417  0.00  0.00    +0.000 C 
BRANCH  19  20
ATOM     20  C   UNL     1       0.668   0.122   3.813  0.00  0.00    +0.000 A 
ATOM     21  C   UNL     1       1.121   0.835   4.933  0.00  0.00    +0.000 A 
ATOM     22  C   UNL     1       0.752   0.444   6.220  0.00  0.00    +0.000 A 
ATOM     23  C   UNL     1      -0.099  -0.652   6.418  0.00  0.00    +0.000 A 
ATOM     24  C   UNL     1      -0.560  -1.359   5.301  0.00  0.00    +0.000 A 
ATOM     25  C   UNL     1      -0.178  -0.978   4.012  0.00  0.00    +0.000 A 
BRANCH  23  26
ATOM     26  C   UNL     1      -0.499  -1.066   7.813  0.00  0.00    +0.000 C 
BRANCH  26  27
ATOM     27  N   UNL     1      -1.183   0.024   8.501  0.00  0.00    +0.000 NA
ATOM     28  H   UNL     1      -2.016   0.286   7.972  0.00  0.00    +0.000 HD
BRANCH  27  29
ATOM     29  C   UNL     1      -1.615  -0.387   9.835  0.00  0.00    +0.000 C 
BRANCH  29  30
ATOM     30  C   UNL     1      -2.328   0.766  10.460  0.00  0.00    +0.000 A 
ATOM     31  C   UNL     1      -1.810   1.798  11.216  0.00  0.00    +0.000 A 
ATOM     32  N   UNL     1      -2.874   2.605  11.503  0.00  0.00    +0.000 N 
ATOM     33  C   UNL     1      -3.981   2.048  10.928  0.00  0.00    +0.000 A 
ATOM     34  N   UNL     1      -3.687   0.936  10.294  0.00  0.00    +0.000 NA
ATOM     35  H   UNL     1      -2.850   3.465  12.031  0.00  0.00    +0.000 HD
ENDBRANCH  29  30
ENDBRANCH  27  29
ENDBRANCH  26  27
ENDBRANCH  23  26
ENDBRANCH  19  20
ENDBRANCH   1  19
TORSDOF 10
