REMARK  Name = 
REMARK  7 active torsions:
REMARK  status: ('A' for Active; 'I' for Inactive)
REMARK    1  A    between atoms: C_2  and  C_19
REMARK    2  A    between atoms: N_3  and  C_4
REMARK    3  A    between atoms: C_4  and  C_5
REMARK    4  A    between atoms: C_8  and  C_9
REMARK    5  A    between atoms: C_9  and  N_10
REMARK    6  A    between atoms: N_10  and  C_11
REMARK    7  A    between atoms: C_11  and  C_12
REMARK                            x       y       z     vdW  Elec       q    Type
REMARK                         _______ _______ _______ _____ _____    ______ ____
ROOT
ATOM      1  C   UNL     1       2.260  -0.572   2.480  0.00  0.00    +0.000 C 
ENDROOT
BRANCH   1   2
ATOM      2  C   UNL     1       3.199  -0.830   3.629  0.00  0.00    +0.000 A 
ATOM      3  C   UNL     1       3.828   0.243   4.269  0.00  0.00    +0.000 A 
ATOM      4  C   UNL     1       4.669   0.025   5.362  0.00  0.00    +0.000 A 
ATOM      5  C   UNL     1       4.896  -1.271   5.852  0.00  0.00    +0.000 A 
ATOM      6  C   UNL     1       4.299  -2.347   5.179  0.00  0.00    +0.000 A 
ATOM      7  C   UNL     1       3.465  -2.131   4.075  0.00  0.00    +0.000 A 
BRANCH   5   8
ATOM      8  C   UNL     1       5.809  -1.526   7.036  0.00  0.00    +0.000 C 
BRANCH   8   9
ATOM      9  N   UNL     1       5.772  -0.427   7.998  0.00  0.00    +0.000 NA
ATOM     10  H   UNL     1       4.812  -0.300   8.316  0.00  0.00    +0.000 HD
BRANCH   9  11
ATOM     11  C   UNL     1       6.656  -0.643   9.147  0.00  0.00    +0.000 C 
BRANCH  11  12
ATOM     12  C   UNL     1       6.586   0.566  10.104  0.00  0.00    +0.000 C 
ATOM     13  C   UNL     1       7.024   1.873   9.457  0.00  0.00    +0.000 C 
ATOM     14  C   UNL     1       7.238   2.778  10.654  0.00  0.00    +0.000 C 
ATOM     15  C   UNL     1       7.664   1.833  11.771  0.00  0.00    +0.000 C 
ATOM     16  N   UNL     1       7.504   0.471  11.249  0.00  0.00    +0.000 NA
ATOM     17  H   UNL     1       7.132  -0.148  11.967  0.00  0.00    +0.000 HD
ENDBRANCH  11  12
ENDBRANCH   9  11
ENDBRANCH   8   9
ENDBRANCH   5   8
ENDBRANCH   1   2
BRANCH   1  20
ATOM     18  O   UNL     1       3.193   1.760   1.212  0.00  0.00    +0.000 OA
ATOM     19  C   UNL     1       3.409   0.671   0.689  0.00  0.00    +0.000 C 
ATOM     20  N   UNL     1       2.950  -0.509   1.218  0.00  0.00    +0.000 N 
ATOM     21  H   UNL     1       3.300  -1.387   0.856  0.00  0.00    +0.000 HD
BRANCH  19  22
ATOM     22  C   UNL     1       4.130   0.566  -0.583  0.00  0.00    +0.000 A 
ATOM     23  C   UNL     1       4.143   1.634  -1.470  0.00  0.00    +0.000 A 
ATOM     24  S   UNL     1       5.048   1.336  -2.884  0.00  0.00    +0.000 S 
ATOM     25  C   UNL     1       5.480  -0.220  -2.344  0.00  0.00    +0.000 A 
ATOM     26  N   UNL     1       6.298  -1.019  -3.081  0.00  0.00    +0.000 NA
ATOM     27  C   UNL     1       6.574  -2.152  -2.529  0.00  0.00    +0.000 A 
ATOM     28  N   UNL     1       6.095  -2.569  -1.314  0.00  0.00    +0.000 N 
ATOM     29  C   UNL     1       5.194  -1.837  -0.578  0.00  0.00    +0.000 A 
ATOM     30  O   UNL     1       4.660  -2.310   0.418  0.00  0.00    +0.000 OA
ATOM     31  C   UNL     1       4.908  -0.523  -1.121  0.00  0.00    +0.000 A 
ATOM     32  H   UNL     1       6.312  -3.487  -0.957  0.00  0.00    +0.000 HD
ENDBRANCH  19  22
ENDBRANCH   1  20
TORSDOF 7
