REMARK  Name = 
REMARK  7 active torsions:
REMARK  status: ('A' for Active; 'I' for Inactive)
REMARK    1  A    between atoms: N_1  and  C_2
REMARK    2  A    between atoms: C_2  and  C_3
REMARK    3  A    between atoms: C_6  and  O_7
REMARK    4  A    between atoms: O_7  and  C_8
REMARK    5  A    between atoms: C_8  and  C_9
REMARK    6  A    between atoms: C_12  and  O_13
REMARK    7  A    between atoms: O_13  and  C_14
REMARK                            x       y       z     vdW  Elec       q    Type
REMARK                         _______ _______ _______ _____ _____    ______ ____
ROOT
ATOM      1  C   UNL     1       3.525   6.227   0.909  0.00  0.00    +0.000 C 
ENDROOT
BRANCH   1   2
ATOM      2  C   UNL     1       3.964   7.520   1.548  0.00  0.00    +0.000 A 
ATOM      3  C   UNL     1       4.250   8.613   0.721  0.00  0.00    +0.000 A 
ATOM      4  C   UNL     1       4.605   9.842   1.260  0.00  0.00    +0.000 A 
ATOM      5  C   UNL     1       4.628  10.028   2.643  0.00  0.00    +0.000 A 
ATOM      6  C   UNL     1       4.365   8.937   3.476  0.00  0.00    +0.000 A 
ATOM      7  C   UNL     1       4.023   7.697   2.935  0.00  0.00    +0.000 A 
BRANCH   5   8
ATOM      8  O   UNL     1       4.926  11.195   3.280  0.00  0.00    +0.000 OA
BRANCH   8   9
ATOM      9  C   UNL     1       4.604  12.415   2.641  0.00  0.00    +0.000 C 
ATOM     10  F   UNL     1       3.961  12.294   1.464  0.00  0.00    +0.000 F 
ATOM     11  F   UNL     1       3.803  13.134   3.461  0.00  0.00    +0.000 F 
ATOM     12  F   UNL     1       5.740  13.122   2.439  0.00  0.00    +0.000 F 
ENDBRANCH   8   9
ENDBRANCH   5   8
ENDBRANCH   1   2
BRANCH   1  13
ATOM     13  O   UNL     1       3.910   5.095   1.685  0.00  0.00    +0.000 OA
BRANCH  13  17
ATOM     14  C   UNL     1       2.902   1.267   0.323  0.00  0.00    +0.000 A 
ATOM     15  C   UNL     1       2.554   2.377  -0.454  0.00  0.00    +0.000 A 
ATOM     16  C   UNL     1       2.875   3.671  -0.038  0.00  0.00    +0.000 A 
ATOM     17  C   UNL     1       3.555   3.877   1.165  0.00  0.00    +0.000 A 
ATOM     18  C   UNL     1       3.920   2.774   1.936  0.00  0.00    +0.000 A 
ATOM     19  C   UNL     1       3.596   1.476   1.522  0.00  0.00    +0.000 A 
BRANCH  14  20
ATOM     20  C   UNL     1       2.509  -0.121  -0.115  0.00  0.00    +0.000 C 
BRANCH  20  21
ATOM     21  N   UNL     1       3.083  -0.458  -1.411  0.00  0.00    +0.000 NA
ATOM     22  H   UNL     1       2.866  -1.426  -1.632  0.00  0.00    +0.000 HD
ATOM     23  H   UNL     1       4.099  -0.392  -1.347  0.00  0.00    +0.000 HD
ENDBRANCH  20  21
ENDBRANCH  14  20
ENDBRANCH  13  17
ENDBRANCH   1  13
TORSDOF 7
