REMARK  Name = 
REMARK  10 active torsions:
REMARK  status: ('A' for Active; 'I' for Inactive)
REMARK    1  A    between atoms: C_1  and  C_2
REMARK    2  A    between atoms: C_2  and  C_3
REMARK    3  A    between atoms: C_4  and  C_5
REMARK    4  A    between atoms: C_5  and  C_6
REMARK    5  A    between atoms: C_5  and  C_17
REMARK    6  A    between atoms: C_6  and  N_7
REMARK    7  A    between atoms: N_7  and  C_8
REMARK    8  A    between atoms: C_11  and  C_12
REMARK    9  A    between atoms: C_21  and  O_22
REMARK   10  A    between atoms: O_22  and  C_23
REMARK                            x       y       z     vdW  Elec       q    Type
REMARK                         _______ _______ _______ _____ _____    ______ ____
ROOT
ATOM      1  C   UNL     1      -3.370   1.084  -0.079  0.00  0.00    +0.000 C 
ENDROOT
BRANCH   1   2
ATOM      2  N   UNL     1      -3.094   1.950   1.090  0.00  0.00    +0.000 N 
ATOM      3  H   UNL     1      -2.091   2.042   1.250  0.00  0.00    +0.000 HD
BRANCH   2   4
ATOM      4  C   UNL     1      -3.720   3.203   1.153  0.00  0.00    +0.000 A 
ATOM      5  C   UNL     1      -4.984   3.454   0.610  0.00  0.00    +0.000 A 
ATOM      6  C   UNL     1      -5.613   4.691   0.782  0.00  0.00    +0.000 A 
ATOM      7  C   UNL     1      -5.003   5.697   1.535  0.00  0.00    +0.000 A 
ATOM      8  C   UNL     1      -3.750   5.459   2.106  0.00  0.00    +0.000 A 
ATOM      9  C   UNL     1      -3.127   4.216   1.924  0.00  0.00    +0.000 A 
BRANCH   7  10
ATOM     10  C   UNL     1      -5.721   6.988   1.686  0.00  0.00    +0.000 C 
ATOM     11  N   UNL     1      -5.449   7.741   2.793  0.00  0.00    +0.000 N 
ATOM     12  O   UNL     1      -6.559   7.354   0.871  0.00  0.00    +0.000 OA
ATOM     13  H   UNL     1      -4.947   7.381   3.591  0.00  0.00    +0.000 HD
ATOM     14  H   UNL     1      -6.034   8.556   2.929  0.00  0.00    +0.000 HD
ENDBRANCH   7  10
ENDBRANCH   2   4
ENDBRANCH   1   2
BRANCH   1  15
ATOM     15  C   UNL     1      -2.581  -0.251   0.004  0.00  0.00    +0.000 C 
BRANCH  15  16
ATOM     16  C   UNL     1      -2.902  -1.183  -1.159  0.00  0.00    +0.000 A 
ATOM     17  C   UNL     1      -2.377  -2.476  -1.183  0.00  0.00    +0.000 A 
ATOM     18  C   UNL     1      -2.597  -3.276  -2.301  0.00  0.00    +0.000 A 
ATOM     19  C   UNL     1      -3.345  -2.776  -3.359  0.00  0.00    +0.000 A 
ATOM     20  C   UNL     1      -3.854  -1.494  -3.249  0.00  0.00    +0.000 A 
ATOM     21  N   UNL     1      -3.648  -0.697  -2.180  0.00  0.00    +0.000 NA
BRANCH  20  22
ATOM     22  O   UNL     1      -4.597  -1.023  -4.312  0.00  0.00    +0.000 OA
ATOM     23  C   UNL     1      -5.090   0.297  -4.088  0.00  0.00    +0.000 C 
ENDBRANCH  20  22
ENDBRANCH  15  16
BRANCH  15  25
ATOM     24  C   UNL     1       0.048   0.272   0.053  0.00  0.00    +0.000 C 
ATOM     25  C   UNL     1      -1.128   0.023   0.043  0.00  0.00    +0.000 C 
BRANCH  24  27
ATOM     26  C   UNL     1       2.333  -0.652   0.029  0.00  0.00    +0.000 C 
ATOM     27  C   UNL     1       1.476   0.601   0.036  0.00  0.00    +0.000 C 
ENDBRANCH  24  27
ENDBRANCH  15  25
ENDBRANCH   1  15
TORSDOF 8
