REMARK  Name = 
REMARK  6 active torsions:
REMARK  status: ('A' for Active; 'I' for Inactive)
REMARK    1  A    between atoms: C_2  and  C_4
REMARK    2  A    between atoms: N_8  and  C_9
REMARK    3  A    between atoms: C_9  and  C_10
REMARK    4  A    between atoms: C_10  and  C_11
REMARK    5  A    between atoms: C_15  and  O_16
REMARK    6  A    between atoms: O_16  and  C_17
REMARK                            x       y       z     vdW  Elec       q    Type
REMARK                         _______ _______ _______ _____ _____    ______ ____
ROOT
ATOM      1  C   UNL     1       3.124  -1.138   0.546  0.00  0.00    +0.000 A 
ATOM      2  C   UNL     1       2.749  -2.442   0.253  0.00  0.00    +0.000 A 
ATOM      3  C   UNL     1       3.549  -3.495   0.698  0.00  0.00    +0.000 A 
ATOM      4  C   UNL     1       4.712  -3.235   1.421  0.00  0.00    +0.000 A 
ATOM      5  N   UNL     1       5.527  -4.224   1.903  0.00  0.00    +0.000 N 
ATOM      6  N   UNL     1       5.093  -1.973   1.695  0.00  0.00    +0.000 NA
ATOM      7  C   UNL     1       4.304  -0.953   1.251  0.00  0.00    +0.000 A 
ATOM      8  H   UNL     1       6.362  -3.882   2.367  0.00  0.00    +0.000 HD
ENDROOT
BRANCH   1  10
ATOM      9  N   UNL     1       0.997  -0.150  -0.090  0.00  0.00    +0.000 N 
ATOM     10  C   UNL     1       2.336   0.037   0.118  0.00  0.00    +0.000 C 
ATOM     11  O   UNL     1       2.850   1.139  -0.019  0.00  0.00    +0.000 OA
ATOM     12  H   UNL     1       0.451   0.678  -0.295  0.00  0.00    +0.000 HD
ATOM     13  H   UNL     1       0.499  -0.967   0.239  0.00  0.00    +0.000 HD
ENDBRANCH   1  10
BRANCH   5  14
ATOM     14  C   UNL     1       5.317  -5.638   1.668  0.00  0.00    +0.000 C 
BRANCH  14  15
ATOM     15  C   UNL     1       6.415  -6.492   2.306  0.00  0.00    +0.000 C 
BRANCH  15  16
ATOM     16  C   UNL     1       6.166  -7.968   2.093  0.00  0.00    +0.000 A 
ATOM     17  C   UNL     1       5.412  -8.709   3.011  0.00  0.00    +0.000 A 
ATOM     18  C   UNL     1       5.174 -10.068   2.795  0.00  0.00    +0.000 A 
ATOM     19  C   UNL     1       5.686 -10.708   1.662  0.00  0.00    +0.000 A 
ATOM     20  C   UNL     1       6.433  -9.979   0.741  0.00  0.00    +0.000 A 
ATOM     21  C   UNL     1       6.658  -8.614   0.950  0.00  0.00    +0.000 A 
BRANCH  20  22
ATOM     22  O   UNL     1       6.961 -10.477  -0.423  0.00  0.00    +0.000 OA
BRANCH  22  23
ATOM     23  C   UNL     1       7.198 -11.895  -0.545  0.00  0.00    +0.000 C 
ATOM     24  C   UNL     1       8.339 -12.522   0.271  0.00  0.00    +0.000 C 
ATOM     25  O   UNL     1       8.888 -13.157  -0.913  0.00  0.00    +0.000 OA
ATOM     26  C   UNL     1       8.068 -12.300  -1.747  0.00  0.00    +0.000 C 
ENDBRANCH  22  23
ENDBRANCH  20  22
ENDBRANCH  15  16
ENDBRANCH  14  15
ENDBRANCH   5  14
TORSDOF 6
