REMARK  Name = 
REMARK  5 active torsions:
REMARK  status: ('A' for Active; 'I' for Inactive)
REMARK    1  A    between atoms: C_2  and  C_4
REMARK    2  A    between atoms: C_7  and  N_8
REMARK    3  A    between atoms: N_8  and  C_9
REMARK    4  A    between atoms: C_9  and  C_10
REMARK    5  A    between atoms: C_14  and  C_15
REMARK                            x       y       z     vdW  Elec       q    Type
REMARK                         _______ _______ _______ _____ _____    ______ ____
ROOT
ATOM      1  C   UNL     1       4.928   0.369   6.022  0.00  0.00    +0.000 C 
ENDROOT
BRANCH   1   2
ATOM      2  C   UNL     1       5.822   0.804   7.156  0.00  0.00    +0.000 A 
ATOM      3  C   UNL     1       6.033   2.163   7.410  0.00  0.00    +0.000 A 
ATOM      4  C   UNL     1       6.777   2.555   8.518  0.00  0.00    +0.000 A 
ATOM      5  C   UNL     1       7.317   1.595   9.378  0.00  0.00    +0.000 A 
ATOM      6  C   UNL     1       7.131   0.218   9.159  0.00  0.00    +0.000 A 
ATOM      7  C   UNL     1       6.397  -0.152   8.015  0.00  0.00    +0.000 A 
BRANCH   6   8
ATOM      8  C   UNL     1       7.655  -0.798  10.106  0.00  0.00    +0.000 A 
ATOM      9  C   UNL     1       8.125  -2.050   9.655  0.00  0.00    +0.000 A 
ATOM     10  C   UNL     1       8.614  -3.010  10.549  0.00  0.00    +0.000 A 
ATOM     11  C   UNL     1       8.651  -2.730  11.908  0.00  0.00    +0.000 A 
ATOM     12  F   UNL     1       9.132  -3.645  12.760  0.00  0.00    +0.000 F 
ATOM     13  C   UNL     1       8.195  -1.517  12.394  0.00  0.00    +0.000 A 
ATOM     14  C   UNL     1       7.697  -0.573  11.498  0.00  0.00    +0.000 A 
ATOM     15  F   UNL     1       7.231   0.574  12.018  0.00  0.00    +0.000 F 
ENDBRANCH   6   8
ENDBRANCH   1   2
BRANCH   1  16
ATOM     16  N   UNL     1       5.671   0.196   4.786  0.00  0.00    +0.000 N 
ATOM     17  H   UNL     1       6.389   0.897   4.622  0.00  0.00    +0.000 HD
BRANCH  16  21
ATOM     18  C   UNL     1       3.753  -1.197   1.287  0.00  0.00    +0.000 A 
ATOM     19  C   UNL     1       3.016  -1.040   2.459  0.00  0.00    +0.000 A 
ATOM     20  C   UNL     1       3.636  -0.553   3.614  0.00  0.00    +0.000 A 
ATOM     21  C   UNL     1       4.990  -0.187   3.627  0.00  0.00    +0.000 A 
ATOM     22  C   UNL     1       5.719  -0.364   2.441  0.00  0.00    +0.000 A 
ATOM     23  C   UNL     1       5.112  -0.867   1.282  0.00  0.00    +0.000 A 
BRANCH  18  25
ATOM     24  N   UNL     1       1.797  -1.582  -0.115  0.00  0.00    +0.000 N 
ATOM     25  C   UNL     1       3.142  -1.762   0.057  0.00  0.00    +0.000 C 
ATOM     26  O   UNL     1       3.812  -2.345  -0.788  0.00  0.00    +0.000 OA
ATOM     27  H   UNL     1       1.413  -1.889  -0.999  0.00  0.00    +0.000 HD
ATOM     28  H   UNL     1       1.269  -0.905   0.418  0.00  0.00    +0.000 HD
ENDBRANCH  18  25
ENDBRANCH  16  21
ENDBRANCH   1  16
TORSDOF 5
