REMARK  Name = 
REMARK  5 active torsions:
REMARK  status: ('A' for Active; 'I' for Inactive)
REMARK    1  A    between atoms: N_1  and  C_2
REMARK    2  A    between atoms: C_2  and  C_3
REMARK    3  A    between atoms: C_5  and  C_6
REMARK    4  A    between atoms: C_6  and  N_7
REMARK    5  A    between atoms: C_12  and  C_13
REMARK                            x       y       z     vdW  Elec       q    Type
REMARK                         _______ _______ _______ _____ _____    ______ ____
ROOT
ATOM      1  N   UNL     1       5.311  -3.202  -3.224  0.00  0.00    +0.000 N 
ATOM      2  C   UNL     1       5.180  -2.211  -4.169  0.00  0.00    +0.000 A 
ATOM      3  C   UNL     1       6.415  -2.008  -4.745  0.00  0.00    +0.000 A 
ATOM      4  C   UNL     1       7.337  -2.871  -4.098  0.00  0.00    +0.000 A 
ATOM      5  C   UNL     1       8.715  -3.120  -4.219  0.00  0.00    +0.000 A 
ATOM      6  C   UNL     1       9.291  -4.040  -3.338  0.00  0.00    +0.000 A 
ATOM      7  C   UNL     1       8.462  -4.689  -2.422  0.00  0.00    +0.000 A 
ATOM      8  N   UNL     1       7.121  -4.509  -2.287  0.00  0.00    +0.000 NA
ATOM      9  C   UNL     1       6.625  -3.590  -3.140  0.00  0.00    +0.000 A 
ENDROOT
BRANCH   6  10
ATOM     10  C   UNL     1      10.742  -4.351  -3.315  0.00  0.00    +0.000 C 
ATOM     11  N   UNL     1      11.568  -3.677  -4.172  0.00  0.00    +0.000 N 
ATOM     12  O   UNL     1      11.203  -5.182  -2.544  0.00  0.00    +0.000 OA
ATOM     13  H   UNL     1      11.286  -2.952  -4.812  0.00  0.00    +0.000 HD
ATOM     14  H   UNL     1      12.557  -3.887  -4.110  0.00  0.00    +0.000 HD
ENDBRANCH   6  10
BRANCH   1  15
ATOM     15  C   UNL     1       4.204  -3.818  -2.515  0.00  0.00    +0.000 C 
BRANCH  15  18
ATOM     16  C   UNL     1       2.665  -3.126   0.813  0.00  0.00    +0.000 C 
ATOM     17  C   UNL     1       2.559  -3.674  -0.599  0.00  0.00    +0.000 C 
ATOM     18  C   UNL     1       3.830  -3.119  -1.215  0.00  0.00    +0.000 C 
ATOM     19  C   UNL     1       4.820  -3.301  -0.071  0.00  0.00    +0.000 C 
ATOM     20  O   UNL     1       4.062  -3.227   1.158  0.00  0.00    +0.000 OA
BRANCH  16  21
ATOM     21  C   UNL     1       1.762  -3.810   1.850  0.00  0.00    +0.000 C 
BRANCH  21  22
ATOM     22  N   UNL     1       1.993  -5.252   1.973  0.00  0.00    +0.000 NA
ATOM     23  H   UNL     1       1.428  -5.616   2.739  0.00  0.00    +0.000 HD
ATOM     24  H   UNL     1       2.968  -5.386   2.250  0.00  0.00    +0.000 HD
ENDBRANCH  21  22
ENDBRANCH  16  21
ENDBRANCH  15  18
ENDBRANCH   1  15
TORSDOF 5
