REMARK  Name = 
REMARK  6 active torsions:
REMARK  status: ('A' for Active; 'I' for Inactive)
REMARK    1  A    between atoms: N_1  and  C_2
REMARK    2  A    between atoms: C_2  and  C_3
REMARK    3  A    between atoms: C_6  and  O_7
REMARK    4  A    between atoms: O_7  and  C_8
REMARK    5  A    between atoms: C_8  and  C_9
REMARK    6  A    between atoms: C_11  and  N_12
REMARK                            x       y       z     vdW  Elec       q    Type
REMARK                         _______ _______ _______ _____ _____    ______ ____
ROOT
ATOM      1  O   UNL     1       4.367  -2.460  -4.733  0.00  0.00    +0.000 OA
ENDROOT
BRANCH   1   5
ATOM      2  C   UNL     1       2.871  -0.590  -1.311  0.00  0.00    +0.000 A 
ATOM      3  C   UNL     1       3.593   0.112  -2.286  0.00  0.00    +0.000 A 
ATOM      4  C   UNL     1       4.059  -0.540  -3.431  0.00  0.00    +0.000 A 
ATOM      5  C   UNL     1       3.820  -1.904  -3.609  0.00  0.00    +0.000 A 
ATOM      6  C   UNL     1       3.064  -2.598  -2.663  0.00  0.00    +0.000 A 
ATOM      7  C   UNL     1       2.603  -1.948  -1.517  0.00  0.00    +0.000 A 
BRANCH   2   8
ATOM      8  C   UNL     1       2.394   0.094  -0.056  0.00  0.00    +0.000 C 
BRANCH   8   9
ATOM      9  N   UNL     1       1.452   1.163  -0.355  0.00  0.00    +0.000 NA
ATOM     10  H   UNL     1       1.053   1.507   0.516  0.00  0.00    +0.000 HD
ATOM     11  H   UNL     1       0.678   0.776  -0.894  0.00  0.00    +0.000 HD
ENDBRANCH   8   9
ENDBRANCH   2   8
ENDBRANCH   1   5
BRANCH   1  12
ATOM     12  C   UNL     1       4.539  -3.880  -4.683  0.00  0.00    +0.000 C 
BRANCH  12  13
ATOM     13  C   UNL     1       5.571  -4.302  -5.700  0.00  0.00    +0.000 A 
ATOM     14  C   UNL     1       6.829  -3.730  -5.677  0.00  0.00    +0.000 A 
ATOM     15  C   UNL     1       7.735  -4.188  -6.603  0.00  0.00    +0.000 A 
ATOM     16  N   UNL     1       7.450  -5.158  -7.479  0.00  0.00    +0.000 NA
ATOM     17  C   UNL     1       6.208  -5.659  -7.417  0.00  0.00    +0.000 A 
ATOM     18  N   UNL     1       5.241  -5.282  -6.567  0.00  0.00    +0.000 NA
BRANCH  15  19
ATOM     19  N   UNL     1       9.033  -3.678  -6.627  0.00  0.00    +0.000 N 
ATOM     20  H   UNL     1       9.036  -2.667  -6.685  0.00  0.00    +0.000 HD
ATOM     21  H   UNL     1       9.514  -4.107  -7.412  0.00  0.00    +0.000 HD
ENDBRANCH  15  19
ENDBRANCH  12  13
ENDBRANCH   1  12
TORSDOF 6
