REMARK  Name = 
REMARK  5 active torsions:
REMARK  status: ('A' for Active; 'I' for Inactive)
REMARK    1  A    between atoms: C_2  and  C_3
REMARK    2  A    between atoms: C_6  and  N_7
REMARK    3  A    between atoms: N_7  and  C_8
REMARK    4  A    between atoms: C_8  and  C_9
REMARK    5  A    between atoms: C_13  and  C_14
REMARK                            x       y       z     vdW  Elec       q    Type
REMARK                         _______ _______ _______ _____ _____    ______ ____
ROOT
ATOM      1  C   UNL     1      -4.596   0.923  -0.174  0.00  0.00    +0.000 C 
ATOM      2  C   UNL     1      -3.385   1.422   0.623  0.00  0.00    +0.000 C 
ATOM      3  C   UNL     1      -3.179   0.509  -0.531  0.00  0.00    +0.000 C 
ENDROOT
BRANCH   1   4
ATOM      4  C   UNL     1      -5.445  -0.196   0.422  0.00  0.00    +0.000 A 
ATOM      5  C   UNL     1      -5.906  -1.252  -0.377  0.00  0.00    +0.000 A 
ATOM      6  C   UNL     1      -6.452  -2.398   0.195  0.00  0.00    +0.000 A 
ATOM      7  C   UNL     1      -6.545  -2.508   1.583  0.00  0.00    +0.000 A 
ATOM      8  C   UNL     1      -6.150  -1.456   2.420  0.00  0.00    +0.000 A 
ATOM      9  C   UNL     1      -5.659  -0.288   1.809  0.00  0.00    +0.000 A 
BRANCH   8  10
ATOM     10  C   UNL     1      -6.110  -1.590   3.891  0.00  0.00    +0.000 A 
ATOM     11  C   UNL     1      -5.621  -2.772   4.488  0.00  0.00    +0.000 A 
ATOM     12  C   UNL     1      -5.489  -2.887   5.873  0.00  0.00    +0.000 A 
ATOM     13  C   UNL     1      -5.835  -1.820   6.682  0.00  0.00    +0.000 A 
ATOM     14  F   UNL     1      -5.690  -1.920   8.009  0.00  0.00    +0.000 F 
ATOM     15  C   UNL     1      -6.326  -0.641   6.134  0.00  0.00    +0.000 A 
ATOM     16  C   UNL     1      -6.468  -0.531   4.747  0.00  0.00    +0.000 A 
ENDBRANCH   8  10
ENDBRANCH   1   4
BRANCH   1  17
ATOM     17  N   UNL     1      -5.372   2.006  -0.799  0.00  0.00    +0.000 N 
ATOM     18  H   UNL     1      -6.089   2.384  -0.185  0.00  0.00    +0.000 HD
BRANCH  17  22
ATOM     19  C   UNL     1      -6.435   2.659  -4.779  0.00  0.00    +0.000 A 
ATOM     20  C   UNL     1      -5.400   1.762  -4.531  0.00  0.00    +0.000 A 
ATOM     21  C   UNL     1      -5.054   1.488  -3.204  0.00  0.00    +0.000 A 
ATOM     22  C   UNL     1      -5.731   2.107  -2.156  0.00  0.00    +0.000 A 
ATOM     23  C   UNL     1      -6.754   2.991  -2.526  0.00  0.00    +0.000 A 
ATOM     24  N   UNL     1      -7.132   3.273  -3.798  0.00  0.00    +0.000 NA
BRANCH  19  26
ATOM     25  N   UNL     1      -7.073   3.250  -7.232  0.00  0.00    +0.000 NA
ATOM     26  C   UNL     1      -6.810   2.997  -6.128  0.00  0.00    +0.000 C 
ENDBRANCH  19  26
ENDBRANCH  17  22
ENDBRANCH   1  17
TORSDOF 5
