REMARK  Name = 
REMARK  4 active torsions:
REMARK  status: ('A' for Active; 'I' for Inactive)
REMARK    1  A    between atoms: C_1  and  C_2
REMARK    2  A    between atoms: C_4  and  C_5
REMARK    3  A    between atoms: N_10  and  C_11
REMARK    4  A    between atoms: C_11  and  C_12
REMARK                            x       y       z     vdW  Elec       q    Type
REMARK                         _______ _______ _______ _____ _____    ______ ____
ROOT
ATOM      1  C   UNL     1      -2.457  -0.110   0.539  0.00  0.00    +0.000 C 
ATOM      2  C   UNL     1      -0.994  -0.158   0.211  0.00  0.00    +0.000 A 
ATOM      3  C   UNL     1      -0.343  -1.353   0.050  0.00  0.00    +0.000 A 
ATOM      4  C   UNL     1       1.000  -1.254  -0.228  0.00  0.00    +0.000 A 
ATOM      5  N   UNL     1       1.676  -0.084  -0.332  0.00  0.00    +0.000 NA
ATOM      6  C   UNL     1       0.952   1.030  -0.160  0.00  0.00    +0.000 A 
ATOM      7  N   UNL     1       1.530   2.296  -0.241  0.00  0.00    +0.000 N 
ATOM      8  N   UNL     1      -0.363   1.028   0.108  0.00  0.00    +0.000 NA
ATOM      9  H   UNL     1       0.857   2.990   0.056  0.00  0.00    +0.000 HD
ENDROOT
BRANCH   4  10
ATOM     10  C   UNL     1       1.781  -2.515  -0.438  0.00  0.00    +0.000 C 
ATOM     11  N   UNL     1       3.098  -2.354  -0.760  0.00  0.00    +0.000 N 
ATOM     12  O   UNL     1       1.276  -3.626  -0.343  0.00  0.00    +0.000 OA
ATOM     13  H   UNL     1       3.459  -1.422  -0.906  0.00  0.00    +0.000 HD
ATOM     14  H   UNL     1       3.664  -3.166  -0.969  0.00  0.00    +0.000 HD
ENDBRANCH   4  10
BRANCH   7  15
ATOM     15  C   UNL     1       2.970   2.514  -0.120  0.00  0.00    +0.000 C 
ATOM     16  C   UNL     1       3.650   2.162   1.189  0.00  0.00    +0.000 C 
ATOM     17  C   UNL     1       3.472   3.598   0.819  0.00  0.00    +0.000 C 
BRANCH  15  18
ATOM     18  C   UNL     1       3.694   2.340  -1.447  0.00  0.00    +0.000 A 
ATOM     19  C   UNL     1       4.345   1.139  -1.766  0.00  0.00    +0.000 A 
ATOM     20  C   UNL     1       4.811   0.875  -3.055  0.00  0.00    +0.000 A 
ATOM     21  C   UNL     1       4.677   1.839  -4.053  0.00  0.00    +0.000 A 
ATOM     22 CL   UNL     1       5.212   1.428  -5.643  0.00  0.00    +0.000 Cl
ATOM     23  C   UNL     1       4.107   3.077  -3.745  0.00  0.00    +0.000 A 
ATOM     24 CL   UNL     1       3.936   4.333  -4.919  0.00  0.00    +0.000 Cl
ATOM     25  C   UNL     1       3.621   3.319  -2.454  0.00  0.00    +0.000 A 
ENDBRANCH  15  18
ENDBRANCH   7  15
TORSDOF 3
