REMARK  Name = 
REMARK  9 active torsions:
REMARK  status: ('A' for Active; 'I' for Inactive)
REMARK    1  A    between atoms: C_1  and  O_2
REMARK    2  A    between atoms: O_2  and  C_3
REMARK    3  A    between atoms: C_10  and  C_11
REMARK    4  A    between atoms: N_13  and  C_14
REMARK    5  A    between atoms: C_14  and  C_15
REMARK    6  A    between atoms: C_18  and  C_19
REMARK    7  A    between atoms: C_19  and  N_20
REMARK    8  A    between atoms: N_20  and  C_21
REMARK    9  A    between atoms: C_21  and  C_22
REMARK                            x       y       z     vdW  Elec       q    Type
REMARK                         _______ _______ _______ _____ _____    ______ ____
ROOT
ATOM      1  C   UNL     1       2.942   1.246   3.216  0.00  0.00    +0.000 C 
ENDROOT
BRANCH   1   2
ATOM      2  C   UNL     1       1.885   2.214   2.750  0.00  0.00    +0.000 A 
ATOM      3  C   UNL     1       0.610   1.758   2.396  0.00  0.00    +0.000 A 
ATOM      4  C   UNL     1      -0.351   2.647   1.901  0.00  0.00    +0.000 A 
ATOM      5  C   UNL     1      -0.073   4.016   1.769  0.00  0.00    +0.000 A 
ATOM      6  C   UNL     1       1.207   4.467   2.121  0.00  0.00    +0.000 A 
ATOM      7  C   UNL     1       2.175   3.576   2.605  0.00  0.00    +0.000 A 
BRANCH   5   8
ATOM      8  C   UNL     1      -1.091   4.987   1.192  0.00  0.00    +0.000 C 
BRANCH   8   9
ATOM      9  N   UNL     1      -2.463   4.594   1.520  0.00  0.00    +0.000 NA
ATOM     10  H   UNL     1      -2.532   4.559   2.537  0.00  0.00    +0.000 HD
BRANCH   9  11
ATOM     11  C   UNL     1      -3.465   5.518   0.994  0.00  0.00    +0.000 C 
BRANCH  11  12
ATOM     12  C   UNL     1      -4.899   5.036   1.327  0.00  0.00    +0.000 C 
ATOM     13  C   UNL     1      -5.936   6.027   0.762  0.00  0.00    +0.000 C 
ATOM     14  C   UNL     1      -7.370   5.637   1.116  0.00  0.00    +0.000 C 
ATOM     15  C   UNL     1      -7.549   5.458   2.620  0.00  0.00    +0.000 C 
ATOM     16  C   UNL     1      -6.559   4.441   3.168  0.00  0.00    +0.000 C 
ATOM     17  C   UNL     1      -5.120   4.830   2.838  0.00  0.00    +0.000 C 
ENDBRANCH  11  12
ENDBRANCH   9  11
ENDBRANCH   8   9
ENDBRANCH   5   8
ENDBRANCH   1   2
BRANCH   1  20
ATOM     18  C   UNL     1       4.686  -0.209   2.273  0.00  0.00    +0.000 C 
ATOM     19  O   UNL     1       4.968  -0.633   3.392  0.00  0.00    +0.000 OA
ATOM     20  N   UNL     1       3.699   0.726   2.101  0.00  0.00    +0.000 N 
ATOM     21  H   UNL     1       3.505   1.101   1.183  0.00  0.00    +0.000 HD
BRANCH  18  29
ATOM     22  C   UNL     1       4.348   0.411  -1.106  0.00  0.00    +0.000 A 
ATOM     23  N   UNL     1       4.448   0.472  -2.449  0.00  0.00    +0.000 NA
ATOM     24  C   UNL     1       5.386  -0.263  -3.047  0.00  0.00    +0.000 A 
ATOM     25  N   UNL     1       6.260  -1.075  -2.459  0.00  0.00    +0.000 NA
ATOM     26  C   UNL     1       6.132  -1.102  -1.121  0.00  0.00    +0.000 A 
ATOM     27  S   UNL     1       7.168  -2.090  -0.206  0.00  0.00    +0.000 S 
ATOM     28  C   UNL     1       6.429  -1.602   1.244  0.00  0.00    +0.000 A 
ATOM     29  C   UNL     1       5.396  -0.688   1.073  0.00  0.00    +0.000 A 
ATOM     30  C   UNL     1       5.219  -0.393  -0.347  0.00  0.00    +0.000 A 
BRANCH  22  32
ATOM     31  C   UNL     1       2.274   1.450  -1.341  0.00  0.00    +0.000 C 
ATOM     32  O   UNL     1       3.394   1.197  -0.493  0.00  0.00    +0.000 OA
ENDBRANCH  22  32
ENDBRANCH  18  29
ENDBRANCH   1  20
TORSDOF 8
