REMARK  Name = 
REMARK  6 active torsions:
REMARK  status: ('A' for Active; 'I' for Inactive)
REMARK    1  A    between atoms: N_1  and  C_2
REMARK    2  A    between atoms: C_2  and  C_3
REMARK    3  A    between atoms: C_6  and  O_7
REMARK    4  A    between atoms: O_7  and  C_8
REMARK    5  A    between atoms: C_8  and  C_9
REMARK    6  A    between atoms: C_12  and  C_13
REMARK                            x       y       z     vdW  Elec       q    Type
REMARK                         _______ _______ _______ _____ _____    ______ ____
ROOT
ATOM      1  O   UNL     1       3.664  -1.972   5.202  0.00  0.00    +0.000 OA
ENDROOT
BRANCH   1   5
ATOM      2  C   UNL     1       2.764  -0.502   1.390  0.00  0.00    +0.000 A 
ATOM      3  C   UNL     1       3.235   0.387   2.368  0.00  0.00    +0.000 A 
ATOM      4  C   UNL     1       3.559  -0.062   3.653  0.00  0.00    +0.000 A 
ATOM      5  C   UNL     1       3.410  -1.408   3.982  0.00  0.00    +0.000 A 
ATOM      6  C   UNL     1       2.953  -2.300   3.010  0.00  0.00    +0.000 A 
ATOM      7  C   UNL     1       2.631  -1.854   1.725  0.00  0.00    +0.000 A 
BRANCH   2   8
ATOM      8  C   UNL     1       2.372  -0.002   0.023  0.00  0.00    +0.000 C 
BRANCH   8   9
ATOM      9  N   UNL     1       3.467   0.701  -0.634  0.00  0.00    +0.000 NA
ATOM     10  H   UNL     1       3.192   0.928  -1.587  0.00  0.00    +0.000 HD
ATOM     11  H   UNL     1       4.263   0.068  -0.708  0.00  0.00    +0.000 HD
ENDBRANCH   8   9
ENDBRANCH   2   8
ENDBRANCH   1   5
BRANCH   1  12
ATOM     12  C   UNL     1       4.116  -1.094   6.236  0.00  0.00    +0.000 C 
BRANCH  12  13
ATOM     13  C   UNL     1       4.315  -1.885   7.509  0.00  0.00    +0.000 A 
ATOM     14  C   UNL     1       3.243  -2.559   8.093  0.00  0.00    +0.000 A 
ATOM     15  C   UNL     1       3.459  -3.285   9.263  0.00  0.00    +0.000 A 
ATOM     16  C   UNL     1       4.736  -3.326   9.826  0.00  0.00    +0.000 A 
ATOM     17  C   UNL     1       5.740  -2.615   9.186  0.00  0.00    +0.000 A 
ATOM     18  N   UNL     1       5.557  -1.896   8.055  0.00  0.00    +0.000 NA
BRANCH  16  19
ATOM     19  C   UNL     1       5.055  -4.100  11.065  0.00  0.00    +0.000 C 
ATOM     20  F   UNL     1       3.981  -4.752  11.591  0.00  0.00    +0.000 F 
ATOM     21  F   UNL     1       6.003  -5.055  10.855  0.00  0.00    +0.000 F 
ATOM     22  F   UNL     1       5.537  -3.311  12.065  0.00  0.00    +0.000 F 
ENDBRANCH  16  19
ENDBRANCH  12  13
ENDBRANCH   1  12
TORSDOF 6
