REMARK  Name = 
REMARK  6 active torsions:
REMARK  status: ('A' for Active; 'I' for Inactive)
REMARK    1  A    between atoms: C_2  and  O_3
REMARK    2  A    between atoms: C_2  and  C_4
REMARK    3  A    between atoms: C_7  and  C_8
REMARK    4  A    between atoms: C_8  and  C_9
REMARK    5  A    between atoms: C_9  and  C_10
REMARK    6  A    between atoms: C_14  and  N_15
REMARK                            x       y       z     vdW  Elec       q    Type
REMARK                         _______ _______ _______ _____ _____    ______ ____
ROOT
ATOM      1  C   UNK     1       1.821   5.494  -3.628  0.00  0.00    +0.000 A 
ATOM      2  C   UNK     1       2.023   6.697  -2.967  0.00  0.00    +0.000 A 
ATOM      3  N   UNK     1       1.951   7.885  -3.592  0.00  0.00    +0.000 NA
ATOM      4  C   UNK     1       1.655   7.814  -4.916  0.00  0.00    +0.000 A 
ATOM      5  C   UNK     1       1.415   6.630  -5.622  0.00  0.00    +0.000 A 
ATOM      6  N   UNK     1       1.501   5.459  -4.949  0.00  0.00    +0.000 NA
ENDROOT
BRANCH   5   7
ATOM      7  N   UNK     1       1.136   6.605  -6.973  0.00  0.00    +0.000 N 
ATOM      8  C   UNK     1       0.474   7.709  -7.659  0.00  0.00    +0.000 C 
ATOM      9  C   UNK     1      -0.876   7.250  -8.208  0.00  0.00    +0.000 C 
ATOM     10  C   UNK     1      -0.736   5.994  -9.063  0.00  0.00    +0.000 C 
ATOM     11  C   UNK     1      -0.016   4.886  -8.297  0.00  0.00    +0.000 C 
ATOM     12  C   UNK     1       1.318   5.370  -7.732  0.00  0.00    +0.000 C 
ENDBRANCH   5   7
BRANCH   1  13
ATOM     13  C   UNK     1       1.915   4.189  -2.885  0.00  0.00    +0.000 C 
BRANCH  13  14
ATOM     14  C   UNK     1       2.328   3.031  -3.798  0.00  0.00    +0.000 C 
BRANCH  14  18
ATOM     15  C   UNK     1       3.369   0.146  -1.781  0.00  0.00    +0.000 A 
ATOM     16  C   UNK     1       2.091  -0.359  -1.914  0.00  0.00    +0.000 A 
ATOM     17  S   UNK     1       1.134   0.695  -2.858  0.00  0.00    +0.000 S 
ATOM     18  C   UNK     1       2.477   1.760  -3.020  0.00  0.00    +0.000 A 
ATOM     19  N   UNK     1       3.586   1.376  -2.415  0.00  0.00    +0.000 NA
BRANCH  15  21
ATOM     20  O   UNK     1       4.332  -1.587  -0.474  0.00  0.00    +0.000 OA
ATOM     21  C   UNK     1       4.443  -0.505  -1.035  0.00  0.00    +0.000 C 
BRANCH  21  22
ATOM     22  O   UNK     1       5.592   0.220  -1.023  0.00  0.00    +0.000 OA
ATOM     23  H   UNK     1       5.431   1.045  -1.538  0.00  0.00    +0.000 HD
ENDBRANCH  21  22
ENDBRANCH  15  21
ENDBRANCH  14  18
ENDBRANCH  13  14
ENDBRANCH   1  13
TORSDOF 6
