REMARK  Name = 
REMARK  7 active torsions:
REMARK  status: ('A' for Active; 'I' for Inactive)
REMARK    1  A    between atoms: C_1  and  O_2
REMARK    2  A    between atoms: O_2  and  C_3
REMARK    3  A    between atoms: C_5  and  C_6
REMARK    4  A    between atoms: C_11  and  O_12
REMARK    5  A    between atoms: O_12  and  C_13
REMARK    6  A    between atoms: C_13  and  C_14
REMARK    7  A    between atoms: C_19  and  C_20
REMARK                            x       y       z     vdW  Elec       q    Type
REMARK                         _______ _______ _______ _____ _____    ______ ____
ROOT
ATOM      1  O   UNL     1       4.665  -0.005  -1.845  0.00  0.00    +0.000 OA
ENDROOT
BRANCH   1   7
ATOM      2  C   UNL     1       3.138   1.020  -0.145  0.00  0.00    +0.000 A 
ATOM      3  C   UNL     1       2.933   2.137   0.675  0.00  0.00    +0.000 A 
ATOM      4  C   UNL     1       3.842   3.207   0.707  0.00  0.00    +0.000 A 
ATOM      5  C   UNL     1       4.982   3.150  -0.094  0.00  0.00    +0.000 A 
ATOM      6  C   UNL     1       5.193   2.041  -0.922  0.00  0.00    +0.000 A 
ATOM      7  C   UNL     1       4.284   0.976  -0.961  0.00  0.00    +0.000 A 
BRANCH   4   8
ATOM      8  C   UNL     1       3.523   4.343   1.619  0.00  0.00    +0.000 C 
ATOM      9  N   UNL     1       4.384   5.400   1.688  0.00  0.00    +0.000 N 
ATOM     10  O   UNL     1       2.501   4.344   2.302  0.00  0.00    +0.000 OA
ATOM     11  H   UNL     1       5.243   5.492   1.170  0.00  0.00    +0.000 HD
ATOM     12  H   UNL     1       4.128   6.147   2.321  0.00  0.00    +0.000 HD
ENDBRANCH   4   8
BRANCH   2  14
ATOM     13  C   UNL     1       0.950   0.167   0.292  0.00  0.00    +0.000 C 
ATOM     14  O   UNL     1       2.290  -0.055  -0.130  0.00  0.00    +0.000 OA
ENDBRANCH   2  14
ENDBRANCH   1   7
BRANCH   1  15
ATOM     15  C   UNL     1       3.794  -1.120  -2.008  0.00  0.00    +0.000 C 
BRANCH  15  16
ATOM     16  C   UNL     1       4.308  -2.122  -3.021  0.00  0.00    +0.000 A 
ATOM     17  C   UNL     1       5.493  -1.949  -3.738  0.00  0.00    +0.000 A 
ATOM     18  C   UNL     1       5.911  -2.931  -4.632  0.00  0.00    +0.000 A 
ATOM     19  C   UNL     1       5.154  -4.091  -4.802  0.00  0.00    +0.000 A 
ATOM     20  F   UNL     1       5.606  -4.998  -5.682  0.00  0.00    +0.000 F 
ATOM     21  C   UNL     1       3.965  -4.320  -4.092  0.00  0.00    +0.000 A 
ATOM     22  C   UNL     1       3.555  -3.299  -3.214  0.00  0.00    +0.000 A 
BRANCH  21  23
ATOM     23  C   UNL     1       3.189  -5.573  -4.215  0.00  0.00    +0.000 A 
ATOM     24  C   UNL     1       1.791  -5.610  -4.090  0.00  0.00    +0.000 A 
ATOM     25  C   UNL     1       1.095  -6.815  -4.184  0.00  0.00    +0.000 A 
ATOM     26  C   UNL     1       1.815  -7.973  -4.408  0.00  0.00    +0.000 A 
ATOM     27  N   UNL     1       3.156  -8.001  -4.530  0.00  0.00    +0.000 NA
ATOM     28  C   UNL     1       3.802  -6.812  -4.429  0.00  0.00    +0.000 A 
ENDBRANCH  21  23
ENDBRANCH  15  16
ENDBRANCH   1  15
TORSDOF 6
