REMARK  Name = 
REMARK  10 active torsions:
REMARK  status: ('A' for Active; 'I' for Inactive)
REMARK    1  A    between atoms: C_1  and  C_2
REMARK    2  A    between atoms: N_4  and  C_5
REMARK    3  A    between atoms: C_9  and  C_10
REMARK    4  A    between atoms: C_10  and  C_11
REMARK    5  A    between atoms: C_10  and  C_12
REMARK    6  A    between atoms: C_10  and  C_13
REMARK    7  A    between atoms: C_13  and  N_14
REMARK    8  A    between atoms: N_14  and  C_15
REMARK    9  A    between atoms: C_18  and  C_19
REMARK   10  A    between atoms: C_26  and  C_27
REMARK                            x       y       z     vdW  Elec       q    Type
REMARK                         _______ _______ _______ _____ _____    ______ ____
ROOT
ATOM      1  C   UNL     1      -1.357   0.984  -5.376  0.00  0.00    +0.000 C 
ATOM      2  C   UNL     1      -2.584   1.877  -5.104  0.00  0.00    +0.000 C 
ATOM      3  C   UNL     1      -1.091   0.895  -6.896  0.00  0.00    +0.000 C 
ENDROOT
BRANCH   1   8
ATOM      4  C   UNL     1       1.911   1.368  -3.280  0.00  0.00    +0.000 A 
ATOM      5  C   UNL     1       2.308   2.645  -3.686  0.00  0.00    +0.000 A 
ATOM      6  C   UNL     1       1.524   3.412  -4.545  0.00  0.00    +0.000 A 
ATOM      7  C   UNL     1       0.333   2.897  -5.058  0.00  0.00    +0.000 A 
ATOM      8  C   UNL     1      -0.102   1.610  -4.709  0.00  0.00    +0.000 A 
ATOM      9  C   UNL     1       0.687   0.899  -3.781  0.00  0.00    +0.000 A 
BRANCH   4  13
ATOM     10  C   UNL     1       1.919  -2.374  -3.158  0.00  0.00    +0.000 C 
ATOM     11  C   UNL     1       2.632  -1.824  -1.924  0.00  0.00    +0.000 C 
ATOM     12  C   UNL     1       2.163  -0.409  -1.525  0.00  0.00    +0.000 C 
ATOM     13  N   UNL     1       2.700   0.614  -2.433  0.00  0.00    +0.000 N 
ATOM     14  C   UNL     1       4.154   0.523  -2.655  0.00  0.00    +0.000 C 
ATOM     15  C   UNL     1       4.559  -0.921  -3.028  0.00  0.00    +0.000 C 
ATOM     16  C   UNL     1       6.077  -1.056  -3.074  0.00  0.00    +0.000 C 
ATOM     17  O   UNL     1       4.064  -1.883  -2.078  0.00  0.00    +0.000 OA
ENDBRANCH   4  13
ENDBRANCH   1   8
BRANCH   1  18
ATOM     18  C   UNL     1      -1.660  -0.446  -4.826  0.00  0.00    +0.000 C 
BRANCH  18  19
ATOM     19  N   UNL     1      -2.828  -1.111  -5.429  0.00  0.00    +0.000 N 
ATOM     20  H   UNL     1      -2.802  -1.102  -6.447  0.00  0.00    +0.000 HD
BRANCH  19  21
ATOM     21  C   UNL     1      -3.083  -2.414  -4.958  0.00  0.00    +0.000 A 
ATOM     22  C   UNL     1      -3.709  -3.345  -5.792  0.00  0.00    +0.000 A 
ATOM     23  C   UNL     1      -3.994  -4.632  -5.330  0.00  0.00    +0.000 A 
ATOM     24  C   UNL     1      -3.667  -4.943  -4.014  0.00  0.00    +0.000 A 
ATOM     25  N   UNL     1      -3.110  -4.062  -3.147  0.00  0.00    +0.000 NA
ATOM     26  C   UNL     1      -2.860  -2.827  -3.638  0.00  0.00    +0.000 A 
BRANCH  24  27
ATOM     27  C   UNL     1      -3.924  -6.315  -3.483  0.00  0.00    +0.000 C 
ATOM     28  N   UNL     1      -3.566  -6.514  -2.176  0.00  0.00    +0.000 N 
ATOM     29  O   UNL     1      -4.413  -7.209  -4.163  0.00  0.00    +0.000 OA
ATOM     30  H   UNL     1      -3.164  -5.748  -1.649  0.00  0.00    +0.000 HD
ATOM     31  H   UNL     1      -3.699  -7.419  -1.752  0.00  0.00    +0.000 HD
ENDBRANCH  24  27
ENDBRANCH  19  21
ENDBRANCH  18  19
ENDBRANCH   1  18
TORSDOF 6
