REMARK  Name = 
REMARK  5 active torsions:
REMARK  status: ('A' for Active; 'I' for Inactive)
REMARK    1  A    between atoms: N_1  and  C_2
REMARK    2  A    between atoms: C_2  and  C_3
REMARK    3  A    between atoms: C_6  and  C_7
REMARK    4  A    between atoms: C_7  and  N_8
REMARK    5  A    between atoms: C_13  and  C_14
REMARK                            x       y       z     vdW  Elec       q    Type
REMARK                         _______ _______ _______ _____ _____    ______ ____
ROOT
ATOM      1  N   UNL     1       5.091   4.461  -4.265  0.00  0.00    +0.000 N 
ATOM      2  C   UNL     1       3.968   5.084  -4.753  0.00  0.00    +0.000 A 
ATOM      3  C   UNL     1       4.153   6.438  -4.646  0.00  0.00    +0.000 A 
ATOM      4  C   UNL     1       5.460   6.654  -4.132  0.00  0.00    +0.000 A 
ATOM      5  C   UNL     1       6.181   7.818  -3.787  0.00  0.00    +0.000 A 
ATOM      6  C   UNL     1       7.491   7.702  -3.301  0.00  0.00    +0.000 A 
ATOM      7  C   UNL     1       8.089   6.439  -3.222  0.00  0.00    +0.000 A 
ATOM      8  C   UNL     1       7.393   5.271  -3.560  0.00  0.00    +0.000 A 
ATOM      9  C   UNL     1       6.058   5.401  -3.972  0.00  0.00    +0.000 A 
ENDROOT
BRANCH   6  10
ATOM     10  C   UNL     1       8.281   8.879  -2.832  0.00  0.00    +0.000 C 
ATOM     11  N   UNL     1       7.720  10.121  -2.897  0.00  0.00    +0.000 N 
ATOM     12  O   UNL     1       9.416   8.749  -2.378  0.00  0.00    +0.000 OA
ATOM     13  H   UNL     1       6.811  10.333  -3.268  0.00  0.00    +0.000 HD
ATOM     14  H   UNL     1       8.284  10.894  -2.562  0.00  0.00    +0.000 HD
ENDBRANCH   6  10
BRANCH   1  15
ATOM     15  C   UNL     1       5.199   3.021  -4.089  0.00  0.00    +0.000 C 
BRANCH  15  19
ATOM     16  C   UNL     1       2.830   0.626  -1.303  0.00  0.00    +0.000 C 
ATOM     17  C   UNL     1       4.320   0.286  -1.455  0.00  0.00    +0.000 C 
ATOM     18  C   UNL     1       4.955   0.964  -2.668  0.00  0.00    +0.000 C 
ATOM     19  C   UNL     1       4.768   2.494  -2.693  0.00  0.00    +0.000 C 
ATOM     20  C   UNL     1       3.329   2.919  -2.339  0.00  0.00    +0.000 C 
ATOM     21  C   UNL     1       2.696   2.150  -1.179  0.00  0.00    +0.000 C 
BRANCH  16  22
ATOM     22  C   UNL     1       1.947   0.057  -2.433  0.00  0.00    +0.000 C 
BRANCH  22  23
ATOM     23  N   UNL     1       1.981  -1.404  -2.465  0.00  0.00    +0.000 NA
ATOM     24  H   UNL     1       1.392  -1.744  -3.225  0.00  0.00    +0.000 HD
ATOM     25  H   UNL     1       1.573  -1.774  -1.606  0.00  0.00    +0.000 HD
ENDBRANCH  22  23
ENDBRANCH  16  22
ENDBRANCH  15  19
ENDBRANCH   1  15
TORSDOF 5
