REMARK  Name = 
REMARK  6 active torsions:
REMARK  status: ('A' for Active; 'I' for Inactive)
REMARK    1  A    between atoms: C_2  and  C_25
REMARK    2  A    between atoms: N_3  and  C_4
REMARK    3  A    between atoms: C_4  and  C_5
REMARK    4  A    between atoms: C_8  and  C_9
REMARK    5  A    between atoms: C_9  and  N_10
REMARK    6  A    between atoms: C_11  and  C_13
REMARK                            x       y       z     vdW  Elec       q    Type
REMARK                         _______ _______ _______ _____ _____    ______ ____
ROOT
ATOM      1  C   UNL     1       3.206   2.398  -2.755  0.00  0.00    +0.000 A 
ATOM      2  C   UNL     1       3.059   3.782  -2.820  0.00  0.00    +0.000 A 
ATOM      3  C   UNL     1       3.878   4.510  -3.681  0.00  0.00    +0.000 A 
ATOM      4  C   UNL     1       4.844   3.852  -4.444  0.00  0.00    +0.000 A 
ATOM      5  C   UNL     1       4.926   2.471  -4.307  0.00  0.00    +0.000 A 
ATOM      6  N   UNL     1       4.142   1.736  -3.482  0.00  0.00    +0.000 NA
ENDROOT
BRANCH   1   7
ATOM      7  C   UNL     1       2.291   1.582  -1.871  0.00  0.00    +0.000 C 
BRANCH   7  10
ATOM      8  O   UNL     1       0.631   1.326   0.384  0.00  0.00    +0.000 OA
ATOM      9  C   UNL     1       1.850   1.319   0.535  0.00  0.00    +0.000 C 
ATOM     10  N   UNL     1       2.742   1.514  -0.498  0.00  0.00    +0.000 N 
ATOM     11  H   UNL     1       3.722   1.334  -0.303  0.00  0.00    +0.000 HD
BRANCH   9  12
ATOM     12  C   UNL     1       2.457   1.090   1.885  0.00  0.00    +0.000 A 
ATOM     13  C   UNL     1       1.623   0.895   2.982  0.00  0.00    +0.000 A 
ATOM     14  C   UNL     1       2.207   0.705   4.230  0.00  0.00    +0.000 A 
ATOM     15  C   UNL     1       3.593   0.717   4.339  0.00  0.00    +0.000 A 
ATOM     16  C   UNL     1       4.346   0.914   3.190  0.00  0.00    +0.000 A 
ATOM     17  N   UNL     1       3.816   1.099   1.959  0.00  0.00    +0.000 NA
ENDBRANCH   9  12
ENDBRANCH   7  10
ENDBRANCH   1   7
BRANCH   4  18
ATOM     18  C   UNL     1       5.727   4.595  -5.403  0.00  0.00    +0.000 C 
BRANCH  18  19
ATOM     19  N   UNL     1       5.131   4.678  -6.714  0.00  0.00    +0.000 N 
ATOM     20  C   UNL     1       5.826   5.196  -7.778  0.00  0.00    +0.000 C 
ATOM     21  O   UNL     1       6.995   5.560  -7.672  0.00  0.00    +0.000 OA
ATOM     22  H   UNL     1       4.119   4.611  -6.770  0.00  0.00    +0.000 HD
BRANCH  20  23
ATOM     23  C   UNL     1       5.125   5.239  -9.068  0.00  0.00    +0.000 A 
ATOM     24  C   UNL     1       5.857   5.280 -10.247  0.00  0.00    +0.000 A 
ATOM     25  S   UNL     1       4.892   5.275 -11.654  0.00  0.00    +0.000 S 
ATOM     26  C   UNL     1       3.459   5.273 -10.736  0.00  0.00    +0.000 A 
ATOM     27  N   UNL     1       2.241   5.293 -11.341  0.00  0.00    +0.000 NA
ATOM     28  C   UNL     1       1.241   5.321 -10.525  0.00  0.00    +0.000 A 
ATOM     29  N   UNL     1       1.348   5.326  -9.158  0.00  0.00    +0.000 N 
ATOM     30  C   UNL     1       2.555   5.276  -8.503  0.00  0.00    +0.000 A 
ATOM     31  O   UNL     1       2.616   5.241  -7.279  0.00  0.00    +0.000 OA
ATOM     32  C   UNL     1       3.714   5.256  -9.376  0.00  0.00    +0.000 A 
ATOM     33  H   UNL     1       0.523   5.341  -8.576  0.00  0.00    +0.000 HD
ENDBRANCH  20  23
ENDBRANCH  18  19
ENDBRANCH   4  18
TORSDOF 6
