REMARK  Name = 
REMARK  10 active torsions:
REMARK  status: ('A' for Active; 'I' for Inactive)
REMARK    1  A    between atoms: C_1  and  O_2
REMARK    2  A    between atoms: O_2  and  C_3
REMARK    3  A    between atoms: C_10  and  C_11
REMARK    4  A    between atoms: N_13  and  C_14
REMARK    5  A    between atoms: C_14  and  C_15
REMARK    6  A    between atoms: C_18  and  C_19
REMARK    7  A    between atoms: C_19  and  N_20
REMARK    8  A    between atoms: N_20  and  C_21
REMARK    9  A    between atoms: N_20  and  C_22
REMARK   10  A    between atoms: C_22  and  C_23
REMARK                            x       y       z     vdW  Elec       q    Type
REMARK                         _______ _______ _______ _____ _____    ______ ____
ROOT
ATOM      1  C   UNL     1       2.991  -2.044  -2.684  0.00  0.00    +0.000 C 
ENDROOT
BRANCH   1   2
ATOM      2  C   UNL     1       1.807  -2.731  -2.053  0.00  0.00    +0.000 A 
ATOM      3  C   UNL     1       1.756  -4.127  -1.947  0.00  0.00    +0.000 A 
ATOM      4  C   UNL     1       0.720  -4.749  -1.237  0.00  0.00    +0.000 A 
ATOM      5  C   UNL     1      -0.265  -3.986  -0.600  0.00  0.00    +0.000 A 
ATOM      6  C   UNL     1      -0.268  -2.599  -0.793  0.00  0.00    +0.000 A 
ATOM      7  C   UNL     1       0.750  -1.978  -1.530  0.00  0.00    +0.000 A 
BRANCH   5   8
ATOM      8  C   UNL     1      -1.263  -4.627   0.362  0.00  0.00    +0.000 C 
BRANCH   8   9
ATOM      9  N   UNL     1      -0.607  -5.328   1.486  0.00  0.00    +0.000 NA
ATOM     10  C   UNL     1       0.186  -4.400   2.312  0.00  0.00    +0.000 C 
BRANCH   9  11
ATOM     11  C   UNL     1      -1.591  -6.029   2.346  0.00  0.00    +0.000 C 
BRANCH  11  12
ATOM     12  C   UNL     1      -2.376  -7.131   1.654  0.00  0.00    +0.000 A 
ATOM     13  C   UNL     1      -1.728  -8.204   1.026  0.00  0.00    +0.000 A 
ATOM     14  C   UNL     1      -2.461  -9.166   0.323  0.00  0.00    +0.000 A 
ATOM     15  C   UNL     1      -3.852  -9.094   0.279  0.00  0.00    +0.000 A 
ATOM     16  C   UNL     1      -4.513  -8.072   0.954  0.00  0.00    +0.000 A 
ATOM     17  C   UNL     1      -3.781  -7.093   1.633  0.00  0.00    +0.000 A 
ENDBRANCH  11  12
ENDBRANCH   9  11
ENDBRANCH   8   9
ENDBRANCH   5   8
ENDBRANCH   1   2
BRANCH   1  20
ATOM     18  C   UNL     1       3.818  -1.295  -4.863  0.00  0.00    +0.000 C 
ATOM     19  O   UNL     1       4.872  -0.928  -4.362  0.00  0.00    +0.000 OA
ATOM     20  N   UNL     1       2.818  -1.843  -4.100  0.00  0.00    +0.000 N 
ATOM     21  H   UNL     1       1.925  -2.089  -4.510  0.00  0.00    +0.000 HD
BRANCH  18  29
ATOM     22  C   UNL     1       1.208  -2.202  -6.940  0.00  0.00    +0.000 A 
ATOM     23  N   UNL     1       0.388  -2.499  -7.968  0.00  0.00    +0.000 NA
ATOM     24  C   UNL     1       0.778  -2.165  -9.202  0.00  0.00    +0.000 A 
ATOM     25  N   UNL     1       1.906  -1.554  -9.542  0.00  0.00    +0.000 NA
ATOM     26  C   UNL     1       2.702  -1.294  -8.491  0.00  0.00    +0.000 A 
ATOM     27  S   UNL     1       4.185  -0.506  -8.745  0.00  0.00    +0.000 S 
ATOM     28  C   UNL     1       4.554  -0.561  -7.088  0.00  0.00    +0.000 A 
ATOM     29  C   UNL     1       3.572  -1.169  -6.310  0.00  0.00    +0.000 A 
ATOM     30  C   UNL     1       2.455  -1.590  -7.152  0.00  0.00    +0.000 A 
BRANCH  22  32
ATOM     31  C   UNL     1      -0.651  -2.511  -5.576  0.00  0.00    +0.000 C 
ATOM     32  O   UNL     1       0.774  -2.512  -5.666  0.00  0.00    +0.000 OA
ENDBRANCH  22  32
ENDBRANCH  18  29
ENDBRANCH   1  20
TORSDOF 8
