REMARK  Name = 
REMARK  8 active torsions:
REMARK  status: ('A' for Active; 'I' for Inactive)
REMARK    1  A    between atoms: C_1  and  C_2
REMARK    2  A    between atoms: C_5  and  C_6
REMARK    3  A    between atoms: C_6  and  N_7
REMARK    4  A    between atoms: N_7  and  C_8
REMARK    5  A    between atoms: C_8  and  C_9
REMARK    6  A    between atoms: C_12  and  C_13
REMARK    7  A    between atoms: C_13  and  N_14
REMARK    8  A    between atoms: C_15  and  C_17
REMARK                            x       y       z     vdW  Elec       q    Type
REMARK                         _______ _______ _______ _____ _____    ______ ____
ROOT
ATOM      1  C   UNL     1      -5.828   2.828  -0.106  0.00  0.00    +0.000 A 
ATOM      2  C   UNL     1      -7.203   3.056  -0.149  0.00  0.00    +0.000 A 
ATOM      3  C   UNL     1      -7.680   4.367  -0.195  0.00  0.00    +0.000 A 
ATOM      4  C   UNL     1      -6.777   5.430  -0.194  0.00  0.00    +0.000 A 
ATOM      5  C   UNL     1      -5.425   5.109  -0.118  0.00  0.00    +0.000 A 
ATOM      6  N   UNL     1      -4.933   3.846  -0.073  0.00  0.00    +0.000 NA
ENDROOT
BRANCH   1   7
ATOM      7  C   UNL     1      -5.296   1.402  -0.090  0.00  0.00    +0.000 C 
BRANCH   7   8
ATOM      8  N   UNL     1      -5.700   0.647  -1.285  0.00  0.00    +0.000 NA
ATOM      9  H   UNL     1      -6.715   0.626  -1.351  0.00  0.00    +0.000 HD
BRANCH   8  10
ATOM     10  C   UNL     1      -5.210  -0.727  -1.261  0.00  0.00    +0.000 C 
BRANCH  10  15
ATOM     11  C   UNL     1      -7.085  -3.611  -5.979  0.00  0.00    +0.000 C 
ATOM     12  C   UNL     1      -6.585  -2.874  -4.772  0.00  0.00    +0.000 A 
ATOM     13  C   UNL     1      -5.774  -1.742  -4.905  0.00  0.00    +0.000 A 
ATOM     14  C   UNL     1      -5.323  -1.057  -3.773  0.00  0.00    +0.000 A 
ATOM     15  C   UNL     1      -5.680  -1.483  -2.486  0.00  0.00    +0.000 A 
ATOM     16  C   UNL     1      -6.484  -2.624  -2.357  0.00  0.00    +0.000 A 
ATOM     17  C   UNL     1      -6.930  -3.313  -3.488  0.00  0.00    +0.000 A 
ENDBRANCH  10  15
ENDBRANCH   8  10
ENDBRANCH   7   8
ENDBRANCH   1   7
BRANCH   4  18
ATOM     18  C   UNL     1      -7.222   6.864  -0.231  0.00  0.00    +0.000 C 
BRANCH  18  19
ATOM     19  N   UNL     1      -7.414   7.387   1.097  0.00  0.00    +0.000 N 
ATOM     20  C   UNL     1      -7.856   8.667   1.318  0.00  0.00    +0.000 C 
ATOM     21  O   UNL     1      -8.132   9.434   0.398  0.00  0.00    +0.000 OA
ATOM     22  H   UNL     1      -6.923   6.914   1.848  0.00  0.00    +0.000 HD
BRANCH  20  23
ATOM     23  C   UNL     1      -8.037   9.050   2.721  0.00  0.00    +0.000 A 
ATOM     24  C   UNL     1      -8.954  10.035   3.065  0.00  0.00    +0.000 A 
ATOM     25  S   UNL     1      -9.062  10.311   4.747  0.00  0.00    +0.000 S 
ATOM     26  C   UNL     1      -7.851   9.161   5.071  0.00  0.00    +0.000 A 
ATOM     27  N   UNL     1      -7.431   8.921   6.342  0.00  0.00    +0.000 NA
ATOM     28  C   UNL     1      -6.482   8.049   6.435  0.00  0.00    +0.000 A 
ATOM     29  N   UNL     1      -5.923   7.384   5.375  0.00  0.00    +0.000 N 
ATOM     30  C   UNL     1      -6.347   7.560   4.079  0.00  0.00    +0.000 A 
ATOM     31  O   UNL     1      -5.883   6.894   3.162  0.00  0.00    +0.000 OA
ATOM     32  C   UNL     1      -7.390   8.556   3.916  0.00  0.00    +0.000 A 
ATOM     33  H   UNL     1      -5.201   6.695   5.516  0.00  0.00    +0.000 HD
ENDBRANCH  20  23
ENDBRANCH  18  19
ENDBRANCH   4  18
TORSDOF 7
