REMARK  Name = 
REMARK  6 active torsions:
REMARK  status: ('A' for Active; 'I' for Inactive)
REMARK    1  A    between atoms: N_1  and  C_2
REMARK    2  A    between atoms: C_2  and  C_3
REMARK    3  A    between atoms: C_6  and  N_7
REMARK    4  A    between atoms: N_7  and  C_8
REMARK    5  A    between atoms: C_8  and  C_9
REMARK    6  A    between atoms: C_9  and  C_12
REMARK                            x       y       z     vdW  Elec       q    Type
REMARK                         _______ _______ _______ _____ _____    ______ ____
ROOT
ATOM      1  N   UNL     1       3.909  -4.670  -2.734  0.00  0.00    +0.000 N 
ATOM      2  H   UNL     1       4.154  -4.599  -3.722  0.00  0.00    +0.000 HD
ENDROOT
BRANCH   1   6
ATOM      3  C   UNL     1       1.876  -1.211  -1.781  0.00  0.00    +0.000 A 
ATOM      4  C   UNL     1       1.208  -2.420  -1.953  0.00  0.00    +0.000 A 
ATOM      5  N   UNL     1       1.842  -3.584  -2.245  0.00  0.00    +0.000 NA
ATOM      6  C   UNL     1       3.182  -3.525  -2.384  0.00  0.00    +0.000 A 
ATOM      7  C   UNL     1       3.842  -2.298  -2.241  0.00  0.00    +0.000 A 
ATOM      8  N   UNL     1       3.220  -1.129  -1.929  0.00  0.00    +0.000 NA
BRANCH   3   9
ATOM      9  C   UNL     1       1.114   0.040  -1.422  0.00  0.00    +0.000 C 
BRANCH   9  10
ATOM     10  N   UNL     1       0.335  -0.101  -0.188  0.00  0.00    +0.000 NA
ATOM     11  H   UNL     1      -0.106   0.793   0.024  0.00  0.00    +0.000 HD
ATOM     12  H   UNL     1       0.985  -0.276   0.580  0.00  0.00    +0.000 HD
ENDBRANCH   9  10
ENDBRANCH   3   9
ENDBRANCH   1   6
BRANCH   1  13
ATOM     13  C   UNL     1       3.253  -5.962  -2.416  0.00  0.00    +0.000 C 
BRANCH  13  14
ATOM     14  C   UNL     1       3.680  -7.100  -3.375  0.00  0.00    +0.000 C 
ATOM     15  F   UNL     1       3.293  -6.745  -4.642  0.00  0.00    +0.000 F 
ATOM     16  F   UNL     1       5.048  -7.135  -3.430  0.00  0.00    +0.000 F 
BRANCH  14  17
ATOM     17  C   UNL     1       3.098  -8.437  -2.959  0.00  0.00    +0.000 A 
ATOM     18  C   UNL     1       1.810  -8.818  -3.368  0.00  0.00    +0.000 A 
ATOM     19  C   UNL     1       1.289 -10.062  -3.005  0.00  0.00    +0.000 A 
ATOM     20  C   UNL     1       2.048 -10.937  -2.229  0.00  0.00    +0.000 A 
ATOM     21  C   UNL     1       3.320 -10.565  -1.802  0.00  0.00    +0.000 A 
ATOM     22  C   UNL     1       3.843  -9.322  -2.163  0.00  0.00    +0.000 A 
ENDBRANCH  14  17
ENDBRANCH  13  14
ENDBRANCH   1  13
TORSDOF 6
