REMARK  Name = 
REMARK  6 active torsions:
REMARK  status: ('A' for Active; 'I' for Inactive)
REMARK    1  A    between atoms: C_2  and  C_4
REMARK    2  A    between atoms: N_8  and  C_9
REMARK    3  A    between atoms: C_9  and  C_10
REMARK    4  A    between atoms: C_10  and  C_11
REMARK    5  A    between atoms: C_15  and  O_16
REMARK    6  A    between atoms: O_16  and  C_17
REMARK                            x       y       z     vdW  Elec       q    Type
REMARK                         _______ _______ _______ _____ _____    ______ ____
ROOT
ATOM      1  C   UNL     1       5.322  -3.920   4.253  0.00  0.00    +0.000 C 
ENDROOT
BRANCH   1   6
ATOM      2  C   UNL     1       2.909  -0.519   1.354  0.00  0.00    +0.000 A 
ATOM      3  C   UNL     1       2.383  -1.563   2.107  0.00  0.00    +0.000 A 
ATOM      4  C   UNL     1       3.219  -2.256   2.984  0.00  0.00    +0.000 A 
ATOM      5  C   UNL     1       4.563  -1.907   3.081  0.00  0.00    +0.000 A 
ATOM      6  N   UNL     1       5.435  -2.492   3.985  0.00  0.00    +0.000 N 
ATOM      7  N   UNL     1       5.087  -0.915   2.337  0.00  0.00    +0.000 NA
ATOM      8  C   UNL     1       4.260  -0.246   1.488  0.00  0.00    +0.000 A 
ATOM      9  H   UNL     1       6.367  -2.158   3.746  0.00  0.00    +0.000 HD
BRANCH   2  11
ATOM     10  N   UNL     1       0.758   0.409   0.710  0.00  0.00    +0.000 N 
ATOM     11  C   UNL     1       2.092   0.296   0.431  0.00  0.00    +0.000 C 
ATOM     12  O   UNL     1       2.590   0.877  -0.523  0.00  0.00    +0.000 OA
ATOM     13  H   UNL     1       0.234   1.058   0.135  0.00  0.00    +0.000 HD
ATOM     14  H   UNL     1       0.368   0.167   1.610  0.00  0.00    +0.000 HD
ENDBRANCH   2  11
ENDBRANCH   1   6
BRANCH   1  15
ATOM     15  C   UNL     1       6.455  -4.381   5.179  0.00  0.00    +0.000 C 
BRANCH  15  16
ATOM     16  C   UNL     1       6.287  -5.827   5.583  0.00  0.00    +0.000 A 
ATOM     17  C   UNL     1       5.536  -6.166   6.714  0.00  0.00    +0.000 A 
ATOM     18  C   UNL     1       5.344  -7.505   7.058  0.00  0.00    +0.000 A 
ATOM     19  C   UNL     1       5.902  -8.525   6.279  0.00  0.00    +0.000 A 
ATOM     20  C   UNL     1       6.659  -8.196   5.157  0.00  0.00    +0.000 A 
ATOM     21  C   UNL     1       6.840  -6.855   4.806  0.00  0.00    +0.000 A 
BRANCH  20  22
ATOM     22  O   UNL     1       7.230  -9.107   4.305  0.00  0.00    +0.000 OA
BRANCH  22  23
ATOM     23  C   UNL     1       7.537 -10.432   4.798  0.00  0.00    +0.000 C 
ATOM     24  C   UNL     1       8.663 -10.572   5.842  0.00  0.00    +0.000 C 
ATOM     25  N   UNL     1       9.326 -11.592   5.015  0.00  0.00    +0.000 NA
ATOM     26  C   UNL     1       8.451 -11.267   3.879  0.00  0.00    +0.000 C 
ATOM     27  H   UNL     1       9.221 -12.545   5.360  0.00  0.00    +0.000 HD
ENDBRANCH  22  23
ENDBRANCH  20  22
ENDBRANCH  15  16
ENDBRANCH   1  15
TORSDOF 6
