REMARK  Name = 
REMARK  6 active torsions:
REMARK  status: ('A' for Active; 'I' for Inactive)
REMARK    1  A    between atoms: C_1  and  C_2
REMARK    2  A    between atoms: C_2  and  C_3
REMARK    3  A    between atoms: C_2  and  C_4
REMARK    4  A    between atoms: C_2  and  C_5
REMARK    5  A    between atoms: C_8  and  C_9
REMARK    6  A    between atoms: C_9  and  N_10
REMARK                            x       y       z     vdW  Elec       q    Type
REMARK                         _______ _______ _______ _____ _____    ______ ____
ROOT
ATOM      1  C   UNL     1       2.855   1.064   0.855  0.00  0.00    +0.000 A 
ATOM      2  C   UNL     1       2.791   2.380   0.363  0.00  0.00    +0.000 A 
ATOM      3  C   UNL     1       3.054   3.486   1.179  0.00  0.00    +0.000 A 
ATOM      4  C   UNL     1       3.379   3.320   2.527  0.00  0.00    +0.000 A 
ATOM      5  C   UNL     1       3.457   2.019   3.032  0.00  0.00    +0.000 A 
ATOM      6  C   UNL     1       3.197   0.912   2.211  0.00  0.00    +0.000 A 
ENDROOT
BRANCH   1   8
ATOM      7  C   UNL     1       2.757   0.114  -1.529  0.00  0.00    +0.000 C 
ATOM      8  C   UNL     1       2.483  -0.141  -0.028  0.00  0.00    +0.000 C 
ATOM      9  C   UNL     1       0.977  -0.422   0.149  0.00  0.00    +0.000 C 
ATOM     10  C   UNL     1       3.263  -1.424   0.341  0.00  0.00    +0.000 C 
ENDBRANCH   1   8
BRANCH   4  11
ATOM     11  C   UNL     1       3.599   4.515   3.419  0.00  0.00    +0.000 C 
BRANCH  11  12
ATOM     12  N   UNL     1       2.363   4.952   4.062  0.00  0.00    +0.000 N 
ATOM     13  C   UNL     1       1.908   4.461   5.263  0.00  0.00    +0.000 A 
ATOM     14  C   UNL     1       0.769   5.152   5.605  0.00  0.00    +0.000 A 
ATOM     15  C   UNL     1       0.519   6.108   4.584  0.00  0.00    +0.000 A 
ATOM     16  C   UNL     1      -0.466   7.085   4.391  0.00  0.00    +0.000 A 
ATOM     17  N   UNL     1      -0.451   7.877   3.292  0.00  0.00    +0.000 NA
ATOM     18  C   UNL     1       0.531   7.702   2.383  0.00  0.00    +0.000 A 
ATOM     19  C   UNL     1       1.551   6.767   2.480  0.00  0.00    +0.000 A 
ATOM     20  C   UNL     1       1.526   5.962   3.623  0.00  0.00    +0.000 A 
ENDBRANCH  11  12
ENDBRANCH   4  11
TORSDOF 3
