REMARK  Name = 
REMARK  8 active torsions:
REMARK  status: ('A' for Active; 'I' for Inactive)
REMARK    1  A    between atoms: C_1  and  C_2
REMARK    2  A    between atoms: C_7  and  C_8
REMARK    3  A    between atoms: C_13  and  C_14
REMARK    4  A    between atoms: C_14  and  C_15
REMARK    5  A    between atoms: C_15  and  N_16
REMARK    6  A    between atoms: N_16  and  C_17
REMARK    7  A    between atoms: C_20  and  C_21
REMARK    8  A    between atoms: C_28  and  C_29
REMARK                            x       y       z     vdW  Elec       q    Type
REMARK                         _______ _______ _______ _____ _____    ______ ____
ROOT
ATOM      1  C   UNL     1       1.569  -2.276  -3.018  0.00  0.00    +0.000 C 
ATOM      2  C   UNL     1       2.543  -1.658  -2.023  0.00  0.00    +0.000 C 
ATOM      3  C   UNL     1       2.194  -0.208  -1.635  0.00  0.00    +0.000 C 
ATOM      4  N   UNL     1       2.747   0.778  -2.563  0.00  0.00    +0.000 N 
ATOM      5  C   UNL     1       1.915   1.552  -3.343  0.00  0.00    +0.000 A 
ATOM      6  C   UNL     1       2.337   2.811  -3.759  0.00  0.00    +0.000 A 
ATOM      7  C   UNL     1       1.498   3.627  -4.521  0.00  0.00    +0.000 A 
ATOM      8  C   UNL     1       0.235   3.144  -4.861  0.00  0.00    +0.000 A 
ATOM      9  C   UNL     1      -0.136   1.874  -4.434  0.00  0.00    +0.000 A 
ATOM     10  N   UNL     1       0.680   1.107  -3.663  0.00  0.00    +0.000 NA
ATOM     11  C   UNL     1       4.154   0.579  -2.926  0.00  0.00    +0.000 C 
ATOM     12  C   UNL     1       4.427  -0.878  -3.353  0.00  0.00    +0.000 C 
ATOM     13  C   UNL     1       4.004  -1.178  -4.788  0.00  0.00    +0.000 C 
ATOM     14  O   UNL     1       3.912  -1.840  -2.420  0.00  0.00    +0.000 OA
ENDROOT
BRANCH   7  15
ATOM     15  C   UNL     1       1.946   4.992  -4.963  0.00  0.00    +0.000 C 
ATOM     16  F   UNL     1       3.194   5.325  -4.529  0.00  0.00    +0.000 F 
ATOM     17  F   UNL     1       1.981   5.109  -6.319  0.00  0.00    +0.000 F 
ATOM     18  F   UNL     1       1.122   5.981  -4.523  0.00  0.00    +0.000 F 
ENDBRANCH   7  15
BRANCH   9  19
ATOM     19  C   UNL     1      -1.514   1.342  -4.779  0.00  0.00    +0.000 C 
BRANCH  19  20
ATOM     20  C   UNL     1      -1.535  -0.181  -4.943  0.00  0.00    +0.000 C 
BRANCH  20  21
ATOM     21  N   UNL     1      -2.877  -0.666  -5.317  0.00  0.00    +0.000 N 
ATOM     22  H   UNL     1      -3.279  -0.152  -6.098  0.00  0.00    +0.000 HD
BRANCH  21  23
ATOM     23  C   UNL     1      -3.028  -2.057  -5.493  0.00  0.00    +0.000 A 
ATOM     24  C   UNL     1      -2.258  -3.001  -4.804  0.00  0.00    +0.000 A 
ATOM     25  C   UNL     1      -2.469  -4.374  -4.961  0.00  0.00    +0.000 A 
ATOM     26  C   UNL     1      -3.494  -4.842  -5.784  0.00  0.00    +0.000 A 
ATOM     27  C   UNL     1      -4.305  -3.917  -6.450  0.00  0.00    +0.000 A 
ATOM     28  C   UNL     1      -4.079  -2.539  -6.290  0.00  0.00    +0.000 A 
BRANCH  26  29
ATOM     29  C   UNL     1      -3.662  -6.316  -5.911  0.00  0.00    +0.000 C 
ATOM     30  N   UNL     1      -4.899  -6.785  -6.259  0.00  0.00    +0.000 N 
ATOM     31  O   UNL     1      -2.745  -7.088  -5.671  0.00  0.00    +0.000 OA
ATOM     32  H   UNL     1      -5.729  -6.213  -6.219  0.00  0.00    +0.000 HD
ATOM     33  H   UNL     1      -5.015  -7.790  -6.214  0.00  0.00    +0.000 HD
ENDBRANCH  26  29
ENDBRANCH  21  23
ENDBRANCH  20  21
ENDBRANCH  19  20
ENDBRANCH   9  19
TORSDOF 6
