REMARK  Name = 
REMARK  6 active torsions:
REMARK  status: ('A' for Active; 'I' for Inactive)
REMARK    1  A    between atoms: C_1  and  C_2
REMARK    2  A    between atoms: C_2  and  C_3
REMARK    3  A    between atoms: C_8  and  C_9
REMARK    4  A    between atoms: C_9  and  N_10
REMARK    5  A    between atoms: N_10  and  C_11
REMARK    6  A    between atoms: C_14  and  C_15
REMARK                            x       y       z     vdW  Elec       q    Type
REMARK                         _______ _______ _______ _____ _____    ______ ____
ROOT
ATOM      1  N   UNL     1       3.705  -1.323  -1.694  0.00  0.00    +0.000 N 
ATOM      2  H   UNL     1       2.771  -1.401  -2.095  0.00  0.00    +0.000 HD
ENDROOT
BRANCH   1   3
ATOM      3  C   UNL     1       4.334  -2.563  -1.618  0.00  0.00    +0.000 A 
ATOM      4  C   UNL     1       3.818  -3.501  -0.715  0.00  0.00    +0.000 A 
ATOM      5  C   UNL     1       4.414  -4.759  -0.556  0.00  0.00    +0.000 A 
ATOM      6  C   UNL     1       5.518  -5.116  -1.329  0.00  0.00    +0.000 A 
ATOM      7  C   UNL     1       6.023  -4.201  -2.258  0.00  0.00    +0.000 A 
ATOM      8  C   UNL     1       5.430  -2.937  -2.400  0.00  0.00    +0.000 A 
BRANCH   6   9
ATOM      9  C   UNL     1       6.141  -6.448  -1.109  0.00  0.00    +0.000 C 
ATOM     10  N   UNL     1       6.849  -6.992  -2.145  0.00  0.00    +0.000 N 
ATOM     11  O   UNL     1       6.005  -7.058  -0.057  0.00  0.00    +0.000 OA
ATOM     12  H   UNL     1       6.784  -6.647  -3.091  0.00  0.00    +0.000 HD
ATOM     13  H   UNL     1       7.183  -7.938  -2.010  0.00  0.00    +0.000 HD
ENDBRANCH   6   9
ENDBRANCH   1   3
BRANCH   1  14
ATOM     14  C   UNL     1       4.425  -0.160  -2.205  0.00  0.00    +0.000 C 
BRANCH  14  20
ATOM     15  C   UNL     1       3.382   2.202  -2.427  0.00  0.00    +0.000 A 
ATOM     16  C   UNL     1       2.878   3.351  -1.781  0.00  0.00    +0.000 A 
ATOM     17  C   UNL     1       2.803   3.435  -0.392  0.00  0.00    +0.000 A 
ATOM     18  C   UNL     1       3.227   2.364   0.382  0.00  0.00    +0.000 A 
ATOM     19  C   UNL     1       3.728   1.219  -0.236  0.00  0.00    +0.000 A 
ATOM     20  C   UNL     1       3.811   1.109  -1.642  0.00  0.00    +0.000 A 
BRANCH  15  22
ATOM     21  C   UNL     1       2.076   1.699  -4.510  0.00  0.00    +0.000 C 
ATOM     22  C   UNL     1       3.389   2.214  -3.938  0.00  0.00    +0.000 C 
ENDBRANCH  15  22
ENDBRANCH  14  20
ENDBRANCH   1  14
TORSDOF 5
