REMARK  Name = 
REMARK  6 active torsions:
REMARK  status: ('A' for Active; 'I' for Inactive)
REMARK    1  A    between atoms: C_1  and  C_2
REMARK    2  A    between atoms: C_2  and  C_3
REMARK    3  A    between atoms: C_10  and  C_11
REMARK    4  A    between atoms: C_11  and  O_12
REMARK    5  A    between atoms: O_12  and  C_13
REMARK    6  A    between atoms: C_16  and  C_17
REMARK                            x       y       z     vdW  Elec       q    Type
REMARK                         _______ _______ _______ _____ _____    ______ ____
ROOT
ATOM      1  C   UNL     1       2.942   2.424   0.243  0.00  0.00    +0.000 C 
ATOM      2  C   UNL     1       3.907   1.340  -0.277  0.00  0.00    +0.000 C 
ATOM      3  C   UNL     1       5.314   1.659   0.264  0.00  0.00    +0.000 C 
ATOM      4  C   UNL     1       3.963   1.356  -1.838  0.00  0.00    +0.000 C 
ATOM      5  N   UNL     1       2.736   0.816  -2.415  0.00  0.00    +0.000 N 
ATOM      6  C   UNL     1       1.975   1.573  -3.266  0.00  0.00    +0.000 A 
ATOM      7  N   UNL     1       0.833   1.069  -3.759  0.00  0.00    +0.000 NA
ATOM      8  C   UNL     1       0.128   1.835  -4.612  0.00  0.00    +0.000 A 
ATOM      9  C   UNL     1       0.514   3.092  -5.005  0.00  0.00    +0.000 A 
ATOM     10  C   UNL     1       1.705   3.536  -4.479  0.00  0.00    +0.000 A 
ATOM     11  N   UNL     1       2.426   2.786  -3.616  0.00  0.00    +0.000 NA
ATOM     12  C   UNL     1       2.264  -0.465  -1.903  0.00  0.00    +0.000 C 
ATOM     13  C   UNL     1       2.262  -0.467  -0.358  0.00  0.00    +0.000 C 
ATOM     14  N   UNL     1       3.527  -0.001   0.253  0.00  0.00    +0.000 NA
ATOM     15  H   UNL     1       4.256  -0.660  -0.022  0.00  0.00    +0.000 HD
ENDROOT
BRANCH  10  16
ATOM     16  C   UNL     1       2.316   4.843  -4.919  0.00  0.00    +0.000 C 
BRANCH  16  17
ATOM     17  O   UNL     1       1.779   5.952  -4.193  0.00  0.00    +0.000 OA
BRANCH  17  18
ATOM     18  C   UNL     1       2.300   7.182  -4.508  0.00  0.00    +0.000 A 
ATOM     19  C   UNL     1       3.285   7.428  -5.469  0.00  0.00    +0.000 A 
ATOM     20  C   UNL     1       3.739   8.730  -5.700  0.00  0.00    +0.000 A 
ATOM     21  C   UNL     1       3.211   9.807  -4.980  0.00  0.00    +0.000 A 
ATOM     22  C   UNL     1       2.225   9.569  -4.018  0.00  0.00    +0.000 A 
ATOM     23  C   UNL     1       1.778   8.260  -3.784  0.00  0.00    +0.000 A 
BRANCH  21  24
ATOM     24  C   UNL     1       3.766  11.160  -5.247  0.00  0.00    +0.000 C 
ATOM     25  N   UNL     1       2.976  12.240  -4.979  0.00  0.00    +0.000 N 
ATOM     26  O   UNL     1       4.890  11.308  -5.720  0.00  0.00    +0.000 OA
ATOM     27  H   UNL     1       1.988  12.171  -4.777  0.00  0.00    +0.000 HD
ATOM     28  H   UNL     1       3.345  13.143  -5.246  0.00  0.00    +0.000 HD
ENDBRANCH  21  24
ENDBRANCH  17  18
ENDBRANCH  16  17
ENDBRANCH  10  16
TORSDOF 4
