REMARK  Name = 
REMARK  6 active torsions:
REMARK  status: ('A' for Active; 'I' for Inactive)
REMARK    1  A    between atoms: N_1  and  C_2
REMARK    2  A    between atoms: C_2  and  C_3
REMARK    3  A    between atoms: C_5  and  C_6
REMARK    4  A    between atoms: C_6  and  N_7
REMARK    5  A    between atoms: C_12  and  C_13
REMARK    6  A    between atoms: C_13  and  O_15
REMARK                            x       y       z     vdW  Elec       q    Type
REMARK                         _______ _______ _______ _____ _____    ______ ____
ROOT
ATOM      1  N   UNL     1       3.756   2.048  -4.589  0.00  0.00    +0.000 N 
ATOM      2  C   UNL     1       3.443   2.545  -5.829  0.00  0.00    +0.000 A 
ATOM      3  C   UNL     1       3.657   3.903  -5.809  0.00  0.00    +0.000 A 
ATOM      4  C   UNL     1       4.126   4.250  -4.513  0.00  0.00    +0.000 A 
ATOM      5  C   UNL     1       4.474   5.470  -3.899  0.00  0.00    +0.000 A 
ATOM      6  C   UNL     1       4.914   5.473  -2.567  0.00  0.00    +0.000 A 
ATOM      7  C   UNL     1       5.083   4.274  -1.875  0.00  0.00    +0.000 A 
ATOM      8  C   UNL     1       4.760   3.054  -2.476  0.00  0.00    +0.000 A 
ATOM      9  C   UNL     1       4.244   3.064  -3.783  0.00  0.00    +0.000 A 
ENDROOT
BRANCH   6  10
ATOM     10  C   UNL     1       5.228   6.782  -1.940  0.00  0.00    +0.000 C 
ATOM     11  O   UNL     1       5.676   7.728  -2.563  0.00  0.00    +0.000 OA
BRANCH  10  12
ATOM     12  O   UNL     1       4.917   6.842  -0.627  0.00  0.00    +0.000 OA
ATOM     13  H   UNL     1       4.406   6.082  -0.290  0.00  0.00    +0.000 HD
ENDBRANCH  10  12
ENDBRANCH   6  10
BRANCH   1  14
ATOM     14  C   UNL     1       3.584   0.652  -4.211  0.00  0.00    +0.000 C 
BRANCH  14  17
ATOM     15  C   UNL     1       2.574   0.277  -1.347  0.00  0.00    +0.000 C 
ATOM     16  C   UNL     1       1.801   1.057  -2.399  0.00  0.00    +0.000 C 
ATOM     17  C   UNL     1       2.177   0.318  -3.671  0.00  0.00    +0.000 C 
ATOM     18  C   UNL     1       2.121  -1.121  -3.162  0.00  0.00    +0.000 C 
ATOM     19  O   UNL     1       2.483  -1.098  -1.767  0.00  0.00    +0.000 OA
BRANCH  15  20
ATOM     20  C   UNL     1       2.087   0.474   0.087  0.00  0.00    +0.000 C 
BRANCH  20  21
ATOM     21  N   UNL     1       2.168   1.874   0.518  0.00  0.00    +0.000 NA
ATOM     22  H   UNL     1       1.833   1.937   1.480  0.00  0.00    +0.000 HD
ATOM     23  H   UNL     1       1.525   2.438  -0.036  0.00  0.00    +0.000 HD
ENDBRANCH  20  21
ENDBRANCH  15  20
ENDBRANCH  14  17
ENDBRANCH   1  14
TORSDOF 6
