REMARK  Name = 
REMARK  6 active torsions:
REMARK  status: ('A' for Active; 'I' for Inactive)
REMARK    1  A    between atoms: C_2  and  C_25
REMARK    2  A    between atoms: N_3  and  C_4
REMARK    3  A    between atoms: C_4  and  C_5
REMARK    4  A    between atoms: C_8  and  C_9
REMARK    5  A    between atoms: C_9  and  N_10
REMARK    6  A    between atoms: C_11  and  C_13
REMARK                            x       y       z     vdW  Elec       q    Type
REMARK                         _______ _______ _______ _____ _____    ______ ____
ROOT
ATOM      1  C   UNL     1       3.241  -2.503   2.627  0.00  0.00    +0.000 A 
ATOM      2  C   UNL     1       4.166  -1.876   3.473  0.00  0.00    +0.000 A 
ATOM      3  C   UNL     1       4.988  -2.632   4.318  0.00  0.00    +0.000 A 
ATOM      4  C   UNL     1       4.917  -4.031   4.321  0.00  0.00    +0.000 A 
ATOM      5  C   UNL     1       3.991  -4.657   3.476  0.00  0.00    +0.000 A 
ATOM      6  C   UNL     1       3.170  -3.902   2.630  0.00  0.00    +0.000 A 
ENDROOT
BRANCH   1   7
ATOM      7  C   UNL     1       2.314  -1.690   1.760  0.00  0.00    +0.000 C 
BRANCH   7  10
ATOM      8  O   UNL     1       0.994  -0.251  -0.180  0.00  0.00    +0.000 OA
ATOM      9  C   UNL     1       2.137  -0.627  -0.426  0.00  0.00    +0.000 C 
ATOM     10  N   UNL     1       2.882  -1.352   0.475  0.00  0.00    +0.000 N 
ATOM     11  H   UNL     1       3.828  -1.624   0.265  0.00  0.00    +0.000 HD
BRANCH   9  12
ATOM     12  C   UNL     1       2.772  -0.329  -1.694  0.00  0.00    +0.000 A 
ATOM     13  C   UNL     1       4.013  -0.639  -2.226  0.00  0.00    +0.000 A 
ATOM     14  C   UNL     1       4.079  -0.094  -3.531  0.00  0.00    +0.000 A 
ATOM     15 CL   UNL     1       5.401  -0.229  -4.583  0.00  0.00    +0.000 Cl
ATOM     16  C   UNL     1       2.889   0.547  -3.774  0.00  0.00    +0.000 A 
ATOM     17  N   UNL     1       2.106   0.404  -2.661  0.00  0.00    +0.000 N 
ATOM     18  H   UNL     1       1.168   0.767  -2.539  0.00  0.00    +0.000 HD
ENDBRANCH   9  12
ENDBRANCH   7  10
ENDBRANCH   1   7
BRANCH   4  19
ATOM     19  C   UNL     1       5.787  -4.854   5.237  0.00  0.00    +0.000 C 
BRANCH  19  20
ATOM     20  N   UNL     1       5.139  -5.098   6.503  0.00  0.00    +0.000 N 
ATOM     21  C   UNL     1       5.780  -5.771   7.514  0.00  0.00    +0.000 C 
ATOM     22  O   UNL     1       6.948  -6.136   7.412  0.00  0.00    +0.000 OA
ATOM     23  H   UNL     1       4.127  -5.018   6.524  0.00  0.00    +0.000 HD
BRANCH  21  24
ATOM     24  C   UNL     1       5.018  -5.981   8.752  0.00  0.00    +0.000 A 
ATOM     25  C   UNL     1       5.690  -6.187   9.950  0.00  0.00    +0.000 A 
ATOM     26  S   UNL     1       4.656  -6.368  11.294  0.00  0.00    +0.000 S 
ATOM     27  C   UNL     1       3.271  -6.229  10.316  0.00  0.00    +0.000 A 
ATOM     28  N   UNL     1       2.024  -6.324  10.852  0.00  0.00    +0.000 NA
ATOM     29  C   UNL     1       1.066  -6.230   9.992  0.00  0.00    +0.000 A 
ATOM     30  N   UNL     1       1.241  -6.044   8.645  0.00  0.00    +0.000 N 
ATOM     31  C   UNL     1       2.480  -5.916   8.063  0.00  0.00    +0.000 A 
ATOM     32  O   UNL     1       2.600  -5.710   6.860  0.00  0.00    +0.000 OA
ATOM     33  C   UNL     1       3.593  -6.026   8.986  0.00  0.00    +0.000 A 
ATOM     34  H   UNL     1       0.448  -5.968   8.025  0.00  0.00    +0.000 HD
ENDBRANCH  21  24
ENDBRANCH  19  20
ENDBRANCH   4  19
TORSDOF 6
