REMARK  Name = 
REMARK  5 active torsions:
REMARK  status: ('A' for Active; 'I' for Inactive)
REMARK    1  A    between atoms: N_1  and  C_2
REMARK    2  A    between atoms: C_2  and  C_3
REMARK    3  A    between atoms: C_3  and  C_4
REMARK    4  A    between atoms: C_13  and  C_14
REMARK    5  A    between atoms: C_14  and  C_15
REMARK                            x       y       z     vdW  Elec       q    Type
REMARK                         _______ _______ _______ _____ _____    ______ ____
ROOT
ATOM      1  C   UNL     1       4.498   1.309   0.516  0.00  0.00    +0.000 A 
ATOM      2  C   UNL     1       5.397   0.552   1.451  0.00  0.00    +0.000 A 
ATOM      3  N   UNL     1       6.695   0.571   1.463  0.00  0.00    +0.000 NA
ATOM      4  C   UNL     1       7.281   1.361   0.524  0.00  0.00    +0.000 A 
ATOM      5  C   UNL     1       8.607   1.592   0.238  0.00  0.00    +0.000 A 
ATOM      6  C   UNL     1       8.587   2.489  -0.831  0.00  0.00    +0.000 A 
ATOM      7 CL   UNL     1       9.947   3.113  -1.626  0.00  0.00    +0.000 Cl
ATOM      8  N   UNL     1       7.360   2.842  -1.204  0.00  0.00    +0.000 NA
ATOM      9  N   UNL     1       6.539   2.131  -0.383  0.00  0.00    +0.000 N 
ATOM     10  C   UNL     1       5.130   2.107  -0.376  0.00  0.00    +0.000 A 
ENDROOT
BRANCH   1  11
ATOM     11  C   UNL     1       3.023   1.088   0.721  0.00  0.00    +0.000 C 
BRANCH  11  12
ATOM     12  C   UNL     1       2.536  -0.204   0.051  0.00  0.00    +0.000 C 
BRANCH  12  13
ATOM     13  N   UNL     1       1.133  -0.463   0.373  0.00  0.00    +0.000 NA
ATOM     14  H   UNL     1       0.804  -1.242  -0.199  0.00  0.00    +0.000 HD
ATOM     15  H   UNL     1       0.568   0.339   0.088  0.00  0.00    +0.000 HD
ENDBRANCH  12  13
ENDBRANCH  11  12
ENDBRANCH   1  11
BRANCH  10  16
ATOM     16  C   UNL     1       4.435   2.992  -1.395  0.00  0.00    +0.000 C 
BRANCH  16  17
ATOM     17  C   UNL     1       4.258   2.301  -2.729  0.00  0.00    +0.000 A 
ATOM     18  C   UNL     1       5.227   2.404  -3.725  0.00  0.00    +0.000 A 
ATOM     19  C   UNL     1       5.093   1.635  -4.877  0.00  0.00    +0.000 A 
ATOM     20  C   UNL     1       3.994   0.797  -5.014  0.00  0.00    +0.000 A 
ATOM     21  C   UNL     1       3.055   0.785  -3.999  0.00  0.00    +0.000 A 
ATOM     22  N   UNL     1       3.161   1.514  -2.866  0.00  0.00    +0.000 NA
ENDBRANCH  16  17
ENDBRANCH  10  16
TORSDOF 5
