REMARK  Name = 
REMARK  7 active torsions:
REMARK  status: ('A' for Active; 'I' for Inactive)
REMARK    1  A    between atoms: C_1  and  N_2
REMARK    2  A    between atoms: N_2  and  C_3
REMARK    3  A    between atoms: C_7  and  C_8
REMARK    4  A    between atoms: C_8  and  C_9
REMARK    5  A    between atoms: C_12  and  C_13
REMARK    6  A    between atoms: C_13  and  N_14
REMARK    7  A    between atoms: C_15  and  C_17
REMARK                            x       y       z     vdW  Elec       q    Type
REMARK                         _______ _______ _______ _____ _____    ______ ____
ROOT
ATOM      1  C   UNL     1       4.541  -1.380  -5.896  0.00  0.00    +0.000 A 
ATOM      2  C   UNL     1       4.679  -0.020  -6.158  0.00  0.00    +0.000 A 
ATOM      3  C   UNL     1       4.052   0.517  -7.281  0.00  0.00    +0.000 A 
ATOM      4  C   UNL     1       3.318  -0.312  -8.133  0.00  0.00    +0.000 A 
ATOM      5  C   UNL     1       3.269  -1.664  -7.811  0.00  0.00    +0.000 A 
ATOM      6  N   UNL     1       3.863  -2.212  -6.726  0.00  0.00    +0.000 NA
ENDROOT
BRANCH   1   7
ATOM      7  C   UNL     1       5.039  -1.963  -4.592  0.00  0.00    +0.000 C 
BRANCH   7  14
ATOM      8  C   UNL     1      -0.130  -2.888  -0.812  0.00  0.00    +0.000 C 
ATOM      9  N   UNL     1       1.029  -2.050  -0.527  0.00  0.00    +0.000 N 
ATOM     10  C   UNL     1       1.467  -1.958   0.858  0.00  0.00    +0.000 C 
ATOM     11  C   UNL     1       2.014  -2.011  -1.522  0.00  0.00    +0.000 A 
ATOM     12  C   UNL     1       3.186  -1.271  -1.341  0.00  0.00    +0.000 A 
ATOM     13  C   UNL     1       4.176  -1.240  -2.325  0.00  0.00    +0.000 A 
ATOM     14  C   UNL     1       3.993  -1.948  -3.505  0.00  0.00    +0.000 A 
ATOM     15  C   UNL     1       2.796  -2.644  -3.628  0.00  0.00    +0.000 A 
ATOM     16  N   UNL     1       1.821  -2.677  -2.680  0.00  0.00    +0.000 NA
ENDBRANCH   7  14
ENDBRANCH   1   7
BRANCH   4  17
ATOM     17  C   UNL     1       2.560   0.233  -9.309  0.00  0.00    +0.000 C 
BRANCH  17  18
ATOM     18  N   UNL     1       1.215   0.616  -8.940  0.00  0.00    +0.000 N 
ATOM     19  C   UNL     1       0.306   1.033  -9.879  0.00  0.00    +0.000 C 
ATOM     20  O   UNL     1       0.576   1.072 -11.076  0.00  0.00    +0.000 OA
ATOM     21  H   UNL     1       1.047   0.825  -7.962  0.00  0.00    +0.000 HD
BRANCH  19  22
ATOM     22  C   UNL     1      -1.035   1.374  -9.382  0.00  0.00    +0.000 A 
ATOM     23  C   UNL     1      -2.129   1.302 -10.234  0.00  0.00    +0.000 A 
ATOM     24  S   UNL     1      -3.611   1.688  -9.482  0.00  0.00    +0.000 S 
ATOM     25  C   UNL     1      -2.835   2.016  -8.001  0.00  0.00    +0.000 A 
ATOM     26  N   UNL     1      -3.541   2.437  -6.917  0.00  0.00    +0.000 NA
ATOM     27  C   UNL     1      -2.828   2.676  -5.873  0.00  0.00    +0.000 A 
ATOM     28  N   UNL     1      -1.466   2.529  -5.810  0.00  0.00    +0.000 N 
ATOM     29  C   UNL     1      -0.714   2.080  -6.870  0.00  0.00    +0.000 A 
ATOM     30  O   UNL     1       0.496   1.912  -6.773  0.00  0.00    +0.000 OA
ATOM     31  C   UNL     1      -1.472   1.811  -8.076  0.00  0.00    +0.000 A 
ATOM     32  H   UNL     1      -0.961   2.723  -4.958  0.00  0.00    +0.000 HD
ENDBRANCH  19  22
ENDBRANCH  17  18
ENDBRANCH   4  17
TORSDOF 5
