REMARK  Name = 
REMARK  8 active torsions:
REMARK  status: ('A' for Active; 'I' for Inactive)
REMARK    1  A    between atoms: C_1  and  C_2
REMARK    2  A    between atoms: C_2  and  N_3
REMARK    3  A    between atoms: C_4  and  C_6
REMARK    4  A    between atoms: N_10  and  C_11
REMARK    5  A    between atoms: C_11  and  C_12
REMARK    6  A    between atoms: C_12  and  C_13
REMARK    7  A    between atoms: C_12  and  C_14
REMARK    8  A    between atoms: C_12  and  C_15
REMARK                            x       y       z     vdW  Elec       q    Type
REMARK                         _______ _______ _______ _____ _____    ______ ____
ROOT
ATOM      1  C   UNL     1       4.701   2.517  -1.727  0.00  0.00    +0.000 A 
ATOM      2  C   UNL     1       5.987   2.449  -2.253  0.00  0.00    +0.000 A 
ATOM      3  C   UNL     1       6.395   3.410  -3.175  0.00  0.00    +0.000 A 
ATOM      4  C   UNL     1       5.527   4.439  -3.541  0.00  0.00    +0.000 A 
ATOM      5  N   UNL     1       6.046   5.458  -4.336  0.00  0.00    +0.000 N 
ATOM      6  N   UNL     1       4.267   4.497  -3.060  0.00  0.00    +0.000 NA
ATOM      7  C   UNL     1       3.873   3.528  -2.188  0.00  0.00    +0.000 A 
ATOM      8  H   UNL     1       6.508   5.130  -5.175  0.00  0.00    +0.000 HD
ENDROOT
BRANCH   1  10
ATOM      9  N   UNL     1       5.169   1.032   0.130  0.00  0.00    +0.000 N 
ATOM     10  C   UNL     1       4.213   1.556  -0.716  0.00  0.00    +0.000 C 
ATOM     11  O   UNL     1       3.016   1.277  -0.654  0.00  0.00    +0.000 OA
ATOM     12  H   UNL     1       6.093   1.452   0.154  0.00  0.00    +0.000 HD
BRANCH   9  14
ATOM     13  C   UNL     1       4.481   0.794   2.472  0.00  0.00    +0.000 C 
ATOM     14  C   UNL     1       4.843   0.092   1.178  0.00  0.00    +0.000 C 
ENDBRANCH   9  14
ENDBRANCH   1  10
BRANCH   5  15
ATOM     15  C   UNL     1       5.327   6.730  -4.395  0.00  0.00    +0.000 C 
BRANCH  15  16
ATOM     16  C   UNL     1       5.891   7.702  -5.477  0.00  0.00    +0.000 C 
ATOM     17  C   UNL     1       7.420   7.853  -5.284  0.00  0.00    +0.000 C 
ATOM     18  C   UNL     1       5.635   7.156  -6.899  0.00  0.00    +0.000 C 
BRANCH  16  19
ATOM     19  C   UNL     1       5.197   9.074  -5.348  0.00  0.00    +0.000 A 
ATOM     20  C   UNL     1       3.811   9.207  -5.482  0.00  0.00    +0.000 A 
ATOM     21  C   UNL     1       3.226  10.468  -5.364  0.00  0.00    +0.000 A 
ATOM     22  C   UNL     1       4.029  11.573  -5.125  0.00  0.00    +0.000 A 
ATOM     23  C   UNL     1       5.390  11.370  -5.015  0.00  0.00    +0.000 A 
ATOM     24  N   UNL     1       5.981  10.158  -5.119  0.00  0.00    +0.000 NA
ENDBRANCH  16  19
ENDBRANCH  15  16
ENDBRANCH   5  15
TORSDOF 5
