REMARK  Name = 
REMARK  6 active torsions:
REMARK  status: ('A' for Active; 'I' for Inactive)
REMARK    1  A    between atoms: C_2  and  C_4
REMARK    2  A    between atoms: C_7  and  S_8
REMARK    3  A    between atoms: S_8  and  C_9
REMARK    4  A    between atoms: C_9  and  C_10
REMARK    5  A    between atoms: C_10  and  C_11
REMARK    6  A    between atoms: C_15  and  C_16
REMARK                            x       y       z     vdW  Elec       q    Type
REMARK                         _______ _______ _______ _____ _____    ______ ____
ROOT
ATOM      1  C   UNL     1       5.405  -5.451  -5.531  0.00  0.00    +0.000 C 
ENDROOT
BRANCH   1   2
ATOM      2  C   UNL     1       4.885  -5.582  -6.943  0.00  0.00    +0.000 A 
ATOM      3  C   UNL     1       4.950  -4.522  -7.837  0.00  0.00    +0.000 A 
ATOM      4  N   UNL     1       4.509  -4.578  -9.105  0.00  0.00    +0.000 NA
ATOM      5  C   UNL     1       3.995  -5.760  -9.519  0.00  0.00    +0.000 A 
ATOM      6  C   UNL     1       3.885  -6.911  -8.735  0.00  0.00    +0.000 A 
ATOM      7  C   UNL     1       4.347  -6.790  -7.414  0.00  0.00    +0.000 A 
BRANCH   6   8
ATOM      8  C   UNL     1       3.342  -8.175  -9.282  0.00  0.00    +0.000 A 
ATOM      9  C   UNL     1       2.337  -8.170 -10.275  0.00  0.00    +0.000 A 
ATOM     10  C   UNL     1       1.863  -9.356 -10.845  0.00  0.00    +0.000 A 
ATOM     11  C   UNL     1       2.375 -10.572 -10.414  0.00  0.00    +0.000 A 
ATOM     12  F   UNL     1       1.927 -11.707 -10.969  0.00  0.00    +0.000 F 
ATOM     13  C   UNL     1       3.342 -10.608  -9.424  0.00  0.00    +0.000 A 
ATOM     14  F   UNL     1       3.835 -11.781  -9.006  0.00  0.00    +0.000 F 
ATOM     15  C   UNL     1       3.826  -9.426  -8.862  0.00  0.00    +0.000 A 
ENDBRANCH   6   8
ENDBRANCH   1   2
BRANCH   1  16
ATOM     16  C   UNL     1       4.696  -4.346  -4.739  0.00  0.00    +0.000 C 
BRANCH  16  17
ATOM     17  S   UNL     1       5.380  -4.249  -3.048  0.00  0.00    +0.000 S 
BRANCH  17  21
ATOM     18  C   UNL     1       3.108  -0.980  -0.860  0.00  0.00    +0.000 A 
ATOM     19  C   UNL     1       2.754  -1.204  -2.184  0.00  0.00    +0.000 A 
ATOM     20  C   UNL     1       3.435  -2.192  -2.901  0.00  0.00    +0.000 A 
ATOM     21  C   UNL     1       4.442  -2.935  -2.285  0.00  0.00    +0.000 A 
ATOM     22  C   UNL     1       4.726  -2.618  -0.953  0.00  0.00    +0.000 A 
ATOM     23  N   UNL     1       4.094  -1.663  -0.222  0.00  0.00    +0.000 NA
BRANCH  18  25
ATOM     24  N   UNL     1       2.825   0.249   1.214  0.00  0.00    +0.000 N 
ATOM     25  C   UNL     1       2.377   0.057  -0.065  0.00  0.00    +0.000 C 
ATOM     26  O   UNL     1       1.441   0.700  -0.522  0.00  0.00    +0.000 OA
ATOM     27  H   UNL     1       2.404   0.969   1.782  0.00  0.00    +0.000 HD
ATOM     28  H   UNL     1       3.648  -0.247   1.537  0.00  0.00    +0.000 HD
ENDBRANCH  18  25
ENDBRANCH  17  21
ENDBRANCH  16  17
ENDBRANCH   1  16
TORSDOF 6
