REMARK  Name = 
REMARK  6 active torsions:
REMARK  status: ('A' for Active; 'I' for Inactive)
REMARK    1  A    between atoms: C_1  and  N_2
REMARK    2  A    between atoms: N_5  and  C_6
REMARK    3  A    between atoms: C_10  and  C_11
REMARK    4  A    between atoms: C_11  and  C_12
REMARK    5  A    between atoms: C_12  and  N_13
REMARK    6  A    between atoms: C_17  and  C_18
REMARK                            x       y       z     vdW  Elec       q    Type
REMARK                         _______ _______ _______ _____ _____    ______ ____
ROOT
ATOM      1  C   UNL     1      -6.467   1.729   0.544  0.00  0.00    +0.000 C 
ENDROOT
BRANCH   1   6
ATOM      2  C   UNL     1      -3.047   0.020   0.797  0.00  0.00    +0.000 A 
ATOM      3  C   UNL     1      -3.206  -0.699   1.990  0.00  0.00    +0.000 A 
ATOM      4  C   UNL     1      -4.404  -0.683   2.702  0.00  0.00    +0.000 A 
ATOM      5  C   UNL     1      -5.476   0.076   2.246  0.00  0.00    +0.000 A 
ATOM      6  C   UNL     1      -5.362   0.835   1.077  0.00  0.00    +0.000 A 
ATOM      7  C   UNL     1      -4.150   0.776   0.365  0.00  0.00    +0.000 A 
BRANCH   2  12
ATOM      8  C   UNL     1       0.635  -0.814  -3.278  0.00  0.00    +0.000 C 
ATOM      9  N   UNL     1       0.177  -0.400  -1.957  0.00  0.00    +0.000 NA
ATOM     10  C   UNL     1      -0.846   0.666  -2.066  0.00  0.00    +0.000 C 
ATOM     11  C   UNL     1      -1.365   1.118  -0.683  0.00  0.00    +0.000 C 
ATOM     12  N   UNL     1      -1.890  -0.046   0.049  0.00  0.00    +0.000 N 
ATOM     13  C   UNL     1      -0.932  -1.155   0.178  0.00  0.00    +0.000 C 
ATOM     14  C   UNL     1      -0.406  -1.546  -1.222  0.00  0.00    +0.000 C 
ENDBRANCH   2  12
ENDBRANCH   1   6
BRANCH   1  15
ATOM     15  C   UNL     1      -7.728   1.751   1.409  0.00  0.00    +0.000 C 
BRANCH  15  16
ATOM     16  N   UNL     1      -8.757   2.652   0.884  0.00  0.00    +0.000 N 
ATOM     17  C   UNL     1      -9.911   2.635   1.697  0.00  0.00    +0.000 A 
ATOM     18  C   UNL     1     -10.997   3.431   1.349  0.00  0.00    +0.000 A 
ATOM     19  C   UNL     1     -12.143   3.413   2.150  0.00  0.00    +0.000 A 
ATOM     20  C   UNL     1     -12.188   2.600   3.284  0.00  0.00    +0.000 A 
ATOM     21  C   UNL     1     -11.059   1.854   3.562  0.00  0.00    +0.000 A 
ATOM     22  N   UNL     1      -9.938   1.864   2.804  0.00  0.00    +0.000 NA
ATOM     23  H   UNL     1      -9.031   2.414  -0.066  0.00  0.00    +0.000 HD
BRANCH  20  24
ATOM     24  C   UNL     1     -13.410   2.562   4.118  0.00  0.00    +0.000 C 
ATOM     25  N   UNL     1     -13.440   1.750   5.225  0.00  0.00    +0.000 N 
ATOM     26  O   UNL     1     -14.391   3.238   3.835  0.00  0.00    +0.000 OA
ATOM     27  H   UNL     1     -12.695   1.153   5.550  0.00  0.00    +0.000 HD
ATOM     28  H   UNL     1     -14.296   1.753   5.759  0.00  0.00    +0.000 HD
ENDBRANCH  20  24
ENDBRANCH  15  16
ENDBRANCH   1  15
TORSDOF 5
