REMARK  Name = 
REMARK  6 active torsions:
REMARK  status: ('A' for Active; 'I' for Inactive)
REMARK    1  A    between atoms: C_1  and  C_2
REMARK    2  A    between atoms: C_5  and  C_6
REMARK    3  A    between atoms: C_6  and  O_7
REMARK    4  A    between atoms: O_7  and  C_8
REMARK    5  A    between atoms: C_11  and  C_12
REMARK    6  A    between atoms: C_18  and  C_19
REMARK                            x       y       z     vdW  Elec       q    Type
REMARK                         _______ _______ _______ _____ _____    ______ ____
ROOT
ATOM      1  C   UNL     1      -5.524  -1.148  -0.165  0.00  0.00    +0.000 A 
ATOM      2  C   UNL     1      -5.791  -2.514  -0.127  0.00  0.00    +0.000 A 
ATOM      3  C   UNL     1      -7.113  -2.960  -0.109  0.00  0.00    +0.000 A 
ATOM      4  C   UNL     1      -8.131  -2.017  -0.134  0.00  0.00    +0.000 A 
ATOM      5  N   UNL     1      -7.916  -0.674  -0.179  0.00  0.00    +0.000 NA
ATOM      6  C   UNL     1      -6.616  -0.282  -0.193  0.00  0.00    +0.000 A 
ENDROOT
BRANCH   4   7
ATOM      7  C   UNL     1      -9.556  -2.475  -0.097  0.00  0.00    +0.000 C 
ATOM      8  N   UNL     1     -10.498  -1.484  -0.110  0.00  0.00    +0.000 N 
ATOM      9  O   UNL     1      -9.867  -3.660  -0.049  0.00  0.00    +0.000 OA
ATOM     10  H   UNL     1     -10.204  -0.514  -0.143  0.00  0.00    +0.000 HD
ATOM     11  H   UNL     1     -11.477  -1.727  -0.075  0.00  0.00    +0.000 HD
ENDBRANCH   4   7
BRANCH   1  12
ATOM     12  O   UNL     1      -4.285  -0.571  -0.174  0.00  0.00    +0.000 OA
BRANCH  12  13
ATOM     13  C   UNL     1      -3.167  -1.459  -0.081  0.00  0.00    +0.000 C 
BRANCH  13  18
ATOM     14  C   UNL     1       1.850   1.523   0.087  0.00  0.00    +0.000 C 
ATOM     15  C   UNL     1       0.542   0.781   0.057  0.00  0.00    +0.000 A 
ATOM     16  C   UNL     1       0.307  -0.155  -0.960  0.00  0.00    +0.000 A 
ATOM     17  C   UNL     1      -0.891  -0.870  -1.014  0.00  0.00    +0.000 A 
ATOM     18  C   UNL     1      -1.884  -0.663  -0.051  0.00  0.00    +0.000 A 
ATOM     19  C   UNL     1      -1.652   0.273   0.967  0.00  0.00    +0.000 A 
ATOM     20  C   UNL     1      -0.453   1.004   1.028  0.00  0.00    +0.000 A 
ATOM     21  C   UNL     1      -0.263   2.015   2.125  0.00  0.00    +0.000 C 
ENDBRANCH  13  18
ENDBRANCH  12  13
ENDBRANCH   1  12
TORSDOF 4
