REMARK  Name = 
REMARK  5 active torsions:
REMARK  status: ('A' for Active; 'I' for Inactive)
REMARK    1  A    between atoms: C_2  and  C_3
REMARK    2  A    between atoms: C_6  and  O_7
REMARK    3  A    between atoms: O_7  and  C_8
REMARK    4  A    between atoms: C_8  and  C_9
REMARK    5  A    between atoms: C_14  and  C_15
REMARK                            x       y       z     vdW  Elec       q    Type
REMARK                         _______ _______ _______ _____ _____    ______ ____
ROOT
ATOM      1  C   UNL     1       5.892  -0.930   0.342  0.00  0.00    +0.000 A 
ATOM      2  C   UNL     1       6.386   0.376   0.384  0.00  0.00    +0.000 A 
ATOM      3  C   UNL     1       7.752   0.589   0.501  0.00  0.00    +0.000 A 
ATOM      4  F   UNL     1       8.221   1.843   0.538  0.00  0.00    +0.000 F 
ATOM      5  C   UNL     1       8.646  -0.475   0.581  0.00  0.00    +0.000 A 
ATOM      6  C   UNL     1       8.194  -1.804   0.530  0.00  0.00    +0.000 A 
ATOM      7  C   UNL     1       6.803  -2.003   0.404  0.00  0.00    +0.000 A 
ENDROOT
BRANCH   6   8
ATOM      8  C   UNL     1       9.139  -2.945   0.612  0.00  0.00    +0.000 A 
ATOM      9  C   UNL     1      10.455  -2.850   0.114  0.00  0.00    +0.000 A 
ATOM     10  C   UNL     1      11.357  -3.918   0.205  0.00  0.00    +0.000 A 
ATOM     11  C   UNL     1      10.955  -5.115   0.785  0.00  0.00    +0.000 A 
ATOM     12  C   UNL     1       9.662  -5.231   1.271  0.00  0.00    +0.000 A 
ATOM     13  F   UNL     1       9.268  -6.384   1.828  0.00  0.00    +0.000 F 
ATOM     14  C   UNL     1       8.765  -4.168   1.197  0.00  0.00    +0.000 A 
ENDBRANCH   6   8
BRANCH   1  15
ATOM     15  C   UNL     1       4.412  -1.193   0.206  0.00  0.00    +0.000 C 
BRANCH  15  16
ATOM     16  O   UNL     1       3.965  -1.946   1.334  0.00  0.00    +0.000 OA
BRANCH  16  20
ATOM     17  C   UNL     1      -0.025  -3.127   1.664  0.00  0.00    +0.000 A 
ATOM     18  C   UNL     1       0.358  -2.373   0.550  0.00  0.00    +0.000 A 
ATOM     19  C   UNL     1       1.686  -1.955   0.401  0.00  0.00    +0.000 A 
ATOM     20  C   UNL     1       2.640  -2.287   1.365  0.00  0.00    +0.000 A 
ATOM     21  C   UNL     1       2.251  -3.035   2.480  0.00  0.00    +0.000 A 
ATOM     22  C   UNL     1       0.926  -3.456   2.633  0.00  0.00    +0.000 A 
BRANCH  17  24
ATOM     23  N   UNL     1      -2.486  -3.913   1.911  0.00  0.00    +0.000 NA
ATOM     24  C   UNL     1      -1.384  -3.561   1.805  0.00  0.00    +0.000 C 
ENDBRANCH  17  24
ENDBRANCH  16  20
ENDBRANCH  15  16
ENDBRANCH   1  15
TORSDOF 5
