REMARK  Name = 
REMARK  7 active torsions:
REMARK  status: ('A' for Active; 'I' for Inactive)
REMARK    1  A    between atoms: C_1  and  C_2
REMARK    2  A    between atoms: C_2  and  N_3
REMARK    3  A    between atoms: C_2  and  C_16
REMARK    4  A    between atoms: C_4  and  C_6
REMARK    5  A    between atoms: C_19  and  C_20
REMARK    6  A    between atoms: C_20  and  N_21
REMARK    7  A    between atoms: C_22  and  C_24
REMARK                            x       y       z     vdW  Elec       q    Type
REMARK                         _______ _______ _______ _____ _____    ______ ____
ROOT
ATOM      1  C   UNL     1       3.726  -0.827  -0.288  0.00  0.00    +0.000 C 
ATOM      2  C   UNL     1       2.485   0.020   0.016  0.00  0.00    +0.000 C 
ENDROOT
BRANCH   2   3
ATOM      3  C   UNL     1       2.838   1.154   0.972  0.00  0.00    +0.000 A 
ATOM      4  C   UNL     1       2.723   2.492   0.573  0.00  0.00    +0.000 A 
ATOM      5  C   UNL     1       3.000   3.531   1.470  0.00  0.00    +0.000 A 
ATOM      6  C   UNL     1       3.405   3.256   2.784  0.00  0.00    +0.000 A 
ATOM      7  C   UNL     1       3.520   1.920   3.185  0.00  0.00    +0.000 A 
ATOM      8  C   UNL     1       3.247   0.884   2.290  0.00  0.00    +0.000 A 
BRANCH   6   9
ATOM      9  C   UNL     1       3.676   4.370   3.761  0.00  0.00    +0.000 C 
BRANCH   9  10
ATOM     10  N   UNL     1       2.487   4.723   4.505  0.00  0.00    +0.000 N 
ATOM     11  C   UNL     1       2.535   5.676   5.500  0.00  0.00    +0.000 C 
ATOM     12  O   UNL     1       3.561   6.287   5.781  0.00  0.00    +0.000 OA
ATOM     13  H   UNL     1       1.605   4.327   4.210  0.00  0.00    +0.000 HD
BRANCH  11  14
ATOM     14  C   UNL     1       1.200   5.921   6.193  0.00  0.00    +0.000 C 
ATOM     15  C   UNL     1       1.263   7.006   7.248  0.00  0.00    +0.000 C 
ATOM     16  C   UNL     1       1.721   6.251   8.476  0.00  0.00    +0.000 C 
ATOM     17  O   UNL     1       1.172   4.931   8.368  0.00  0.00    +0.000 OA
ATOM     18  C   UNL     1       0.777   4.709   7.005  0.00  0.00    +0.000 C 
ENDBRANCH  11  14
ENDBRANCH   9  10
ENDBRANCH   6   9
ENDBRANCH   2   3
BRANCH   2  19
ATOM     19  N   UNL     1       1.399  -0.756   0.597  0.00  0.00    +0.000 N 
ATOM     20  C   UNL     1       0.803  -1.819  -0.031  0.00  0.00    +0.000 C 
ATOM     21  O   UNL     1       1.169  -2.240  -1.124  0.00  0.00    +0.000 OA
ATOM     22  H   UNL     1       0.865  -0.284   1.320  0.00  0.00    +0.000 HD
BRANCH  20  23
ATOM     23  C   UNL     1      -0.266  -2.490   0.719  0.00  0.00    +0.000 A 
ATOM     24  C   UNL     1      -0.505  -3.843   0.512  0.00  0.00    +0.000 A 
ATOM     25  S   UNL     1      -1.759  -4.470   1.482  0.00  0.00    +0.000 S 
ATOM     26  C   UNL     1      -2.059  -2.945   2.177  0.00  0.00    +0.000 A 
ATOM     27  N   UNL     1      -3.056  -2.775   3.086  0.00  0.00    +0.000 NA
ATOM     28  C   UNL     1      -3.195  -1.561   3.504  0.00  0.00    +0.000 A 
ATOM     29  N   UNL     1      -2.418  -0.505   3.105  0.00  0.00    +0.000 N 
ATOM     30  C   UNL     1      -1.372  -0.639   2.224  0.00  0.00    +0.000 A 
ATOM     31  O   UNL     1      -0.647   0.311   1.942  0.00  0.00    +0.000 OA
ATOM     32  C   UNL     1      -1.193  -1.979   1.698  0.00  0.00    +0.000 A 
ATOM     33  H   UNL     1      -2.569   0.419   3.485  0.00  0.00    +0.000 HD
ENDBRANCH  20  23
ENDBRANCH   2  19
TORSDOF 6
