REMARK  Name = 
REMARK  7 active torsions:
REMARK  status: ('A' for Active; 'I' for Inactive)
REMARK    1  A    between atoms: C_1  and  C_2
REMARK    2  A    between atoms: C_2  and  C_3
REMARK    3  A    between atoms: N_7  and  C_8
REMARK    4  A    between atoms: C_8  and  C_9
REMARK    5  A    between atoms: C_8  and  C_10
REMARK    6  A    between atoms: C_13  and  C_14
REMARK    7  A    between atoms: N_16  and  C_17
REMARK                            x       y       z     vdW  Elec       q    Type
REMARK                         _______ _______ _______ _____ _____    ______ ____
ROOT
ATOM      1  C   UNL     1       3.527  -5.238   4.006  0.00  0.00    +0.000 C 
ATOM      2  C   UNL     1       3.956  -3.767   4.080  0.00  0.00    +0.000 C 
ENDROOT
BRANCH   1   7
ATOM      3  C   UNL     1       2.188  -5.452  -0.807  0.00  0.00    +0.000 A 
ATOM      4  C   UNL     1       3.376  -6.162  -0.752  0.00  0.00    +0.000 A 
ATOM      5  C   UNL     1       4.036  -6.279   0.472  0.00  0.00    +0.000 A 
ATOM      6  C   UNL     1       3.500  -5.688   1.608  0.00  0.00    +0.000 A 
ATOM      7  N   UNL     1       4.126  -5.913   2.846  0.00  0.00    +0.000 N 
ATOM      8  N   UNL     1       2.340  -5.008   1.510  0.00  0.00    +0.000 NA
ATOM      9  N   UNL     1       1.683  -4.878   0.301  0.00  0.00    +0.000 NA
ATOM     10  H   UNL     1       5.128  -5.755   2.789  0.00  0.00    +0.000 HD
BRANCH   3  12
ATOM     11  C   UNL     1       0.368  -6.497  -2.153  0.00  0.00    +0.000 C 
ATOM     12  C   UNL     1       1.382  -5.365  -2.072  0.00  0.00    +0.000 C 
ENDBRANCH   3  12
ENDBRANCH   1   7
BRANCH   1  13
ATOM     13  C   UNL     1       3.917  -5.985   5.281  0.00  0.00    +0.000 A 
ATOM     14  C   UNL     1       3.197  -7.117   5.670  0.00  0.00    +0.000 A 
ATOM     15  N   UNL     1       3.433  -7.797   6.824  0.00  0.00    +0.000 NA
ATOM     16  C   UNL     1       4.452  -7.297   7.580  0.00  0.00    +0.000 A 
ATOM     17  C   UNL     1       5.201  -6.200   7.187  0.00  0.00    +0.000 A 
ATOM     18  N   UNL     1       4.959  -5.529   6.032  0.00  0.00    +0.000 NA
BRANCH  16  19
ATOM     19  C   UNL     1       4.741  -7.948   8.889  0.00  0.00    +0.000 C 
ATOM     20  O   UNL     1       5.647  -7.532   9.607  0.00  0.00    +0.000 OA
ATOM     21  N   UNL     1       3.925  -9.011   9.214  0.00  0.00    +0.000 N 
ATOM     22  C   UNL     1       4.049  -9.738  10.452  0.00  0.00    +0.000 C 
ATOM     23  H   UNL     1       3.207  -9.262   8.541  0.00  0.00    +0.000 HD
ENDBRANCH  16  19
ENDBRANCH   1  13
TORSDOF 4
