REMARK  Name = 
REMARK  10 active torsions:
REMARK  status: ('A' for Active; 'I' for Inactive)
REMARK    1  A    between atoms: C_1  and  O_2
REMARK    2  A    between atoms: O_2  and  C_3
REMARK    3  A    between atoms: C_10  and  C_11
REMARK    4  A    between atoms: N_13  and  C_14
REMARK    5  A    between atoms: C_14  and  C_15
REMARK    6  A    between atoms: C_18  and  N_19
REMARK    7  A    between atoms: N_19  and  C_20
REMARK    8  A    between atoms: C_20  and  C_21
REMARK    9  A    between atoms: C_20  and  C_22
REMARK   10  A    between atoms: C_26  and  C_27
REMARK                            x       y       z     vdW  Elec       q    Type
REMARK                         _______ _______ _______ _____ _____    ______ ____
ROOT
ATOM      1  C   UNL     1       2.352  -2.584   2.331  0.00  0.00    +0.000 A 
ATOM      2  C   UNL     1       1.485  -3.501   2.917  0.00  0.00    +0.000 A 
ATOM      3  C   UNL     1       0.576  -3.085   3.888  0.00  0.00    +0.000 A 
ATOM      4  C   UNL     1       0.442  -1.750   4.272  0.00  0.00    +0.000 A 
ATOM      5  C   UNL     1       1.293  -0.828   3.655  0.00  0.00    +0.000 A 
ATOM      6  C   UNL     1       2.240  -1.237   2.698  0.00  0.00    +0.000 A 
ENDROOT
BRANCH   4   7
ATOM      7  N   UNL     1      -0.473  -1.358   5.242  0.00  0.00    +0.000 N 
ATOM      8  H   UNL     1      -0.733  -0.378   5.264  0.00  0.00    +0.000 HD
BRANCH   7   9
ATOM      9  C   UNL     1      -0.653  -2.120   6.486  0.00  0.00    +0.000 C 
ATOM     10  C   UNL     1       0.016  -1.349   7.636  0.00  0.00    +0.000 C 
BRANCH   9  11
ATOM     11  C   UNL     1      -2.170  -2.335   6.763  0.00  0.00    +0.000 C 
ATOM     12  C   UNL     1      -2.431  -3.214   8.006  0.00  0.00    +0.000 C 
ATOM     13  C   UNL     1      -2.070  -4.678   7.759  0.00  0.00    +0.000 C 
ATOM     14  N   UNL     1      -2.837  -5.194   6.626  0.00  0.00    +0.000 N 
ATOM     15  C   UNL     1      -3.561  -6.373   6.577  0.00  0.00    +0.000 C 
ATOM     16  C   UNL     1      -3.751  -7.193   7.826  0.00  0.00    +0.000 C 
ATOM     17  O   UNL     1      -4.091  -6.771   5.535  0.00  0.00    +0.000 OA
ATOM     18  C   UNL     1      -2.663  -4.446   5.384  0.00  0.00    +0.000 C 
ATOM     19  C   UNL     1      -2.938  -2.956   5.576  0.00  0.00    +0.000 C 
ENDBRANCH   9  11
ENDBRANCH   7   9
ENDBRANCH   4   7
BRANCH   1  20
ATOM     20  C   UNL     1       3.345  -3.061   1.307  0.00  0.00    +0.000 C 
BRANCH  20  23
ATOM     21  C   UNL     1       3.451  -3.492  -1.104  0.00  0.00    +0.000 C 
ATOM     22  O   UNL     1       4.569  -3.999  -1.000  0.00  0.00    +0.000 OA
ATOM     23  N   UNL     1       2.784  -3.010  -0.018  0.00  0.00    +0.000 N 
ATOM     24  H   UNL     1       1.860  -2.611  -0.120  0.00  0.00    +0.000 HD
BRANCH  21  32
ATOM     25  C   UNL     1       0.325  -2.435  -2.083  0.00  0.00    +0.000 A 
ATOM     26  N   UNL     1      -0.779  -2.017  -2.731  0.00  0.00    +0.000 NA
ATOM     27  C   UNL     1      -0.780  -2.075  -4.065  0.00  0.00    +0.000 A 
ATOM     28  N   UNL     1       0.199  -2.514  -4.851  0.00  0.00    +0.000 NA
ATOM     29  C   UNL     1       1.285  -2.912  -4.163  0.00  0.00    +0.000 A 
ATOM     30  S   UNL     1       2.634  -3.511  -5.004  0.00  0.00    +0.000 S 
ATOM     31  C   UNL     1       3.491  -3.748  -3.554  0.00  0.00    +0.000 A 
ATOM     32  C   UNL     1       2.789  -3.366  -2.417  0.00  0.00    +0.000 A 
ATOM     33  C   UNL     1       1.456  -2.895  -2.784  0.00  0.00    +0.000 A 
BRANCH  25  35
ATOM     34  C   UNL     1      -0.963  -2.388  -0.129  0.00  0.00    +0.000 C 
ATOM     35  O   UNL     1       0.339  -2.360  -0.707  0.00  0.00    +0.000 OA
ENDBRANCH  25  35
ENDBRANCH  21  32
ENDBRANCH  20  23
ENDBRANCH   1  20
TORSDOF 7
