REMARK  Name = 
REMARK  8 active torsions:
REMARK  status: ('A' for Active; 'I' for Inactive)
REMARK    1  A    between atoms: C_2  and  C_3
REMARK    2  A    between atoms: C_3  and  N_4
REMARK    3  A    between atoms: C_3  and  C_26
REMARK    4  A    between atoms: N_4  and  C_5
REMARK    5  A    between atoms: C_5  and  C_6
REMARK    6  A    between atoms: C_9  and  C_10
REMARK    7  A    between atoms: C_10  and  N_11
REMARK    8  A    between atoms: C_12  and  C_14
REMARK                            x       y       z     vdW  Elec       q    Type
REMARK                         _______ _______ _______ _____ _____    ______ ____
ROOT
ATOM      1  C   UNL     1       0.279   0.481  -1.376  0.00  0.00    +0.000 A 
ATOM      2  C   UNL     1      -0.380  -0.650  -0.896  0.00  0.00    +0.000 A 
ATOM      3  C   UNL     1      -1.774  -0.698  -0.948  0.00  0.00    +0.000 A 
ATOM      4  C   UNL     1      -2.487   0.380  -1.478  0.00  0.00    +0.000 A 
ATOM      5  C   UNL     1      -1.744   1.477  -1.903  0.00  0.00    +0.000 A 
ATOM      6  N   UNL     1      -0.391   1.548  -1.875  0.00  0.00    +0.000 NA
ENDROOT
BRANCH   1   7
ATOM      7  C   UNL     1       1.798   0.543  -1.388  0.00  0.00    +0.000 C 
BRANCH   7   8
ATOM      8  N   UNL     1       2.380  -0.518  -2.226  0.00  0.00    +0.000 NA
ATOM      9  H   UNL     1       2.005  -0.399  -3.170  0.00  0.00    +0.000 HD
BRANCH   8  10
ATOM     10  C   UNL     1       3.856  -0.445  -2.318  0.00  0.00    +0.000 C 
BRANCH  10  11
ATOM     11  C   UNL     1       4.358  -1.572  -3.221  0.00  0.00    +0.000 A 
ATOM     12  C   UNL     1       4.048  -2.920  -2.954  0.00  0.00    +0.000 A 
ATOM     13  C   UNL     1       4.538  -3.944  -3.770  0.00  0.00    +0.000 A 
ATOM     14  C   UNL     1       5.347  -3.639  -4.863  0.00  0.00    +0.000 A 
ATOM     15  C   UNL     1       5.658  -2.310  -5.139  0.00  0.00    +0.000 A 
ATOM     16 CL   UNL     1       6.669  -1.930  -6.480  0.00  0.00    +0.000 Cl
ATOM     17  C   UNL     1       5.167  -1.281  -4.333  0.00  0.00    +0.000 A 
ENDBRANCH  10  11
BRANCH  10  19
ATOM     18  N   UNL     1       5.102  -0.462   0.023  0.00  0.00    +0.000 NA
ATOM     19  C   UNL     1       4.564  -0.479  -1.003  0.00  0.00    +0.000 C 
ENDBRANCH  10  19
ENDBRANCH   8  10
ENDBRANCH   7   8
ENDBRANCH   1   7
BRANCH   4  20
ATOM     20  C   UNL     1      -3.985   0.383  -1.588  0.00  0.00    +0.000 C 
BRANCH  20  21
ATOM     21  N   UNL     1      -4.608   0.922  -0.406  0.00  0.00    +0.000 N 
ATOM     22  C   UNL     1      -5.975   0.991  -0.279  0.00  0.00    +0.000 C 
ATOM     23  O   UNL     1      -6.738   0.590  -1.151  0.00  0.00    +0.000 OA
ATOM     24  H   UNL     1      -4.042   1.530   0.175  0.00  0.00    +0.000 HD
BRANCH  22  25
ATOM     25  C   UNL     1      -6.469   1.511   1.002  0.00  0.00    +0.000 A 
ATOM     26  C   UNL     1      -7.710   1.116   1.482  0.00  0.00    +0.000 A 
ATOM     27  S   UNL     1      -8.094   1.782   3.006  0.00  0.00    +0.000 S 
ATOM     28  C   UNL     1      -6.638   2.660   3.053  0.00  0.00    +0.000 A 
ATOM     29  N   UNL     1      -6.344   3.480   4.100  0.00  0.00    +0.000 NA
ATOM     30  C   UNL     1      -5.220   4.105   3.988  0.00  0.00    +0.000 A 
ATOM     31  N   UNL     1      -4.357   3.979   2.931  0.00  0.00    +0.000 N 
ATOM     32  C   UNL     1      -4.590   3.131   1.875  0.00  0.00    +0.000 A 
ATOM     33  O   UNL     1      -3.765   2.984   0.981  0.00  0.00    +0.000 OA
ATOM     34  C   UNL     1      -5.856   2.426   1.936  0.00  0.00    +0.000 A 
ATOM     35  H   UNL     1      -3.480   4.478   2.915  0.00  0.00    +0.000 HD
ENDBRANCH  22  25
ENDBRANCH  20  21
ENDBRANCH   4  20
TORSDOF 8
