REMARK  Name = 
REMARK  4 active torsions:
REMARK  status: ('A' for Active; 'I' for Inactive)
REMARK    1  A    between atoms: C_2  and  C_4
REMARK    2  A    between atoms: N_8  and  C_9
REMARK    3  A    between atoms: C_9  and  C_10
REMARK    4  A    between atoms: C_14  and  C_15
REMARK                            x       y       z     vdW  Elec       q    Type
REMARK                         _______ _______ _______ _____ _____    ______ ____
ROOT
ATOM      1  C   UNL     1       8.001   0.767   1.740  0.00  0.00    +0.000 A 
ATOM      2  C   UNL     1       7.370   0.547   2.957  0.00  0.00    +0.000 A 
ATOM      3  C   UNL     1       6.502   1.517   3.454  0.00  0.00    +0.000 A 
ATOM      4  C   UNL     1       6.291   2.694   2.745  0.00  0.00    +0.000 A 
ATOM      5  N   UNL     1       5.392   3.659   3.153  0.00  0.00    +0.000 N 
ATOM      6  N   UNL     1       6.901   2.920   1.565  0.00  0.00    +0.000 NA
ATOM      7  C   UNL     1       7.752   1.967   1.090  0.00  0.00    +0.000 A 
ATOM      8  H   UNL     1       5.458   4.464   2.540  0.00  0.00    +0.000 HD
ENDROOT
BRANCH   1  10
ATOM      9  N   UNL     1       8.716  -1.533   1.472  0.00  0.00    +0.000 N 
ATOM     10  C   UNL     1       8.922  -0.223   1.147  0.00  0.00    +0.000 C 
ATOM     11  O   UNL     1       9.824   0.117   0.391  0.00  0.00    +0.000 OA
ATOM     12  H   UNL     1       9.307  -2.213   1.009  0.00  0.00    +0.000 HD
ATOM     13  H   UNL     1       7.859  -1.865   1.889  0.00  0.00    +0.000 HD
ENDBRANCH   1  10
BRANCH   5  14
ATOM     14  C   UNL     1       5.137   3.928   4.552  0.00  0.00    +0.000 C 
BRANCH  14  15
ATOM     15  C   UNL     1       6.082   4.932   5.168  0.00  0.00    +0.000 A 
ATOM     16  C   UNL     1       6.159   6.242   4.684  0.00  0.00    +0.000 A 
ATOM     17  C   UNL     1       6.895   7.205   5.367  0.00  0.00    +0.000 A 
ATOM     18  C   UNL     1       7.547   6.876   6.559  0.00  0.00    +0.000 A 
ATOM     19  C   UNL     1       7.501   5.572   7.082  0.00  0.00    +0.000 A 
ATOM     20  C   UNL     1       6.788   4.606   6.341  0.00  0.00    +0.000 A 
BRANCH  19  21
ATOM     21  C   UNL     1       8.109   5.243   8.388  0.00  0.00    +0.000 A 
ATOM     22  N   UNL     1       8.611   6.256   9.125  0.00  0.00    +0.000 NA
ATOM     23  C   UNL     1       9.076   5.941  10.348  0.00  0.00    +0.000 A 
ATOM     24  C   UNL     1       9.063   4.665  10.858  0.00  0.00    +0.000 A 
ATOM     25  C   UNL     1       8.537   3.703  10.034  0.00  0.00    +0.000 A 
ATOM     26  N   UNL     1       8.052   3.960   8.803  0.00  0.00    +0.000 NA
ENDBRANCH  19  21
ENDBRANCH  14  15
ENDBRANCH   5  14
TORSDOF 4
