REMARK  Name = 
REMARK  7 active torsions:
REMARK  status: ('A' for Active; 'I' for Inactive)
REMARK    1  A    between atoms: C_1  and  C_2
REMARK    2  A    between atoms: C_2  and  C_3
REMARK    3  A    between atoms: C_7  and  C_8
REMARK    4  A    between atoms: C_8  and  C_9
REMARK    5  A    between atoms: C_9  and  N_10
REMARK    6  A    between atoms: C_14  and  C_15
REMARK    7  A    between atoms: C_23  and  C_24
REMARK                            x       y       z     vdW  Elec       q    Type
REMARK                         _______ _______ _______ _____ _____    ______ ____
ROOT
ATOM      1  C   UNL     1       2.976   0.120   1.548  0.00  0.00    +0.000 A 
ATOM      2  C   UNL     1       2.731   1.191   2.417  0.00  0.00    +0.000 A 
ATOM      3  C   UNL     1       3.156   1.148   3.748  0.00  0.00    +0.000 A 
ATOM      4  C   UNL     1       3.815   0.023   4.245  0.00  0.00    +0.000 A 
ATOM      5  C   UNL     1       4.069  -1.073   3.415  0.00  0.00    +0.000 A 
ATOM      6  C   UNL     1       3.665  -0.991   2.070  0.00  0.00    +0.000 A 
ENDROOT
BRANCH   1   8
ATOM      7  C   UNL     1       3.666  -0.031  -0.895  0.00  0.00    +0.000 C 
ATOM      8  C   UNL     1       2.491   0.084   0.090  0.00  0.00    +0.000 C 
ATOM      9  C   UNL     1       1.498  -1.054  -0.116  0.00  0.00    +0.000 C 
ATOM     10  C   UNL     1       0.295  -0.575  -0.471  0.00  0.00    +0.000 C 
ATOM     11  C   UNL     1       0.362   0.867  -0.569  0.00  0.00    +0.000 C 
ATOM     12  C   UNL     1       1.619   1.264  -0.296  0.00  0.00    +0.000 C 
BRANCH  11  13
ATOM     13  C   UNL     1      -0.812   1.726  -0.901  0.00  0.00    +0.000 C 
ATOM     14  F   UNL     1      -1.943   1.009  -1.120  0.00  0.00    +0.000 F 
ATOM     15  F   UNL     1      -1.089   2.596   0.106  0.00  0.00    +0.000 F 
ATOM     16  F   UNL     1      -0.594   2.470  -2.013  0.00  0.00    +0.000 F 
ENDBRANCH  11  13
ENDBRANCH   1   8
BRANCH   5  17
ATOM     17  C   UNL     1       4.724  -2.315   4.000  0.00  0.00    +0.000 C 
BRANCH  17  18
ATOM     18  C   UNL     1       4.921  -3.442   2.981  0.00  0.00    +0.000 C 
BRANCH  18  19
ATOM     19  N   UNL     1       5.509  -4.654   3.556  0.00  0.00    +0.000 N 
ATOM     20  C   UNL     1       5.660  -5.653   2.559  0.00  0.00    +0.000 A 
ATOM     21  C   UNL     1       6.186  -6.886   2.920  0.00  0.00    +0.000 A 
ATOM     22  C   UNL     1       6.358  -7.871   1.947  0.00  0.00    +0.000 A 
ATOM     23  C   UNL     1       5.990  -7.576   0.646  0.00  0.00    +0.000 A 
ATOM     24  N   UNL     1       5.485  -6.374   0.299  0.00  0.00    +0.000 NA
ATOM     25  N   UNL     1       5.335  -5.413   1.265  0.00  0.00    +0.000 NA
ATOM     26  H   UNL     1       4.945  -5.036   4.312  0.00  0.00    +0.000 HD
BRANCH  23  27
ATOM     27  C   UNL     1       6.128  -8.580  -0.445  0.00  0.00    +0.000 C 
ATOM     28  N   UNL     1       5.710  -8.182  -1.689  0.00  0.00    +0.000 N 
ATOM     29  O   UNL     1       6.581  -9.697  -0.249  0.00  0.00    +0.000 OA
ATOM     30  H   UNL     1       5.336  -7.253  -1.843  0.00  0.00    +0.000 HD
ATOM     31  H   UNL     1       5.785  -8.828  -2.464  0.00  0.00    +0.000 HD
ENDBRANCH  23  27
ENDBRANCH  18  19
ENDBRANCH  17  18
ENDBRANCH   5  17
TORSDOF 6
