REMARK  Name = 
REMARK  7 active torsions:
REMARK  status: ('A' for Active; 'I' for Inactive)
REMARK    1  A    between atoms: C_1  and  S_2
REMARK    2  A    between atoms: S_2  and  C_3
REMARK    3  A    between atoms: C_6  and  C_7
REMARK    4  A    between atoms: C_7  and  C_8
REMARK    5  A    between atoms: C_7  and  N_9
REMARK    6  A    between atoms: N_9  and  C_10
REMARK    7  A    between atoms: C_13  and  C_14
REMARK                            x       y       z     vdW  Elec       q    Type
REMARK                         _______ _______ _______ _____ _____    ______ ____
ROOT
ATOM      1  N   UNL     1       4.886  -0.043   6.416  0.00  0.00    +0.000 N 
ATOM      2  H   UNL     1       4.798   0.840   5.919  0.00  0.00    +0.000 HD
ENDROOT
BRANCH   1   3
ATOM      3  C   UNL     1       4.796   0.097   7.795  0.00  0.00    +0.000 A 
ATOM      4  C   UNL     1       4.331  -0.896   8.661  0.00  0.00    +0.000 A 
ATOM      5  C   UNL     1       4.312  -0.700  10.050  0.00  0.00    +0.000 A 
ATOM      6  C   UNL     1       4.810   0.480  10.610  0.00  0.00    +0.000 A 
ATOM      7  C   UNL     1       5.318   1.468   9.766  0.00  0.00    +0.000 A 
ATOM      8  C   UNL     1       5.312   1.268   8.377  0.00  0.00    +0.000 A 
BRANCH   6   9
ATOM      9  C   UNL     1       4.753   0.636  12.089  0.00  0.00    +0.000 C 
ATOM     10  N   UNL     1       5.652   1.482  12.675  0.00  0.00    +0.000 N 
ATOM     11  O   UNL     1       3.957   0.005  12.769  0.00  0.00    +0.000 OA
ATOM     12  H   UNL     1       6.474   1.821  12.197  0.00  0.00    +0.000 HD
ATOM     13  H   UNL     1       5.665   1.481  13.687  0.00  0.00    +0.000 HD
ENDBRANCH   6   9
ENDBRANCH   1   3
BRANCH   1  14
ATOM     14  C   UNL     1       4.395  -1.198   5.660  0.00  0.00    +0.000 C 
ATOM     15  C   UNL     1       5.507  -2.246   5.555  0.00  0.00    +0.000 C 
BRANCH  14  19
ATOM     16  C   UNL     1       3.087   0.124   1.731  0.00  0.00    +0.000 A 
ATOM     17  C   UNL     1       2.201  -0.529   2.589  0.00  0.00    +0.000 A 
ATOM     18  C   UNL     1       2.627  -0.957   3.850  0.00  0.00    +0.000 A 
ATOM     19  C   UNL     1       3.950  -0.746   4.273  0.00  0.00    +0.000 A 
ATOM     20  C   UNL     1       4.841  -0.116   3.386  0.00  0.00    +0.000 A 
ATOM     21  C   UNL     1       4.412   0.314   2.127  0.00  0.00    +0.000 A 
BRANCH  16  23
ATOM     22  C   UNL     1       2.026   2.389   0.665  0.00  0.00    +0.000 C 
ATOM     23  S   UNL     1       2.533   0.726   0.150  0.00  0.00    +0.000 S 
ENDBRANCH  16  23
ENDBRANCH  14  19
ENDBRANCH   1  14
TORSDOF 5
