REMARK  Name = 
REMARK  5 active torsions:
REMARK  status: ('A' for Active; 'I' for Inactive)
REMARK    1  A    between atoms: C_2  and  C_4
REMARK    2  A    between atoms: C_7  and  O_8
REMARK    3  A    between atoms: O_8  and  C_9
REMARK    4  A    between atoms: C_9  and  C_10
REMARK    5  A    between atoms: C_15  and  C_16
REMARK                            x       y       z     vdW  Elec       q    Type
REMARK                         _______ _______ _______ _____ _____    ______ ____
ROOT
ATOM      1  C   UNL     1       5.041   3.811   4.569  0.00  0.00    +0.000 C 
ENDROOT
BRANCH   1   2
ATOM      2  C   UNL     1       5.997   4.757   5.261  0.00  0.00    +0.000 A 
ATOM      3  C   UNL     1       5.756   6.134   5.218  0.00  0.00    +0.000 A 
ATOM      4  C   UNL     1       6.600   7.002   5.894  0.00  0.00    +0.000 A 
ATOM      5  F   UNL     1       6.361   8.319   5.852  0.00  0.00    +0.000 F 
ATOM      6  C   UNL     1       7.689   6.529   6.620  0.00  0.00    +0.000 A 
ATOM      7  C   UNL     1       7.958   5.153   6.703  0.00  0.00    +0.000 A 
ATOM      8  C   UNL     1       7.081   4.284   6.021  0.00  0.00    +0.000 A 
BRANCH   7   9
ATOM      9  C   UNL     1       9.113   4.632   7.471  0.00  0.00    +0.000 A 
ATOM     10  C   UNL     1       9.584   5.278   8.623  0.00  0.00    +0.000 A 
ATOM     11  C   UNL     1      10.677   4.758   9.301  0.00  0.00    +0.000 A 
ATOM     12  N   UNL     1      11.328   3.639   8.930  0.00  0.00    +0.000 NA
ATOM     13  C   UNL     1      10.869   3.018   7.828  0.00  0.00    +0.000 A 
ATOM     14  C   UNL     1       9.791   3.469   7.078  0.00  0.00    +0.000 A 
ENDBRANCH   7   9
ENDBRANCH   1   2
BRANCH   1  15
ATOM     15  O   UNL     1       5.707   2.614   4.150  0.00  0.00    +0.000 OA
BRANCH  15  19
ATOM     16  C   UNL     1       3.207   0.043   2.125  0.00  0.00    +0.000 A 
ATOM     17  C   UNL     1       4.545  -0.307   2.322  0.00  0.00    +0.000 A 
ATOM     18  C   UNL     1       5.383   0.567   3.018  0.00  0.00    +0.000 A 
ATOM     19  C   UNL     1       4.850   1.756   3.493  0.00  0.00    +0.000 A 
ATOM     20  N   UNL     1       3.558   2.112   3.326  0.00  0.00    +0.000 NA
ATOM     21  C   UNL     1       2.766   1.255   2.638  0.00  0.00    +0.000 A 
BRANCH  16  23
ATOM     22  N   UNL     1       2.485  -2.131   1.315  0.00  0.00    +0.000 N 
ATOM     23  C   UNL     1       2.252  -0.785   1.363  0.00  0.00    +0.000 C 
ATOM     24  O   UNL     1       1.276  -0.291   0.818  0.00  0.00    +0.000 OA
ATOM     25  H   UNL     1       1.778  -2.693   0.857  0.00  0.00    +0.000 HD
ATOM     26  H   UNL     1       3.126  -2.601   1.938  0.00  0.00    +0.000 HD
ENDBRANCH  16  23
ENDBRANCH  15  19
ENDBRANCH   1  15
TORSDOF 5
