REMARK  Name = 
REMARK  5 active torsions:
REMARK  status: ('A' for Active; 'I' for Inactive)
REMARK    1  A    between atoms: C_2  and  C_4
REMARK    2  A    between atoms: C_7  and  O_8
REMARK    3  A    between atoms: O_8  and  C_9
REMARK    4  A    between atoms: C_9  and  C_10
REMARK    5  A    between atoms: C_14  and  C_15
REMARK                            x       y       z     vdW  Elec       q    Type
REMARK                         _______ _______ _______ _____ _____    ______ ____
ROOT
ATOM      1  C   UNL     1       5.110  -4.421  -3.974  0.00  0.00    +0.000 C 
ENDROOT
BRANCH   1   2
ATOM      2  C   UNL     1       6.052  -5.552  -4.327  0.00  0.00    +0.000 A 
ATOM      3  C   UNL     1       7.358  -5.277  -4.748  0.00  0.00    +0.000 A 
ATOM      4  C   UNL     1       8.237  -6.320  -5.026  0.00  0.00    +0.000 A 
ATOM      5  C   UNL     1       7.830  -7.646  -4.854  0.00  0.00    +0.000 A 
ATOM      6  C   UNL     1       6.549  -7.961  -4.368  0.00  0.00    +0.000 A 
ATOM      7  C   UNL     1       5.671  -6.889  -4.131  0.00  0.00    +0.000 A 
BRANCH   6   8
ATOM      8  C   UNL     1       6.161  -9.346  -4.012  0.00  0.00    +0.000 A 
ATOM      9  C   UNL     1       7.099 -10.235  -3.457  0.00  0.00    +0.000 A 
ATOM     10  C   UNL     1       6.725 -11.498  -2.995  0.00  0.00    +0.000 A 
ATOM     11  C   UNL     1       5.398 -11.905  -3.076  0.00  0.00    +0.000 A 
ATOM     12  C   UNL     1       4.452 -11.058  -3.646  0.00  0.00    +0.000 A 
ATOM     13  C   UNL     1       4.833  -9.798  -4.121  0.00  0.00    +0.000 A 
ENDBRANCH   6   8
ENDBRANCH   1   2
BRANCH   1  14
ATOM     14  O   UNL     1       3.770  -4.771  -4.327  0.00  0.00    +0.000 OA
BRANCH  14  18
ATOM     15  C   UNL     1       1.016  -1.897  -3.291  0.00  0.00    +0.000 A 
ATOM     16  C   UNL     1       0.583  -3.091  -3.871  0.00  0.00    +0.000 A 
ATOM     17  C   UNL     1       1.528  -4.057  -4.221  0.00  0.00    +0.000 A 
ATOM     18  C   UNL     1       2.867  -3.792  -3.975  0.00  0.00    +0.000 A 
ATOM     19  N   UNL     1       3.313  -2.643  -3.423  0.00  0.00    +0.000 NA
ATOM     20  C   UNL     1       2.379  -1.716  -3.103  0.00  0.00    +0.000 A 
BRANCH  15  22
ATOM     21  N   UNL     1      -1.174  -1.151  -2.546  0.00  0.00    +0.000 N 
ATOM     22  C   UNL     1       0.105  -0.808  -2.886  0.00  0.00    +0.000 C 
ATOM     23  O   UNL     1       0.489   0.351  -2.813  0.00  0.00    +0.000 OA
ATOM     24  H   UNL     1      -1.744  -0.411  -2.157  0.00  0.00    +0.000 HD
ATOM     25  H   UNL     1      -1.445  -2.103  -2.345  0.00  0.00    +0.000 HD
ENDBRANCH  15  22
ENDBRANCH  14  18
ENDBRANCH   1  14
TORSDOF 5
