REMARK  Name = 
REMARK  3 active torsions:
REMARK  status: ('A' for Active; 'I' for Inactive)
REMARK    1  A    between atoms: C_2  and  C_4
REMARK    2  A    between atoms: N_12  and  C_13
REMARK    3  A    between atoms: C_13  and  C_14
REMARK                            x       y       z     vdW  Elec       q    Type
REMARK                         _______ _______ _______ _____ _____    ______ ____
ROOT
ATOM      1  C   UNL     1       3.240  -0.213   1.213  0.00  0.00    +0.000 A 
ATOM      2  C   UNL     1       2.854  -1.147   2.175  0.00  0.00    +0.000 A 
ATOM      3  N   UNL     1       3.460  -1.300   3.380  0.00  0.00    +0.000 NA
ATOM      4  C   UNL     1       4.501  -0.491   3.619  0.00  0.00    +0.000 A 
ATOM      5  C   UNL     1       4.976   0.432   2.697  0.00  0.00    +0.000 A 
ATOM      6  C   UNL     1       4.353   0.588   1.470  0.00  0.00    +0.000 A 
ATOM      7  C   UNL     1       6.149   1.165   3.256  0.00  0.00    +0.000 C 
ATOM      8  C   UNL     1       6.309   0.507   4.647  0.00  0.00    +0.000 C 
ATOM      9  N   UNL     1       5.198  -0.419   4.811  0.00  0.00    +0.000 N 
ENDROOT
BRANCH   1  11
ATOM     10  N   UNL     1       1.174  -0.351  -0.065  0.00  0.00    +0.000 N 
ATOM     11  C   UNL     1       2.509  -0.059  -0.060  0.00  0.00    +0.000 C 
ATOM     12  O   UNL     1       3.063   0.363  -1.063  0.00  0.00    +0.000 OA
ATOM     13  H   UNL     1       0.672  -0.116  -0.913  0.00  0.00    +0.000 HD
ATOM     14  H   UNL     1       0.630  -0.428   0.784  0.00  0.00    +0.000 HD
ENDBRANCH   1  11
BRANCH   9  15
ATOM     15  C   UNL     1       5.073  -1.389   5.867  0.00  0.00    +0.000 C 
BRANCH  15  16
ATOM     16  C   UNL     1       4.277  -0.831   7.027  0.00  0.00    +0.000 A 
ATOM     17  C   UNL     1       4.832  -0.767   8.315  0.00  0.00    +0.000 A 
ATOM     18  C   UNL     1       4.066  -0.328   9.398  0.00  0.00    +0.000 A 
ATOM     19  C   UNL     1       2.741   0.064   9.206  0.00  0.00    +0.000 A 
ATOM     20  C   UNL     1       2.189   0.024   7.929  0.00  0.00    +0.000 A 
ATOM     21 CL   UNL     1       0.557   0.516   7.689  0.00  0.00    +0.000 Cl
ATOM     22  C   UNL     1       2.945  -0.422   6.847  0.00  0.00    +0.000 A 
ENDBRANCH  15  16
ENDBRANCH   9  15
TORSDOF 3
