REMARK  Name = 
REMARK  3 active torsions:
REMARK  status: ('A' for Active; 'I' for Inactive)
REMARK    1  A    between atoms: C_2  and  C_4
REMARK    2  A    between atoms: N_8  and  C_9
REMARK    3  A    between atoms: C_9  and  C_10
REMARK                            x       y       z     vdW  Elec       q    Type
REMARK                         _______ _______ _______ _____ _____    ______ ____
ROOT
ATOM      1  C   UNL     1       2.843  -0.903  -0.959  0.00  0.00    +0.000 A 
ATOM      2  C   UNL     1       4.226  -0.827  -0.817  0.00  0.00    +0.000 A 
ATOM      3  C   UNL     1       5.028  -1.642  -1.616  0.00  0.00    +0.000 A 
ATOM      4  C   UNL     1       4.445  -2.496  -2.556  0.00  0.00    +0.000 A 
ATOM      5  N   UNL     1       5.330  -3.203  -3.392  0.00  0.00    +0.000 N 
ATOM      6  N   UNL     1       3.107  -2.596  -2.671  0.00  0.00    +0.000 NA
ATOM      7  C   UNL     1       2.337  -1.817  -1.866  0.00  0.00    +0.000 A 
ATOM      8  H   UNL     1       5.901  -3.837  -2.830  0.00  0.00    +0.000 HD
ENDROOT
BRANCH   1  10
ATOM      9  N   UNL     1       2.374   1.160   0.237  0.00  0.00    +0.000 N 
ATOM     10  C   UNL     1       1.913  -0.058  -0.184  0.00  0.00    +0.000 C 
ATOM     11  O   UNL     1       0.762  -0.411   0.039  0.00  0.00    +0.000 OA
ATOM     12  H   UNL     1       1.691   1.774   0.665  0.00  0.00    +0.000 HD
ATOM     13  H   UNL     1       3.205   1.587  -0.148  0.00  0.00    +0.000 HD
ENDBRANCH   1  10
BRANCH   5  14
ATOM     14  C   UNL     1       4.968  -3.808  -4.708  0.00  0.00    +0.000 C 
ATOM     15  C   UNL     1       4.958  -2.802  -5.864  0.00  0.00    +0.000 C 
ATOM     16  C   UNL     1       3.701  -3.518  -5.495  0.00  0.00    +0.000 C 
BRANCH  14  17
ATOM     17  C   UNL     1       5.691  -5.166  -4.968  0.00  0.00    +0.000 A 
ATOM     18  N   UNL     1       6.401  -5.710  -3.945  0.00  0.00    +0.000 NA
ATOM     19  C   UNL     1       7.076  -6.848  -4.199  0.00  0.00    +0.000 A 
ATOM     20  C   UNL     1       7.088  -7.469  -5.423  0.00  0.00    +0.000 A 
ATOM     21  C   UNL     1       6.344  -6.859  -6.399  0.00  0.00    +0.000 A 
ATOM     22  N   UNL     1       5.647  -5.725  -6.202  0.00  0.00    +0.000 NA
ENDBRANCH  14  17
ENDBRANCH   5  14
TORSDOF 3
