REMARK  Name = 
REMARK  7 active torsions:
REMARK  status: ('A' for Active; 'I' for Inactive)
REMARK    1  A    between atoms: C_1  and  C_2
REMARK    2  A    between atoms: C_2  and  N_3
REMARK    3  A    between atoms: C_2  and  C_16
REMARK    4  A    between atoms: C_4  and  C_6
REMARK    5  A    between atoms: C_19  and  C_20
REMARK    6  A    between atoms: C_20  and  N_21
REMARK    7  A    between atoms: C_22  and  C_24
REMARK                            x       y       z     vdW  Elec       q    Type
REMARK                         _______ _______ _______ _____ _____    ______ ____
ROOT
ATOM      1  C   UNL     1       3.833  -0.921  -0.335  0.00  0.00    +0.000 C 
ATOM      2  C   UNL     1       2.579  -0.070  -0.097  0.00  0.00    +0.000 C 
ENDROOT
BRANCH   2   3
ATOM      3  C   UNL     1       2.934   1.192   0.680  0.00  0.00    +0.000 A 
ATOM      4  C   UNL     1       2.759   2.459   0.107  0.00  0.00    +0.000 A 
ATOM      5  C   UNL     1       3.047   3.619   0.836  0.00  0.00    +0.000 A 
ATOM      6  C   UNL     1       3.523   3.538   2.152  0.00  0.00    +0.000 A 
ATOM      7  C   UNL     1       3.698   2.274   2.728  0.00  0.00    +0.000 A 
ATOM      8  C   UNL     1       3.413   1.117   1.999  0.00  0.00    +0.000 A 
BRANCH   6   9
ATOM      9  C   UNL     1       3.811   4.784   2.948  0.00  0.00    +0.000 C 
BRANCH   9  10
ATOM     10  N   UNL     1       2.651   5.217   3.696  0.00  0.00    +0.000 N 
ATOM     11  C   UNL     1       2.729   6.297   4.549  0.00  0.00    +0.000 C 
ATOM     12  O   UNL     1       3.758   6.948   4.698  0.00  0.00    +0.000 OA
ATOM     13  H   UNL     1       1.758   4.796   3.477  0.00  0.00    +0.000 HD
BRANCH  11  14
ATOM     14  C   UNL     1       1.424   6.623   5.265  0.00  0.00    +0.000 C 
ATOM     15  C   UNL     1       1.519   7.847   6.152  0.00  0.00    +0.000 C 
ATOM     16  C   UNL     1       2.051   7.279   7.450  0.00  0.00    +0.000 C 
ATOM     17  O   UNL     1       1.521   5.952   7.558  0.00  0.00    +0.000 OA
ATOM     18  C   UNL     1       1.063   5.534   6.261  0.00  0.00    +0.000 C 
ENDBRANCH  11  14
ENDBRANCH   9  10
ENDBRANCH   6   9
ENDBRANCH   2   3
BRANCH   2  19
ATOM     19  N   UNL     1       1.537  -0.790   0.622  0.00  0.00    +0.000 N 
ATOM     20  C   UNL     1       0.950  -1.936   0.152  0.00  0.00    +0.000 C 
ATOM     21  O   UNL     1       1.292  -2.478  -0.894  0.00  0.00    +0.000 OA
ATOM     22  H   UNL     1       1.017  -0.243   1.303  0.00  0.00    +0.000 HD
BRANCH  20  23
ATOM     23  C   UNL     1      -0.079  -2.535   1.009  0.00  0.00    +0.000 A 
ATOM     24  C   UNL     1      -0.283  -3.908   0.978  0.00  0.00    +0.000 A 
ATOM     25  S   UNL     1      -1.505  -4.441   2.040  0.00  0.00    +0.000 S 
ATOM     26  C   UNL     1      -1.833  -2.851   2.547  0.00  0.00    +0.000 A 
ATOM     27  N   UNL     1      -2.823  -2.594   3.445  0.00  0.00    +0.000 NA
ATOM     28  C   UNL     1      -2.985  -1.342   3.717  0.00  0.00    +0.000 A 
ATOM     29  N   UNL     1      -2.236  -0.324   3.182  0.00  0.00    +0.000 N 
ATOM     30  C   UNL     1      -1.201  -0.539   2.306  0.00  0.00    +0.000 A 
ATOM     31  O   UNL     1      -0.502   0.383   1.900  0.00  0.00    +0.000 OA
ATOM     32  C   UNL     1      -0.999  -1.929   1.942  0.00  0.00    +0.000 A 
ATOM     33  H   UNL     1      -2.405   0.633   3.451  0.00  0.00    +0.000 HD
ENDBRANCH  20  23
ENDBRANCH   2  19
TORSDOF 6
