REMARK  Name = 
REMARK  6 active torsions:
REMARK  status: ('A' for Active; 'I' for Inactive)
REMARK    1  A    between atoms: C_2  and  C_19
REMARK    2  A    between atoms: N_3  and  C_4
REMARK    3  A    between atoms: C_4  and  C_5
REMARK    4  A    between atoms: C_8  and  C_9
REMARK    5  A    between atoms: C_9  and  O_10
REMARK    6  A    between atoms: O_10  and  C_11
REMARK                            x       y       z     vdW  Elec       q    Type
REMARK                         _______ _______ _______ _____ _____    ______ ____
ROOT
ATOM      1  O   UNL     1       3.477   0.825   1.225  0.00  0.00    +0.000 OA
ATOM      2  C   UNL     1       3.526  -0.130   0.455  0.00  0.00    +0.000 C 
ATOM      3  N   UNL     1       2.948  -1.337   0.747  0.00  0.00    +0.000 N 
ATOM      4  H   UNL     1       3.132  -2.141   0.156  0.00  0.00    +0.000 HD
ENDROOT
BRANCH   2   5
ATOM      5  C   UNL     1       4.176  -0.013  -0.857  0.00  0.00    +0.000 A 
ATOM      6  C   UNL     1       4.372   1.244  -1.415  0.00  0.00    +0.000 A 
ATOM      7  S   UNL     1       5.163   1.210  -2.924  0.00  0.00    +0.000 S 
ATOM      8  C   UNL     1       5.305  -0.484  -2.871  0.00  0.00    +0.000 A 
ATOM      9  N   UNL     1       5.946  -1.161  -3.861  0.00  0.00    +0.000 NA
ATOM     10  C   UNL     1       6.018  -2.437  -3.676  0.00  0.00    +0.000 A 
ATOM     11  N   UNL     1       5.488  -3.098  -2.601  0.00  0.00    +0.000 N 
ATOM     12  C   UNL     1       4.760  -2.467  -1.618  0.00  0.00    +0.000 A 
ATOM     13  O   UNL     1       4.174  -3.108  -0.751  0.00  0.00    +0.000 OA
ATOM     14  C   UNL     1       4.714  -1.022  -1.741  0.00  0.00    +0.000 A 
ATOM     15  H   UNL     1       5.540  -4.105  -2.537  0.00  0.00    +0.000 HD
ENDBRANCH   2   5
BRANCH   3  16
ATOM     16  C   UNL     1       2.303  -1.602   2.009  0.00  0.00    +0.000 C 
BRANCH  16  17
ATOM     17  C   UNL     1       3.218  -2.322   2.965  0.00  0.00    +0.000 A 
ATOM     18  C   UNL     1       4.090  -1.599   3.789  0.00  0.00    +0.000 A 
ATOM     19  C   UNL     1       4.911  -2.258   4.708  0.00  0.00    +0.000 A 
ATOM     20  C   UNL     1       4.892  -3.656   4.806  0.00  0.00    +0.000 A 
ATOM     21  C   UNL     1       4.031  -4.380   3.970  0.00  0.00    +0.000 A 
ATOM     22  C   UNL     1       3.211  -3.720   3.050  0.00  0.00    +0.000 A 
BRANCH  20  23
ATOM     23  C   UNL     1       5.772  -4.367   5.804  0.00  0.00    +0.000 C 
BRANCH  23  24
ATOM     24  O   UNL     1       5.072  -4.498   7.040  0.00  0.00    +0.000 OA
BRANCH  24  25
ATOM     25  C   UNL     1       5.751  -5.091   8.067  0.00  0.00    +0.000 A 
ATOM     26  C   UNL     1       7.028  -5.643   8.006  0.00  0.00    +0.000 A 
ATOM     27  C   UNL     1       7.589  -6.214   9.151  0.00  0.00    +0.000 A 
ATOM     28  C   UNL     1       6.851  -6.214  10.322  0.00  0.00    +0.000 A 
ATOM     29  N   UNL     1       5.610  -5.695  10.421  0.00  0.00    +0.000 NA
ATOM     30  C   UNL     1       5.093  -5.148   9.294  0.00  0.00    +0.000 A 
ENDBRANCH  24  25
ENDBRANCH  23  24
ENDBRANCH  20  23
ENDBRANCH  16  17
ENDBRANCH   3  16
TORSDOF 6
