REMARK  Name = 
REMARK  10 active torsions:
REMARK  status: ('A' for Active; 'I' for Inactive)
REMARK    1  A    between atoms: C_1  and  O_2
REMARK    2  A    between atoms: O_2  and  C_3
REMARK    3  A    between atoms: C_10  and  C_11
REMARK    4  A    between atoms: N_13  and  C_14
REMARK    5  A    between atoms: C_14  and  C_15
REMARK    6  A    between atoms: C_18  and  C_19
REMARK    7  A    between atoms: C_19  and  N_20
REMARK    8  A    between atoms: N_20  and  C_21
REMARK    9  A    between atoms: C_21  and  C_22
REMARK   10  A    between atoms: C_21  and  C_23
REMARK                            x       y       z     vdW  Elec       q    Type
REMARK                         _______ _______ _______ _____ _____    ______ ____
ROOT
ATOM      1  C   UNL     1       1.674   2.800   2.133  0.00  0.00    +0.000 A 
ATOM      2  C   UNL     1       0.490   2.153   1.753  0.00  0.00    +0.000 A 
ATOM      3  C   UNL     1      -0.521   2.850   1.079  0.00  0.00    +0.000 A 
ATOM      4  C   UNL     1      -0.375   4.211   0.770  0.00  0.00    +0.000 A 
ATOM      5  C   UNL     1       0.799   4.861   1.173  0.00  0.00    +0.000 A 
ATOM      6  C   UNL     1       1.814   4.163   1.841  0.00  0.00    +0.000 A 
ENDROOT
BRANCH   1   7
ATOM      7  C   UNL     1       2.795   2.035   2.793  0.00  0.00    +0.000 C 
BRANCH   7  10
ATOM      8  C   UNL     1       4.762   0.694   2.189  0.00  0.00    +0.000 C 
ATOM      9  O   UNL     1       4.989   0.464   3.376  0.00  0.00    +0.000 OA
ATOM     10  N   UNL     1       3.700   1.473   1.815  0.00  0.00    +0.000 N 
ATOM     11  H   UNL     1       3.536   1.684   0.839  0.00  0.00    +0.000 HD
BRANCH   8  19
ATOM     12  C   UNL     1       4.687   0.813  -1.265  0.00  0.00    +0.000 A 
ATOM     13  N   UNL     1       4.888   0.664  -2.592  0.00  0.00    +0.000 NA
ATOM     14  C   UNL     1       5.935  -0.058  -2.997  0.00  0.00    +0.000 A 
ATOM     15  N   UNL     1       6.830  -0.667  -2.227  0.00  0.00    +0.000 NA
ATOM     16  C   UNL     1       6.592  -0.503  -0.914  0.00  0.00    +0.000 A 
ATOM     17  S   UNL     1       7.640  -1.216   0.212  0.00  0.00    +0.000 S 
ATOM     18  C   UNL     1       6.734  -0.608   1.512  0.00  0.00    +0.000 A 
ATOM     19  C   UNL     1       5.624   0.141   1.129  0.00  0.00    +0.000 A 
ATOM     20  C   UNL     1       5.549   0.211  -0.330  0.00  0.00    +0.000 A 
BRANCH  12  22
ATOM     21  C   UNL     1       2.869   2.134  -1.933  0.00  0.00    +0.000 C 
ATOM     22  O   UNL     1       3.621   1.587  -0.850  0.00  0.00    +0.000 OA
ENDBRANCH  12  22
ENDBRANCH   8  19
ENDBRANCH   7  10
ENDBRANCH   1   7
BRANCH   4  23
ATOM     23  C   UNL     1      -1.423   4.941  -0.050  0.00  0.00    +0.000 C 
BRANCH  23  24
ATOM     24  N   UNL     1      -2.738   4.923   0.590  0.00  0.00    +0.000 NA
ATOM     25  H   UNL     1      -2.643   5.365   1.507  0.00  0.00    +0.000 HD
BRANCH  24  26
ATOM     26  C   UNL     1      -3.765   5.692  -0.152  0.00  0.00    +0.000 C 
ATOM     27  C   UNL     1      -4.041   5.150  -1.562  0.00  0.00    +0.000 C 
BRANCH  26  28
ATOM     28  C   UNL     1      -5.084   5.731   0.627  0.00  0.00    +0.000 A 
ATOM     29  C   UNL     1      -5.735   4.548   0.986  0.00  0.00    +0.000 A 
ATOM     30  C   UNL     1      -6.947   4.617   1.667  0.00  0.00    +0.000 A 
ATOM     31  C   UNL     1      -7.481   5.860   1.977  0.00  0.00    +0.000 A 
ATOM     32  C   UNL     1      -6.773   6.988   1.590  0.00  0.00    +0.000 A 
ATOM     33  N   UNL     1      -5.597   6.953   0.927  0.00  0.00    +0.000 NA
ENDBRANCH  26  28
ENDBRANCH  24  26
ENDBRANCH  23  24
ENDBRANCH   4  23
TORSDOF 8
