REMARK  Name = 
REMARK  6 active torsions:
REMARK  status: ('A' for Active; 'I' for Inactive)
REMARK    1  A    between atoms: C_2  and  C_3
REMARK    2  A    between atoms: C_6  and  O_7
REMARK    3  A    between atoms: O_7  and  C_8
REMARK    4  A    between atoms: C_8  and  C_9
REMARK    5  A    between atoms: C_13  and  C_14
REMARK    6  A    between atoms: C_14  and  N_15
REMARK                            x       y       z     vdW  Elec       q    Type
REMARK                         _______ _______ _______ _____ _____    ______ ____
ROOT
ATOM      1  C   UNL     1       4.455  -1.179   0.210  0.00  0.00    +0.000 C 
ENDROOT
BRANCH   1   2
ATOM      2  C   UNL     1       5.924  -0.893   0.345  0.00  0.00    +0.000 A 
ATOM      3  C   UNL     1       6.629  -1.322   1.476  0.00  0.00    +0.000 A 
ATOM      4  C   UNL     1       7.997  -1.088   1.582  0.00  0.00    +0.000 A 
ATOM      5  C   UNL     1       8.677  -0.442   0.548  0.00  0.00    +0.000 A 
ATOM      6  C   UNL     1       7.995  -0.023  -0.603  0.00  0.00    +0.000 A 
ATOM      7  C   UNL     1       6.611  -0.236  -0.682  0.00  0.00    +0.000 A 
BRANCH   6   8
ATOM      8  C   UNL     1       8.716   0.654  -1.739  0.00  0.00    +0.000 C 
BRANCH   8   9
ATOM      9  N   UNL     1       8.567  -0.086  -2.989  0.00  0.00    +0.000 NA
ATOM     10  H   UNL     1       9.036  -0.985  -2.895  0.00  0.00    +0.000 HD
ATOM     11  H   UNL     1       9.044   0.416  -3.734  0.00  0.00    +0.000 HD
ENDBRANCH   8   9
ENDBRANCH   6   8
ENDBRANCH   1   2
BRANCH   1  12
ATOM     12  O   UNL     1       3.705   0.042   0.193  0.00  0.00    +0.000 OA
BRANCH  12  16
ATOM     13  C   UNL     1      -0.283  -0.308   1.361  0.00  0.00    +0.000 A 
ATOM     14  C   UNL     1       0.390   0.918   1.437  0.00  0.00    +0.000 A 
ATOM     15  C   UNL     1       1.719   1.015   1.010  0.00  0.00    +0.000 A 
ATOM     16  C   UNL     1       2.382  -0.113   0.521  0.00  0.00    +0.000 A 
ATOM     17  C   UNL     1       1.691  -1.322   0.407  0.00  0.00    +0.000 A 
ATOM     18  C   UNL     1       0.372  -1.425   0.842  0.00  0.00    +0.000 A 
BRANCH  13  20
ATOM     19  N   UNL     1      -2.733  -0.554   2.171  0.00  0.00    +0.000 NA
ATOM     20  C   UNL     1      -1.634  -0.432   1.809  0.00  0.00    +0.000 C 
ENDBRANCH  13  20
ENDBRANCH  12  16
ENDBRANCH   1  12
TORSDOF 6
