REMARK  Name = 
REMARK  11 active torsions:
REMARK  status: ('A' for Active; 'I' for Inactive)
REMARK    1  A    between atoms: C_1  and  C_2
REMARK    2  A    between atoms: C_4  and  C_5
REMARK    3  A    between atoms: C_5  and  O_6
REMARK    4  A    between atoms: O_6  and  C_7
REMARK    5  A    between atoms: C_12  and  C_13
REMARK    6  A    between atoms: C_13  and  C_14
REMARK    7  A    between atoms: C_13  and  C_15
REMARK    8  A    between atoms: C_13  and  C_16
REMARK    9  A    between atoms: C_16  and  N_17
REMARK   10  A    between atoms: N_17  and  C_18
REMARK   11  A    between atoms: C_21  and  C_22
REMARK                            x       y       z     vdW  Elec       q    Type
REMARK                         _______ _______ _______ _____ _____    ______ ____
ROOT
ATOM      1  C   UNL     1       7.832  -3.958   3.559  0.00  0.00    +0.000 C 
ATOM      2  C   UNL     1       7.527  -2.821   4.569  0.00  0.00    +0.000 C 
ATOM      3  C   UNL     1       6.848  -5.129   3.770  0.00  0.00    +0.000 C 
ENDROOT
BRANCH   1   9
ATOM      4  C   UNL     1       8.939  -2.942  -0.005  0.00  0.00    +0.000 A 
ATOM      5  C   UNL     1       7.762  -2.523  -0.601  0.00  0.00    +0.000 A 
ATOM      6  C   UNL     1       6.594  -2.475   0.153  0.00  0.00    +0.000 A 
ATOM      7  C   UNL     1       6.580  -2.900   1.494  0.00  0.00    +0.000 A 
ATOM      8 CL   UNL     1       5.053  -2.720   2.287  0.00  0.00    +0.000 Cl
ATOM      9  C   UNL     1       7.748  -3.401   2.114  0.00  0.00    +0.000 A 
ATOM     10  C   UNL     1       8.918  -3.365   1.327  0.00  0.00    +0.000 A 
BRANCH   4  11
ATOM     11  O   UNL     1      10.060  -2.906  -0.789  0.00  0.00    +0.000 OA
BRANCH  11  12
ATOM     12  C   UNL     1      11.303  -3.032  -0.095  0.00  0.00    +0.000 C 
BRANCH  12  16
ATOM     13  C   UNL     1      14.981  -2.413  -0.982  0.00  0.00    +0.000 C 
ATOM     14  C   UNL     1      13.755  -3.255  -0.909  0.00  0.00    +0.000 C 
ATOM     15  C   UNL     1      12.885  -3.473  -2.123  0.00  0.00    +0.000 C 
ATOM     16  C   UNL     1      12.402  -2.594  -0.999  0.00  0.00    +0.000 C 
ENDBRANCH  12  16
ENDBRANCH  11  12
ENDBRANCH   4  11
ENDBRANCH   1   9
BRANCH   1  17
ATOM     17  C   UNL     1       9.252  -4.480   4.009  0.00  0.00    +0.000 C 
BRANCH  17  18
ATOM     18  N   UNL     1       9.761  -5.664   3.287  0.00  0.00    +0.000 N 
ATOM     19  H   UNL     1       9.565  -5.675   2.289  0.00  0.00    +0.000 HD
BRANCH  18  20
ATOM     20  C   UNL     1      11.087  -6.027   3.596  0.00  0.00    +0.000 A 
ATOM     21  C   UNL     1      11.929  -6.570   2.620  0.00  0.00    +0.000 A 
ATOM     22  C   UNL     1      13.234  -6.956   2.949  0.00  0.00    +0.000 A 
ATOM     23  C   UNL     1      13.655  -6.804   4.265  0.00  0.00    +0.000 A 
ATOM     24  N   UNL     1      12.868  -6.310   5.255  0.00  0.00    +0.000 NA
ATOM     25  C   UNL     1      11.611  -5.958   4.896  0.00  0.00    +0.000 A 
BRANCH  23  26
ATOM     26  C   UNL     1      15.039  -7.202   4.679  0.00  0.00    +0.000 C 
ATOM     27  N   UNL     1      15.319  -7.014   6.008  0.00  0.00    +0.000 N 
ATOM     28  O   UNL     1      15.861  -7.663   3.898  0.00  0.00    +0.000 OA
ATOM     29  H   UNL     1      14.590  -6.659   6.619  0.00  0.00    +0.000 HD
ATOM     30  H   UNL     1      16.215  -7.287   6.382  0.00  0.00    +0.000 HD
ENDBRANCH  23  26
ENDBRANCH  18  20
ENDBRANCH  17  18
ENDBRANCH   1  17
TORSDOF 8
