REMARK  Name = 
REMARK  9 active torsions:
REMARK  status: ('A' for Active; 'I' for Inactive)
REMARK    1  A    between atoms: C_1  and  O_2
REMARK    2  A    between atoms: O_2  and  C_3
REMARK    3  A    between atoms: N_10  and  C_11
REMARK    4  A    between atoms: C_11  and  C_12
REMARK    5  A    between atoms: C_15  and  C_16
REMARK    6  A    between atoms: C_16  and  C_17
REMARK    7  A    between atoms: C_17  and  N_18
REMARK    8  A    between atoms: N_18  and  C_19
REMARK    9  A    between atoms: N_18  and  C_20
REMARK                            x       y       z     vdW  Elec       q    Type
REMARK                         _______ _______ _______ _____ _____    ______ ____
ROOT
ATOM      1  C   UNL     1       5.025   5.758  -2.414  0.00  0.00    +0.000 C 
ENDROOT
BRANCH   1   9
ATOM      2  C   UNL     1       7.577   9.131  -5.516  0.00  0.00    +0.000 A 
ATOM      3  C   UNL     1       6.218   8.827  -5.536  0.00  0.00    +0.000 A 
ATOM      4  C   UNL     1       5.649   7.988  -4.569  0.00  0.00    +0.000 A 
ATOM      5  C   UNL     1       6.485   7.455  -3.577  0.00  0.00    +0.000 A 
ATOM      6  C   UNL     1       7.849   7.755  -3.529  0.00  0.00    +0.000 A 
ATOM      7  C   UNL     1       8.393   7.075  -2.406  0.00  0.00    +0.000 A 
ATOM      8  C   UNL     1       7.378   6.359  -1.816  0.00  0.00    +0.000 A 
ATOM      9  N   UNL     1       6.229   6.569  -2.544  0.00  0.00    +0.000 N 
ATOM     10  C   UNL     1       8.401   8.588  -4.523  0.00  0.00    +0.000 A 
BRANCH   2  12
ATOM     11  C   UNL     1       7.429  10.916  -7.057  0.00  0.00    +0.000 C 
ATOM     12  O   UNL     1       8.223   9.910  -6.439  0.00  0.00    +0.000 OA
ENDBRANCH   2  12
ENDBRANCH   1   9
BRANCH   1  13
ATOM     13  C   UNL     1       4.009   6.295  -1.441  0.00  0.00    +0.000 A 
ATOM     14  C   UNL     1       4.085   5.974  -0.086  0.00  0.00    +0.000 A 
ATOM     15  C   UNL     1       2.993   6.241   0.741  0.00  0.00    +0.000 A 
ATOM     16  C   UNL     1       1.850   6.838   0.203  0.00  0.00    +0.000 A 
ATOM     17  C   UNL     1       1.906   7.219  -1.133  0.00  0.00    +0.000 A 
ATOM     18  N   UNL     1       2.940   6.948  -1.962  0.00  0.00    +0.000 NA
BRANCH  16  19
ATOM     19  C   UNL     1       0.598   7.031   1.023  0.00  0.00    +0.000 C 
BRANCH  19  20
ATOM     20  C   UNL     1      -0.610   6.289   0.406  0.00  0.00    +0.000 C 
BRANCH  20  21
ATOM     21  N   UNL     1      -1.848   6.339   1.208  0.00  0.00    +0.000 NA
ATOM     22  C   UNL     1      -2.325   7.709   1.406  0.00  0.00    +0.000 C 
ATOM     23  C   UNL     1      -2.893   5.548   0.546  0.00  0.00    +0.000 C 
ENDBRANCH  20  21
ENDBRANCH  19  20
ENDBRANCH  16  19
ENDBRANCH   1  13
TORSDOF 6
