REMARK  Name = 
REMARK  3 active torsions:
REMARK  status: ('A' for Active; 'I' for Inactive)
REMARK    1  A    between atoms: C_2  and  C_4
REMARK    2  A    between atoms: N_8  and  C_9
REMARK    3  A    between atoms: C_9  and  C_10
REMARK                            x       y       z     vdW  Elec       q    Type
REMARK                         _______ _______ _______ _____ _____    ______ ____
ROOT
ATOM      1  C   UNL     1       3.256  -1.321   0.097  0.00  0.00    +0.000 A 
ATOM      2  C   UNL     1       3.701  -1.296   1.414  0.00  0.00    +0.000 A 
ATOM      3  C   UNL     1       4.456  -2.368   1.892  0.00  0.00    +0.000 A 
ATOM      4  C   UNL     1       4.719  -3.464   1.069  0.00  0.00    +0.000 A 
ATOM      5  N   UNL     1       5.366  -4.556   1.650  0.00  0.00    +0.000 N 
ATOM      6  N   UNL     1       4.287  -3.501  -0.208  0.00  0.00    +0.000 NA
ATOM      7  C   UNL     1       3.568  -2.436  -0.666  0.00  0.00    +0.000 A 
ATOM      8  H   UNL     1       6.289  -4.309   1.989  0.00  0.00    +0.000 HD
ENDROOT
BRANCH   1  10
ATOM      9  N   UNL     1       2.616   1.022   0.017  0.00  0.00    +0.000 N 
ATOM     10  C   UNL     1       2.452  -0.237  -0.498  0.00  0.00    +0.000 C 
ATOM     11  O   UNL     1       1.695  -0.437  -1.440  0.00  0.00    +0.000 OA
ATOM     12  H   UNL     1       2.140   1.772  -0.468  0.00  0.00    +0.000 HD
ATOM     13  H   UNL     1       3.393   1.270   0.616  0.00  0.00    +0.000 HD
ENDBRANCH   1  10
BRANCH   5  14
ATOM     14  C   UNL     1       5.322  -5.812   0.923  0.00  0.00    +0.000 C 
BRANCH  14  15
ATOM     15  C   UNL     1       5.748  -6.920   1.868  0.00  0.00    +0.000 A 
ATOM     16  C   UNL     1       4.812  -7.536   2.716  0.00  0.00    +0.000 A 
ATOM     17  C   UNL     1       5.205  -8.549   3.599  0.00  0.00    +0.000 A 
ATOM     18  C   UNL     1       6.539  -8.935   3.642  0.00  0.00    +0.000 A 
ATOM     19  F   UNL     1       6.920  -9.905   4.483  0.00  0.00    +0.000 F 
ATOM     20  C   UNL     1       7.485  -8.326   2.825  0.00  0.00    +0.000 A 
ATOM     21  C   UNL     1       7.093  -7.320   1.942  0.00  0.00    +0.000 A 
ENDBRANCH  14  15
ENDBRANCH   5  14
TORSDOF 3
