REMARK  Name = 
REMARK  5 active torsions:
REMARK  status: ('A' for Active; 'I' for Inactive)
REMARK    1  A    between atoms: C_2  and  C_4
REMARK    2  A    between atoms: N_8  and  C_9
REMARK    3  A    between atoms: C_9  and  C_10
REMARK    4  A    between atoms: C_12  and  N_13
REMARK    5  A    between atoms: C_16  and  O_17
REMARK                            x       y       z     vdW  Elec       q    Type
REMARK                         _______ _______ _______ _____ _____    ______ ____
ROOT
ATOM      1  C   UNL     1       5.097  -3.613  -4.834  0.00  0.00    +0.000 C 
ENDROOT
BRANCH   1   6
ATOM      2  C   UNL     1       3.605  -0.435  -1.172  0.00  0.00    +0.000 A 
ATOM      3  C   UNL     1       3.504  -0.295  -2.553  0.00  0.00    +0.000 A 
ATOM      4  C   UNL     1       4.171  -1.206  -3.377  0.00  0.00    +0.000 A 
ATOM      5  C   UNL     1       4.905  -2.249  -2.817  0.00  0.00    +0.000 A 
ATOM      6  N   UNL     1       5.651  -3.141  -3.574  0.00  0.00    +0.000 N 
ATOM      7  N   UNL     1       5.003  -2.393  -1.480  0.00  0.00    +0.000 NA
ATOM      8  C   UNL     1       4.370  -1.484  -0.689  0.00  0.00    +0.000 A 
ATOM      9  H   UNL     1       5.949  -3.890  -2.951  0.00  0.00    +0.000 HD
BRANCH   2  11
ATOM     10  N   UNL     1       1.860   1.174  -0.640  0.00  0.00    +0.000 N 
ATOM     11  C   UNL     1       2.979   0.507  -0.221  0.00  0.00    +0.000 C 
ATOM     12  O   UNL     1       3.424   0.668   0.907  0.00  0.00    +0.000 OA
ATOM     13  H   UNL     1       1.392   1.747   0.053  0.00  0.00    +0.000 HD
ATOM     14  H   UNL     1       1.327   0.895  -1.450  0.00  0.00    +0.000 HD
ENDBRANCH   2  11
ENDBRANCH   1   6
BRANCH   1  15
ATOM     15  C   UNL     1       5.980  -4.666  -5.478  0.00  0.00    +0.000 A 
ATOM     16  C   UNL     1       7.091  -4.285  -6.238  0.00  0.00    +0.000 A 
ATOM     17  C   UNL     1       7.866  -5.242  -6.909  0.00  0.00    +0.000 A 
ATOM     18  C   UNL     1       7.488  -6.573  -6.732  0.00  0.00    +0.000 A 
ATOM     19  C   UNL     1       6.389  -6.881  -5.940  0.00  0.00    +0.000 A 
ATOM     20  N   UNL     1       5.626  -5.962  -5.316  0.00  0.00    +0.000 NA
BRANCH  17  21
ATOM     21  N   UNL     1       8.948  -4.872  -7.693  0.00  0.00    +0.000 N 
ATOM     22  C   UNL     1      10.088  -5.764  -7.919  0.00  0.00    +0.000 C 
ATOM     23  C   UNL     1      10.107  -6.247  -9.366  0.00  0.00    +0.000 C 
ATOM     24  C   UNL     1      10.038  -5.080 -10.350  0.00  0.00    +0.000 C 
ATOM     25  C   UNL     1       8.879  -4.136 -10.034  0.00  0.00    +0.000 C 
ATOM     26  C   UNL     1       8.867  -3.698  -8.569  0.00  0.00    +0.000 C 
BRANCH  24  27
ATOM     27  O   UNL     1      11.275  -4.367 -10.377  0.00  0.00    +0.000 OA
ATOM     28  H   UNL     1      11.436  -3.972  -9.504  0.00  0.00    +0.000 HD
ENDBRANCH  24  27
ENDBRANCH  17  21
ENDBRANCH   1  15
TORSDOF 5
