REMARK  Name = 
REMARK  7 active torsions:
REMARK  status: ('A' for Active; 'I' for Inactive)
REMARK    1  A    between atoms: C_1  and  O_2
REMARK    2  A    between atoms: O_2  and  C_3
REMARK    3  A    between atoms: C_5  and  C_6
REMARK    4  A    between atoms: N_13  and  C_14
REMARK    5  A    between atoms: C_14  and  C_15
REMARK    6  A    between atoms: C_18  and  C_19
REMARK    7  A    between atoms: C_19  and  N_20
REMARK                            x       y       z     vdW  Elec       q    Type
REMARK                         _______ _______ _______ _____ _____    ______ ____
ROOT
ATOM      1  C   UNL     1       3.072  -1.328  -0.623  0.00  0.00    +0.000 A 
ATOM      2  C   UNL     1       2.865  -2.176  -1.727  0.00  0.00    +0.000 A 
ATOM      3  C   UNL     1       3.571  -3.362  -1.911  0.00  0.00    +0.000 A 
ATOM      4  C   UNL     1       4.583  -3.698  -1.009  0.00  0.00    +0.000 A 
ATOM      5  C   UNL     1       4.881  -2.825   0.066  0.00  0.00    +0.000 A 
ATOM      6  C   UNL     1       5.851  -2.895   1.100  0.00  0.00    +0.000 A 
ATOM      7  C   UNL     1       5.703  -1.780   1.885  0.00  0.00    +0.000 A 
ATOM      8  N   UNL     1       4.656  -1.026   1.387  0.00  0.00    +0.000 N 
ATOM      9  C   UNL     1       4.130  -1.646   0.261  0.00  0.00    +0.000 A 
ENDROOT
BRANCH   3  10
ATOM     10  C   UNL     1       3.162  -4.216  -3.063  0.00  0.00    +0.000 C 
ATOM     11  N   UNL     1       3.770  -5.426  -3.240  0.00  0.00    +0.000 N 
ATOM     12  O   UNL     1       2.275  -3.870  -3.834  0.00  0.00    +0.000 OA
ATOM     13  H   UNL     1       4.443  -5.831  -2.612  0.00  0.00    +0.000 HD
ATOM     14  H   UNL     1       3.420  -5.996  -3.999  0.00  0.00    +0.000 HD
ENDBRANCH   3  10
BRANCH   1  16
ATOM     15  C   UNL     1       0.925  -0.390  -0.889  0.00  0.00    +0.000 C 
ATOM     16  O   UNL     1       2.270  -0.231  -0.399  0.00  0.00    +0.000 OA
ENDBRANCH   1  16
BRANCH   8  17
ATOM     17  C   UNL     1       4.283   0.265   1.985  0.00  0.00    +0.000 C 
BRANCH  17  18
ATOM     18  C   UNL     1       3.433   0.086   3.225  0.00  0.00    +0.000 A 
ATOM     19  C   UNL     1       3.937   0.347   4.509  0.00  0.00    +0.000 A 
ATOM     20  C   UNL     1       3.210  -0.025   5.648  0.00  0.00    +0.000 A 
ATOM     21  C   UNL     1       1.970  -0.668   5.525  0.00  0.00    +0.000 A 
ATOM     22  C   UNL     1       1.415  -0.801   4.247  0.00  0.00    +0.000 A 
ATOM     23  C   UNL     1       2.134  -0.420   3.112  0.00  0.00    +0.000 A 
BRANCH  21  24
ATOM     24  C   UNL     1       1.376  -1.389   6.713  0.00  0.00    +0.000 C 
BRANCH  24  25
ATOM     25  N   UNL     1      -0.081  -1.447   6.712  0.00  0.00    +0.000 NA
ATOM     26  H   UNL     1      -0.447  -0.512   6.876  0.00  0.00    +0.000 HD
ATOM     27  H   UNL     1      -0.385  -2.021   7.496  0.00  0.00    +0.000 HD
ENDBRANCH  24  25
ENDBRANCH  21  24
ENDBRANCH  17  18
ENDBRANCH   8  17
TORSDOF 6
