REMARK  Name = 
REMARK  7 active torsions:
REMARK  status: ('A' for Active; 'I' for Inactive)
REMARK    1  A    between atoms: C_2  and  C_4
REMARK    2  A    between atoms: C_4  and  N_5
REMARK    3  A    between atoms: C_4  and  C_18
REMARK    4  A    between atoms: C_6  and  C_8
REMARK    5  A    between atoms: C_21  and  C_22
REMARK    6  A    between atoms: C_22  and  N_23
REMARK    7  A    between atoms: C_24  and  C_26
REMARK                            x       y       z     vdW  Elec       q    Type
REMARK                         _______ _______ _______ _____ _____    ______ ____
ROOT
ATOM      1  C   UNL     1       3.133  -0.403  -1.293  0.00  0.00    +0.000 C 
ENDROOT
BRANCH   1   2
ATOM      2  C   UNL     1       4.627  -0.276  -1.032  0.00  0.00    +0.000 A 
ATOM      3  C   UNL     1       5.215   0.989  -0.898  0.00  0.00    +0.000 A 
ATOM      4  C   UNL     1       6.577   1.116  -0.606  0.00  0.00    +0.000 A 
ATOM      5  C   UNL     1       7.383  -0.019  -0.443  0.00  0.00    +0.000 A 
ATOM      6  C   UNL     1       6.798  -1.283  -0.561  0.00  0.00    +0.000 A 
ATOM      7  C   UNL     1       5.441  -1.410  -0.862  0.00  0.00    +0.000 A 
BRANCH   5   8
ATOM      8  C   UNL     1       8.849   0.115  -0.122  0.00  0.00    +0.000 C 
BRANCH   8   9
ATOM      9  N   UNL     1       9.074   0.182   1.300  0.00  0.00    +0.000 N 
ATOM     10  C   UNL     1      10.345   0.250   1.818  0.00  0.00    +0.000 C 
ATOM     11  O   UNL     1      11.346   0.232   1.112  0.00  0.00    +0.000 OA
ATOM     12  H   UNL     1       8.276   0.251   1.911  0.00  0.00    +0.000 HD
BRANCH  10  13
ATOM     13  C   UNL     1      10.420   0.349   3.261  0.00  0.00    +0.000 A 
ATOM     14  C   UNL     1       9.445   0.369   4.246  0.00  0.00    +0.000 A 
ATOM     15  C   UNL     1      10.085   0.487   5.504  0.00  0.00    +0.000 A 
ATOM     16  C   UNL     1      11.439   0.533   5.269  0.00  0.00    +0.000 A 
ATOM     17  N   UNL     1      11.633   0.445   3.916  0.00  0.00    +0.000 N 
ATOM     18  H   UNL     1      12.528   0.450   3.441  0.00  0.00    +0.000 HD
ENDBRANCH  10  13
ENDBRANCH   8   9
ENDBRANCH   5   8
ENDBRANCH   1   2
BRANCH   1  20
ATOM     19  N   UNL     1       1.676  -0.703  -3.269  0.00  0.00    +0.000 N 
ATOM     20  C   UNL     1       2.809  -1.133  -2.624  0.00  0.00    +0.000 C 
ATOM     21  O   UNL     1       3.432  -2.090  -3.079  0.00  0.00    +0.000 OA
ATOM     22  H   UNL     1       1.380  -1.257  -4.062  0.00  0.00    +0.000 HD
ATOM     23  H   UNL     1       0.955  -0.215  -2.745  0.00  0.00    +0.000 HD
ENDBRANCH   1  20
BRANCH   1  24
ATOM     24  N   UNL     1       2.506  -1.112  -0.186  0.00  0.00    +0.000 N 
ATOM     25  C   UNL     1       1.202  -0.944   0.182  0.00  0.00    +0.000 C 
ATOM     26  O   UNL     1       0.448  -0.196  -0.436  0.00  0.00    +0.000 OA
ATOM     27  H   UNL     1       3.128  -1.647   0.409  0.00  0.00    +0.000 HD
BRANCH  25  28
ATOM     28  C   UNL     1       0.740  -1.766   1.311  0.00  0.00    +0.000 A 
ATOM     29  C   UNL     1      -0.613  -2.030   1.470  0.00  0.00    +0.000 A 
ATOM     30  S   UNL     1      -0.962  -3.061   2.785  0.00  0.00    +0.000 S 
ATOM     31  C   UNL     1       0.678  -3.143   3.229  0.00  0.00    +0.000 A 
ATOM     32  N   UNL     1       1.075  -3.866   4.312  0.00  0.00    +0.000 NA
ATOM     33  C   UNL     1       2.342  -3.816   4.553  0.00  0.00    +0.000 A 
ATOM     34  N   UNL     1       3.250  -3.110   3.809  0.00  0.00    +0.000 N 
ATOM     35  C   UNL     1       2.901  -2.400   2.686  0.00  0.00    +0.000 A 
ATOM     36  O   UNL     1       3.749  -1.836   2.005  0.00  0.00    +0.000 OA
ATOM     37  C   UNL     1       1.483  -2.409   2.376  0.00  0.00    +0.000 A 
ATOM     38  H   UNL     1       4.232  -3.123   4.041  0.00  0.00    +0.000 HD
ENDBRANCH  25  28
ENDBRANCH   1  24
TORSDOF 7
