REMARK  Name = 
REMARK  7 active torsions:
REMARK  status: ('A' for Active; 'I' for Inactive)
REMARK    1  A    between atoms: C_2  and  C_4
REMARK    2  A    between atoms: C_7  and  C_8
REMARK    3  A    between atoms: C_8  and  N_9
REMARK    4  A    between atoms: C_10  and  C_12
REMARK    5  A    between atoms: C_23  and  C_24
REMARK    6  A    between atoms: C_24  and  N_25
REMARK    7  A    between atoms: C_26  and  C_28
REMARK                            x       y       z     vdW  Elec       q    Type
REMARK                         _______ _______ _______ _____ _____    ______ ____
ROOT
ATOM      1  C   UNL     1       3.182   0.004  -1.337  0.00  0.00    +0.000 A 
ATOM      2  C   UNL     1       2.857   0.870  -2.394  0.00  0.00    +0.000 A 
ATOM      3  C   UNL     1       3.576   0.843  -3.588  0.00  0.00    +0.000 A 
ATOM      4  C   UNL     1       4.666  -0.015  -3.735  0.00  0.00    +0.000 A 
ATOM      5  C   UNL     1       4.986  -0.892  -2.688  0.00  0.00    +0.000 A 
ATOM      6  C   UNL     1       4.243  -0.912  -1.490  0.00  0.00    +0.000 A 
ENDROOT
BRANCH   1   8
ATOM      7  N   UNL     1       1.121   0.554  -0.145  0.00  0.00    +0.000 N 
ATOM      8  C   UNL     1       2.420   0.125  -0.057  0.00  0.00    +0.000 C 
ATOM      9  O   UNL     1       2.915  -0.139   1.028  0.00  0.00    +0.000 OA
ATOM     10  H   UNL     1       0.594   0.630   0.714  0.00  0.00    +0.000 HD
ATOM     11  H   UNL     1       0.625   0.664  -1.017  0.00  0.00    +0.000 HD
ENDBRANCH   1   8
BRANCH   4  12
ATOM     12  C   UNL     1       5.470   0.004  -5.005  0.00  0.00    +0.000 C 
BRANCH  12  13
ATOM     13  N   UNL     1       4.979  -0.954  -5.961  0.00  0.00    +0.000 N 
ATOM     14  C   UNL     1       4.120  -0.623  -6.975  0.00  0.00    +0.000 C 
ATOM     15  O   UNL     1       3.679   0.513  -7.122  0.00  0.00    +0.000 OA
ATOM     16  H   UNL     1       5.150  -1.931  -5.748  0.00  0.00    +0.000 HD
BRANCH  14  17
ATOM     17  C   UNL     1       3.817  -1.692  -7.937  0.00  0.00    +0.000 A 
ATOM     18  C   UNL     1       3.411  -1.364  -9.224  0.00  0.00    +0.000 A 
ATOM     19  S   UNL     1       3.165  -2.719 -10.229  0.00  0.00    +0.000 S 
ATOM     20  C   UNL     1       3.542  -3.794  -8.966  0.00  0.00    +0.000 A 
ATOM     21  N   UNL     1       3.502  -5.140  -9.158  0.00  0.00    +0.000 NA
ATOM     22  C   UNL     1       3.774  -5.837  -8.106  0.00  0.00    +0.000 A 
ATOM     23  N   UNL     1       4.091  -5.310  -6.881  0.00  0.00    +0.000 N 
ATOM     24  C   UNL     1       4.201  -3.959  -6.655  0.00  0.00    +0.000 A 
ATOM     25  O   UNL     1       4.580  -3.524  -5.573  0.00  0.00    +0.000 OA
ATOM     26  C   UNL     1       3.872  -3.128  -7.799  0.00  0.00    +0.000 A 
ATOM     27  H   UNL     1       4.315  -5.911  -6.101  0.00  0.00    +0.000 HD
ENDBRANCH  14  17
ENDBRANCH  12  13
ENDBRANCH   4  12
BRANCH   6  28
ATOM     28  C   UNL     1       4.634  -1.920  -0.437  0.00  0.00    +0.000 C 
BRANCH  28  29
ATOM     29  N   UNL     1       5.609  -1.395   0.480  0.00  0.00    +0.000 N 
ATOM     30  C   UNL     1       6.958  -1.661   0.403  0.00  0.00    +0.000 C 
ATOM     31  O   UNL     1       7.457  -2.293  -0.524  0.00  0.00    +0.000 OA
ATOM     32  H   UNL     1       5.276  -0.793   1.227  0.00  0.00    +0.000 HD
BRANCH  30  33
ATOM     33  C   UNL     1       7.721  -1.140   1.521  0.00  0.00    +0.000 A 
ATOM     34  C   UNL     1       9.084  -1.090   1.762  0.00  0.00    +0.000 A 
ATOM     35  C   UNL     1       9.252  -0.506   3.042  0.00  0.00    +0.000 A 
ATOM     36  C   UNL     1       7.988  -0.244   3.512  0.00  0.00    +0.000 A 
ATOM     37  O   UNL     1       7.054  -0.610   2.600  0.00  0.00    +0.000 OA
ENDBRANCH  30  33
ENDBRANCH  28  29
ENDBRANCH   6  28
TORSDOF 7
