REMARK  Name = 
REMARK  7 active torsions:
REMARK  status: ('A' for Active; 'I' for Inactive)
REMARK    1  A    between atoms: C_2  and  C_19
REMARK    2  A    between atoms: N_3  and  C_4
REMARK    3  A    between atoms: C_4  and  C_5
REMARK    4  A    between atoms: C_8  and  C_9
REMARK    5  A    between atoms: C_9  and  N_10
REMARK    6  A    between atoms: C_14  and  C_15
REMARK    7  A    between atoms: C_15  and  O_16
REMARK                            x       y       z     vdW  Elec       q    Type
REMARK                         _______ _______ _______ _____ _____    ______ ____
ROOT
ATOM      1  C   UNL     1       2.234   0.196   2.364  0.00  0.00    +0.000 C 
ENDROOT
BRANCH   1   2
ATOM      2  C   UNL     1       3.142   0.447   3.538  0.00  0.00    +0.000 A 
ATOM      3  C   UNL     1       3.402   1.762   3.935  0.00  0.00    +0.000 A 
ATOM      4  C   UNL     1       4.204   2.029   5.043  0.00  0.00    +0.000 A 
ATOM      5  C   UNL     1       4.779   0.988   5.782  0.00  0.00    +0.000 A 
ATOM      6  C   UNL     1       4.555  -0.331   5.360  0.00  0.00    +0.000 A 
ATOM      7  C   UNL     1       3.749  -0.599   4.242  0.00  0.00    +0.000 A 
BRANCH   5   8
ATOM      8  C   UNL     1       5.691   1.302   6.950  0.00  0.00    +0.000 C 
BRANCH   8   9
ATOM      9  N   UNL     1       5.102   1.446   8.282  0.00  0.00    +0.000 NA
ATOM     10  C   UNL     1       4.428   0.285   8.844  0.00  0.00    +0.000 C 
ATOM     11  C   UNL     1       2.964   0.651   8.992  0.00  0.00    +0.000 C 
ATOM     12  C   UNL     1       2.915   2.168   9.000  0.00  0.00    +0.000 C 
ATOM     13  C   UNL     1       4.278   2.643   8.503  0.00  0.00    +0.000 C 
BRANCH  13  14
ATOM     14  C   UNL     1       4.965   3.550   9.543  0.00  0.00    +0.000 C 
BRANCH  14  15
ATOM     15  O   UNL     1       6.250   3.960   9.076  0.00  0.00    +0.000 OA
ATOM     16  H   UNL     1       6.715   3.125   8.877  0.00  0.00    +0.000 HD
ENDBRANCH  14  15
ENDBRANCH  13  14
ENDBRANCH   8   9
ENDBRANCH   5   8
ENDBRANCH   1   2
BRANCH   1  19
ATOM     17  O   UNL     1       2.556   2.427   0.682  0.00  0.00    +0.000 OA
ATOM     18  C   UNL     1       3.090   1.366   0.368  0.00  0.00    +0.000 C 
ATOM     19  N   UNL     1       2.948   0.223   1.113  0.00  0.00    +0.000 N 
ATOM     20  H   UNL     1       3.547  -0.573   0.922  0.00  0.00    +0.000 HD
BRANCH  18  21
ATOM     21  C   UNL     1       3.873   1.245  -0.861  0.00  0.00    +0.000 A 
ATOM     22  C   UNL     1       3.652   2.121  -1.916  0.00  0.00    +0.000 A 
ATOM     23  S   UNL     1       4.669   1.851  -3.255  0.00  0.00    +0.000 S 
ATOM     24  C   UNL     1       5.465   0.574  -2.458  0.00  0.00    +0.000 A 
ATOM     25  N   UNL     1       6.502  -0.082  -3.047  0.00  0.00    +0.000 NA
ATOM     26  C   UNL     1       7.035  -0.999  -2.314  0.00  0.00    +0.000 A 
ATOM     27  N   UNL     1       6.617  -1.337  -1.052  0.00  0.00    +0.000 N 
ATOM     28  C   UNL     1       5.517  -0.761  -0.451  0.00  0.00    +0.000 A 
ATOM     29  O   UNL     1       5.077  -1.198   0.606  0.00  0.00    +0.000 OA
ATOM     30  C   UNL     1       4.930   0.326  -1.207  0.00  0.00    +0.000 A 
ATOM     31  H   UNL     1       7.052  -2.099  -0.552  0.00  0.00    +0.000 HD
ENDBRANCH  18  21
ENDBRANCH   1  19
TORSDOF 7
