REMARK  Name = 
REMARK  11 active torsions:
REMARK  status: ('A' for Active; 'I' for Inactive)
REMARK    1  A    between atoms: C_1  and  C_2
REMARK    2  A    between atoms: C_2  and  N_3
REMARK    3  A    between atoms: C_2  and  C_20
REMARK    4  A    between atoms: N_3  and  C_4
REMARK    5  A    between atoms: C_4  and  C_5
REMARK    6  A    between atoms: C_8  and  C_9
REMARK    7  A    between atoms: C_9  and  O_10
REMARK    8  A    between atoms: C_9  and  C_11
REMARK    9  A    between atoms: C_11  and  N_12
REMARK   10  A    between atoms: C_15  and  O_16
REMARK   11  A    between atoms: C_20  and  C_22
REMARK                            x       y       z     vdW  Elec       q    Type
REMARK                         _______ _______ _______ _____ _____    ______ ____
ROOT
ATOM      1  C   UNL     1       2.322  -2.210   1.112  0.00  0.00    +0.000 C 
ENDROOT
BRANCH   1   2
ATOM      2  C   UNL     1       2.867  -3.618   0.991  0.00  0.00    +0.000 A 
ATOM      3  C   UNL     1       4.245  -3.872   1.085  0.00  0.00    +0.000 A 
ATOM      4  C   UNL     1       4.747  -5.168   0.936  0.00  0.00    +0.000 A 
ATOM      5  C   UNL     1       3.889  -6.251   0.693  0.00  0.00    +0.000 A 
ATOM      6  C   UNL     1       2.508  -6.001   0.652  0.00  0.00    +0.000 A 
ATOM      7  C   UNL     1       2.005  -4.703   0.791  0.00  0.00    +0.000 A 
BRANCH   5   8
ATOM      8  C   UNL     1       4.471  -7.642   0.533  0.00  0.00    +0.000 C 
BRANCH   8   9
ATOM      9  O   UNL     1       4.584  -8.237   1.833  0.00  0.00    +0.000 OA
ATOM     10  H   UNL     1       3.823  -7.925   2.353  0.00  0.00    +0.000 HD
ENDBRANCH   8   9
BRANCH   8  11
ATOM     11  C   UNL     1       3.679  -8.627  -0.372  0.00  0.00    +0.000 C 
BRANCH  11  12
ATOM     12  N   UNL     1       3.478  -8.203  -1.767  0.00  0.00    +0.000 NA
ATOM     13  C   UNL     1       4.739  -8.151  -2.525  0.00  0.00    +0.000 C 
ATOM     14  C   UNL     1       4.388  -8.616  -3.926  0.00  0.00    +0.000 C 
ATOM     15  C   UNL     1       3.325  -9.665  -3.673  0.00  0.00    +0.000 C 
ATOM     16  C   UNL     1       2.553  -9.096  -2.486  0.00  0.00    +0.000 C 
BRANCH  15  17
ATOM     17  O   UNL     1       2.514  -9.872  -4.817  0.00  0.00    +0.000 OA
ATOM     18  H   UNL     1       2.123  -9.016  -5.063  0.00  0.00    +0.000 HD
ENDBRANCH  15  17
ENDBRANCH  11  12
ENDBRANCH   8  11
ENDBRANCH   5   8
ENDBRANCH   1   2
BRANCH   1  19
ATOM     19  N   UNL     1       2.823  -1.374   0.020  0.00  0.00    +0.000 NA
ATOM     20  H   UNL     1       3.840  -1.351   0.073  0.00  0.00    +0.000 HD
BRANCH  19  22
ATOM     21  C   UNL     1       2.738   0.793   1.256  0.00  0.00    +0.000 C 
ATOM     22  C   UNL     1       2.319   0.018   0.003  0.00  0.00    +0.000 C 
BRANCH  22  23
ATOM     23  C   UNL     1       0.792   0.104  -0.258  0.00  0.00    +0.000 C 
ATOM     24  O   UNL     1       0.032   0.511   0.621  0.00  0.00    +0.000 OA
BRANCH  23  25
ATOM     25  C   UNL     1       0.251  -0.323  -1.564  0.00  0.00    +0.000 A 
ATOM     26  C   UNL     1       0.803  -1.331  -2.337  0.00  0.00    +0.000 A 
ATOM     27  S   UNL     1      -0.144  -1.740  -3.700  0.00  0.00    +0.000 S 
ATOM     28  C   UNL     1      -1.302  -0.556  -3.320  0.00  0.00    +0.000 A 
ATOM     29  N   UNL     1      -2.418  -0.395  -4.081  0.00  0.00    +0.000 NA
ATOM     30  C   UNL     1      -3.211   0.539  -3.668  0.00  0.00    +0.000 A 
ATOM     31  N   UNL     1      -2.972   1.344  -2.586  0.00  0.00    +0.000 N 
ATOM     32  C   UNL     1      -1.799   1.303  -1.864  0.00  0.00    +0.000 A 
ATOM     33  O   UNL     1      -1.500   2.202  -1.087  0.00  0.00    +0.000 OA
ATOM     34  C   UNL     1      -0.942   0.179  -2.205  0.00  0.00    +0.000 A 
ATOM     35  H   UNL     1      -3.585   2.120  -2.378  0.00  0.00    +0.000 HD
ENDBRANCH  23  25
ENDBRANCH  22  23
ENDBRANCH  19  22
ENDBRANCH   1  19
TORSDOF 10
