REMARK  Name = 
REMARK  5 active torsions:
REMARK  status: ('A' for Active; 'I' for Inactive)
REMARK    1  A    between atoms: C_1  and  C_2
REMARK    2  A    between atoms: C_3  and  C_4
REMARK    3  A    between atoms: C_7  and  C_8
REMARK    4  A    between atoms: C_14  and  C_15
REMARK    5  A    between atoms: C_14  and  C_16
REMARK                            x       y       z     vdW  Elec       q    Type
REMARK                         _______ _______ _______ _____ _____    ______ ____
ROOT
ATOM      1  C   UNL     1       2.473  -0.067  -1.491  0.00  0.00    +0.000 C 
ATOM      2  C   UNL     1       2.328  -0.065   0.028  0.00  0.00    +0.000 C 
ATOM      3  C   UNL     1       3.122  -1.140   0.848  0.00  0.00    +0.000 C 
ATOM      4  C   UNL     1       4.074  -0.005   1.315  0.00  0.00    +0.000 C 
ATOM      5  C   UNL     1       2.993   1.052   0.939  0.00  0.00    +0.000 C 
ATOM      6  C   UNL     1       2.110   1.372   2.160  0.00  0.00    +0.000 C 
ENDROOT
BRANCH   5   7
ATOM      7  C   UNL     1       3.536   2.408   0.248  0.00  0.00    +0.000 A 
ATOM      8  C   UNL     1       4.821   2.930   0.506  0.00  0.00    +0.000 A 
ATOM      9  C   UNL     1       5.319   4.033  -0.188  0.00  0.00    +0.000 A 
ATOM     10  C   UNL     1       4.497   4.647  -1.107  0.00  0.00    +0.000 A 
ATOM     11  F   UNL     1       4.973   5.697  -1.794  0.00  0.00    +0.000 F 
ATOM     12  N   UNL     1       3.239   4.252  -1.357  0.00  0.00    +0.000 NA
ATOM     13  C   UNL     1       2.800   3.161  -0.679  0.00  0.00    +0.000 A 
ENDBRANCH   5   7
BRANCH   3  14
ATOM     14  C   UNL     1       3.768  -2.387   0.138  0.00  0.00    +0.000 A 
ATOM     15  C   UNL     1       5.131  -2.660   0.163  0.00  0.00    +0.000 A 
ATOM     16  N   UNL     1       5.734  -3.706  -0.428  0.00  0.00    +0.000 NA
ATOM     17  C   UNL     1       4.908  -4.546  -1.086  0.00  0.00    +0.000 A 
ATOM     18  N   UNL     1       3.574  -4.422  -1.183  0.00  0.00    +0.000 NA
ATOM     19  C   UNL     1       3.046  -3.345  -0.563  0.00  0.00    +0.000 A 
BRANCH  17  20
ATOM     20  C   UNL     1       5.587  -5.715  -1.753  0.00  0.00    +0.000 C 
ATOM     21  N   UNL     1       6.951  -5.755  -1.598  0.00  0.00    +0.000 N 
ATOM     22  O   UNL     1       4.999  -6.587  -2.393  0.00  0.00    +0.000 OA
ATOM     23  H   UNL     1       7.416  -5.029  -1.063  0.00  0.00    +0.000 HD
ATOM     24  H   UNL     1       7.480  -6.511  -2.010  0.00  0.00    +0.000 HD
ENDBRANCH  17  20
ENDBRANCH   3  14
TORSDOF 3
