REMARK  Name = 
REMARK  7 active torsions:
REMARK  status: ('A' for Active; 'I' for Inactive)
REMARK    1  A    between atoms: C_1  and  C_2
REMARK    2  A    between atoms: C_4  and  C_5
REMARK    3  A    between atoms: C_10  and  N_11
REMARK    4  A    between atoms: N_11  and  C_12
REMARK    5  A    between atoms: C_12  and  C_13
REMARK    6  A    between atoms: C_17  and  C_18
REMARK    7  A    between atoms: C_22  and  C_23
REMARK                            x       y       z     vdW  Elec       q    Type
REMARK                         _______ _______ _______ _____ _____    ______ ____
ROOT
ATOM      1  C   UNL     1       2.806  -4.079   0.069  0.00  0.00    +0.000 A 
ATOM      2  C   UNL     1       2.907  -4.883  -1.069  0.00  0.00    +0.000 A 
ATOM      3  C   UNL     1       3.331  -6.205  -0.953  0.00  0.00    +0.000 A 
ATOM      4  C   UNL     1       3.644  -6.740   0.302  0.00  0.00    +0.000 A 
ATOM      5  C   UNL     1       3.540  -5.970   1.474  0.00  0.00    +0.000 A 
ATOM      6  C   UNL     1       3.109  -4.638   1.325  0.00  0.00    +0.000 A 
ENDROOT
BRANCH   5   7
ATOM      7  C   UNL     1       3.889  -6.515   2.806  0.00  0.00    +0.000 A 
ATOM      8  C   UNL     1       4.892  -7.469   2.992  0.00  0.00    +0.000 A 
ATOM      9  N   UNL     1       5.264  -7.991   4.189  0.00  0.00    +0.000 NA
ATOM     10  C   UNL     1       4.619  -7.533   5.283  0.00  0.00    +0.000 A 
ATOM     11  C   UNL     1       3.614  -6.584   5.237  0.00  0.00    +0.000 A 
ATOM     12  C   UNL     1       3.247  -6.086   3.978  0.00  0.00    +0.000 A 
BRANCH  11  13
ATOM     13  C   UNL     1       2.953  -6.096   6.488  0.00  0.00    +0.000 C 
ATOM     14  F   UNL     1       3.417  -6.690   7.622  0.00  0.00    +0.000 F 
ATOM     15  F   UNL     1       3.121  -4.757   6.673  0.00  0.00    +0.000 F 
ATOM     16  F   UNL     1       1.608  -6.305   6.481  0.00  0.00    +0.000 F 
ENDBRANCH  11  13
ENDBRANCH   5   7
BRANCH   1  17
ATOM     17  C   UNL     1       2.448  -2.614  -0.034  0.00  0.00    +0.000 C 
BRANCH  17  18
ATOM     18  N   UNL     1       1.029  -2.395   0.160  0.00  0.00    +0.000 N 
ATOM     19  H   UNL     1       0.456  -3.125  -0.255  0.00  0.00    +0.000 HD
BRANCH  18  26
ATOM     20  C   UNL     1       2.530   0.352   0.067  0.00  0.00    +0.000 C 
ATOM     21  C   UNL     1       1.046   0.122   0.174  0.00  0.00    +0.000 A 
ATOM     22  C   UNL     1       0.262   1.297   0.290  0.00  0.00    +0.000 A 
ATOM     23  C   UNL     1      -1.130   1.265   0.394  0.00  0.00    +0.000 A 
ATOM     24  C   UNL     1      -1.760   0.026   0.374  0.00  0.00    +0.000 A 
ATOM     25  C   UNL     1      -0.994  -1.146   0.264  0.00  0.00    +0.000 A 
ATOM     26  C   UNL     1       0.414  -1.139   0.148  0.00  0.00    +0.000 A 
BRANCH  23  27
ATOM     27  C   UNL     1      -1.841   2.571   0.529  0.00  0.00    +0.000 C 
ATOM     28  N   UNL     1      -3.202   2.572   0.647  0.00  0.00    +0.000 N 
ATOM     29  O   UNL     1      -1.234   3.636   0.536  0.00  0.00    +0.000 OA
ATOM     30  H   UNL     1      -3.785   1.752   0.671  0.00  0.00    +0.000 HD
ATOM     31  H   UNL     1      -3.645   3.476   0.749  0.00  0.00    +0.000 HD
ENDBRANCH  23  27
ENDBRANCH  18  26
ENDBRANCH  17  18
ENDBRANCH   1  17
TORSDOF 6
