REMARK  Name = 
REMARK  3 active torsions:
REMARK  status: ('A' for Active; 'I' for Inactive)
REMARK    1  A    between atoms: C_2  and  C_4
REMARK    2  A    between atoms: N_8  and  C_9
REMARK    3  A    between atoms: C_9  and  C_10
REMARK                            x       y       z     vdW  Elec       q    Type
REMARK                         _______ _______ _______ _____ _____    ______ ____
ROOT
ATOM      1  C   UNL     1       3.266  -0.800  -1.015  0.00  0.00    +0.000 A 
ATOM      2  C   UNL     1       2.620  -0.980  -2.234  0.00  0.00    +0.000 A 
ATOM      3  C   UNL     1       3.259  -1.701  -3.242  0.00  0.00    +0.000 A 
ATOM      4  C   UNL     1       4.536  -2.210  -3.022  0.00  0.00    +0.000 A 
ATOM      5  N   UNL     1       5.196  -3.009  -3.922  0.00  0.00    +0.000 N 
ATOM      6  N   UNL     1       5.179  -2.020  -1.854  0.00  0.00    +0.000 NA
ATOM      7  C   UNL     1       4.544  -1.316  -0.880  0.00  0.00    +0.000 A 
ATOM      8  H   UNL     1       6.129  -3.218  -3.581  0.00  0.00    +0.000 HD
ENDROOT
BRANCH   1  10
ATOM      9  N   UNL     1       1.282  -0.104   0.194  0.00  0.00    +0.000 N 
ATOM     10  C   UNL     1       2.648  -0.096   0.125  0.00  0.00    +0.000 C 
ATOM     11  O   UNL     1       3.326   0.435   0.992  0.00  0.00    +0.000 OA
ATOM     12  H   UNL     1       0.875   0.282   1.038  0.00  0.00    +0.000 HD
ATOM     13  H   UNL     1       0.713  -0.740  -0.347  0.00  0.00    +0.000 HD
ENDBRANCH   1  10
BRANCH   5  14
ATOM     14  C   UNL     1       5.057  -2.875  -5.357  0.00  0.00    +0.000 C 
BRANCH  14  15
ATOM     15  C   UNL     1       4.586  -4.169  -5.968  0.00  0.00    +0.000 A 
ATOM     16  C   UNL     1       3.743  -5.065  -5.300  0.00  0.00    +0.000 A 
ATOM     17  C   UNL     1       3.336  -6.239  -5.925  0.00  0.00    +0.000 A 
ATOM     18  C   UNL     1       3.769  -6.475  -7.217  0.00  0.00    +0.000 A 
ATOM     19  N   UNL     1       4.554  -5.624  -7.912  0.00  0.00    +0.000 NA
ATOM     20  C   UNL     1       4.940  -4.495  -7.274  0.00  0.00    +0.000 A 
ENDBRANCH  14  15
ENDBRANCH   5  14
TORSDOF 3
