REMARK  Name = 
REMARK  6 active torsions:
REMARK  status: ('A' for Active; 'I' for Inactive)
REMARK    1  A    between atoms: C_1  and  C_2
REMARK    2  A    between atoms: C_4  and  C_5
REMARK    3  A    between atoms: C_10  and  N_11
REMARK    4  A    between atoms: N_11  and  C_12
REMARK    5  A    between atoms: C_12  and  C_13
REMARK    6  A    between atoms: C_17  and  C_18
REMARK                            x       y       z     vdW  Elec       q    Type
REMARK                         _______ _______ _______ _____ _____    ______ ____
ROOT
ATOM      1  N   UNL     1       0.952  -2.327   0.024  0.00  0.00    +0.000 N 
ATOM      2  H   UNL     1       0.272  -3.077  -0.019  0.00  0.00    +0.000 HD
ENDROOT
BRANCH   1   9
ATOM      3  C   UNL     1       2.550   0.325  -0.030  0.00  0.00    +0.000 C 
ATOM      4  C   UNL     1       1.059   0.148  -0.018  0.00  0.00    +0.000 A 
ATOM      5  C   UNL     1       0.298   1.332  -0.017  0.00  0.00    +0.000 A 
ATOM      6  C   UNL     1      -1.092   1.297  -0.004  0.00  0.00    +0.000 A 
ATOM      7  C   UNL     1      -1.672   0.046   0.003  0.00  0.00    +0.000 A 
ATOM      8  N   UNL     1      -0.970  -1.119   0.001  0.00  0.00    +0.000 NA
ATOM      9  C   UNL     1       0.385  -1.082  -0.003  0.00  0.00    +0.000 A 
BRANCH   6  10
ATOM     10  C   UNL     1      -1.830   2.583  -0.002  0.00  0.00    +0.000 C 
ATOM     11  N   UNL     1      -3.195   2.572   0.020  0.00  0.00    +0.000 N 
ATOM     12  O   UNL     1      -1.233   3.656  -0.015  0.00  0.00    +0.000 OA
ATOM     13  H   UNL     1      -3.783   1.754   0.036  0.00  0.00    +0.000 HD
ATOM     14  H   UNL     1      -3.648   3.478   0.022  0.00  0.00    +0.000 HD
ENDBRANCH   6  10
ENDBRANCH   1   9
BRANCH   1  15
ATOM     15  C   UNL     1       2.352  -2.640  -0.050  0.00  0.00    +0.000 C 
BRANCH  15  16
ATOM     16  C   UNL     1       2.635  -4.113   0.061  0.00  0.00    +0.000 A 
ATOM     17  C   UNL     1       2.833  -4.905  -1.068  0.00  0.00    +0.000 A 
ATOM     18  C   UNL     1       3.238  -6.216  -0.885  0.00  0.00    +0.000 A 
ATOM     19  N   UNL     1       3.436  -6.785   0.326  0.00  0.00    +0.000 NA
ATOM     20  C   UNL     1       3.203  -6.028   1.428  0.00  0.00    +0.000 A 
ATOM     21  C   UNL     1       2.806  -4.695   1.322  0.00  0.00    +0.000 A 
BRANCH  20  22
ATOM     22  C   UNL     1       3.416  -6.684   2.735  0.00  0.00    +0.000 A 
ATOM     23  C   UNL     1       4.372  -7.708   2.890  0.00  0.00    +0.000 A 
ATOM     24  C   UNL     1       4.585  -8.321   4.129  0.00  0.00    +0.000 A 
ATOM     25  C   UNL     1       3.840  -7.919   5.229  0.00  0.00    +0.000 A 
ATOM     26  F   UNL     1       4.040  -8.506   6.416  0.00  0.00    +0.000 F 
ATOM     27  C   UNL     1       2.887  -6.919   5.115  0.00  0.00    +0.000 A 
ATOM     28  C   UNL     1       2.676  -6.309   3.876  0.00  0.00    +0.000 A 
ENDBRANCH  20  22
ENDBRANCH  15  16
ENDBRANCH   1  15
TORSDOF 5
