REMARK  Name = 
REMARK  6 active torsions:
REMARK  status: ('A' for Active; 'I' for Inactive)
REMARK    1  A    between atoms: C_1  and  O_2
REMARK    2  A    between atoms: O_2  and  C_3
REMARK    3  A    between atoms: C_7  and  C_8
REMARK    4  A    between atoms: C_12  and  C_13
REMARK    5  A    between atoms: C_13  and  N_14
REMARK    6  A    between atoms: C_18  and  C_19
REMARK                            x       y       z     vdW  Elec       q    Type
REMARK                         _______ _______ _______ _____ _____    ______ ____
ROOT
ATOM      1  C   UNL     1       3.446  -3.405   7.659  0.00  0.00    +0.000 C 
ATOM      2  C   UNL     1       4.651  -2.556   8.065  0.00  0.00    +0.000 C 
ATOM      3  C   UNL     1       4.589  -3.989   8.467  0.00  0.00    +0.000 C 
ENDROOT
BRANCH   1   4
ATOM      4  N   UNL     1       2.155  -3.066   8.286  0.00  0.00    +0.000 N 
ATOM      5  C   UNL     1       1.255  -4.031   8.756  0.00  0.00    +0.000 A 
ATOM      6  C   UNL     1       1.663  -5.190   9.407  0.00  0.00    +0.000 A 
ATOM      7  C   UNL     1       0.713  -6.053   9.953  0.00  0.00    +0.000 A 
ATOM      8  C   UNL     1      -0.636  -5.743   9.827  0.00  0.00    +0.000 A 
ATOM      9  C   UNL     1      -0.967  -4.590   9.131  0.00  0.00    +0.000 A 
ATOM     10  N   UNL     1      -0.052  -3.728   8.612  0.00  0.00    +0.000 NA
ATOM     11  H   UNL     1       1.581  -2.391   7.783  0.00  0.00    +0.000 HD
BRANCH   8  12
ATOM     12  C   UNL     1      -1.711  -6.583  10.394  0.00  0.00    +0.000 C 
ATOM     13  N   UNL     1      -1.392  -7.383  11.453  0.00  0.00    +0.000 N 
ATOM     14  O   UNL     1      -2.852  -6.539   9.951  0.00  0.00    +0.000 OA
ATOM     15  H   UNL     1      -0.545  -7.272  11.991  0.00  0.00    +0.000 HD
ATOM     16  H   UNL     1      -2.157  -7.879  11.889  0.00  0.00    +0.000 HD
ENDBRANCH   8  12
ENDBRANCH   1   4
BRANCH   1  21
ATOM     17  C   UNL     1       3.357  -2.817   3.846  0.00  0.00    +0.000 A 
ATOM     18  C   UNL     1       3.200  -4.132   3.384  0.00  0.00    +0.000 A 
ATOM     19  C   UNL     1       3.113  -5.205   4.275  0.00  0.00    +0.000 A 
ATOM     20  C   UNL     1       3.186  -4.985   5.651  0.00  0.00    +0.000 A 
ATOM     21  C   UNL     1       3.338  -3.692   6.165  0.00  0.00    +0.000 A 
ATOM     22  C   UNL     1       3.395  -2.630   5.239  0.00  0.00    +0.000 A 
BRANCH  17  27
ATOM     23  C   UNL     1       3.186   0.667   2.334  0.00  0.00    +0.000 A 
ATOM     24  C   UNL     1       3.935   0.426   1.190  0.00  0.00    +0.000 A 
ATOM     25  N   UNL     1       4.478  -0.769   0.870  0.00  0.00    +0.000 NA
ATOM     26  C   UNL     1       4.260  -1.779   1.745  0.00  0.00    +0.000 A 
ATOM     27  C   UNL     1       3.520  -1.674   2.925  0.00  0.00    +0.000 A 
ATOM     28  C   UNL     1       2.980  -0.405   3.202  0.00  0.00    +0.000 A 
BRANCH  23  30
ATOM     29  C   UNL     1       1.993   2.213   3.684  0.00  0.00    +0.000 C 
ATOM     30  O   UNL     1       2.720   1.941   2.492  0.00  0.00    +0.000 OA
ENDBRANCH  23  30
ENDBRANCH  17  27
ENDBRANCH   1  21
TORSDOF 5
