REMARK  Name = 
REMARK  8 active torsions:
REMARK  status: ('A' for Active; 'I' for Inactive)
REMARK    1  A    between atoms: C_1  and  C_2
REMARK    2  A    between atoms: C_2  and  C_3
REMARK    3  A    between atoms: C_3  and  N_4
REMARK    4  A    between atoms: C_3  and  C_17
REMARK    5  A    between atoms: C_5  and  C_7
REMARK    6  A    between atoms: C_20  and  C_21
REMARK    7  A    between atoms: C_21  and  N_22
REMARK    8  A    between atoms: C_23  and  C_25
REMARK                            x       y       z     vdW  Elec       q    Type
REMARK                         _______ _______ _______ _____ _____    ______ ____
ROOT
ATOM      1  C   UNL     1       2.910   0.237  -1.393  0.00  0.00    +0.000 C 
ENDROOT
BRANCH   1   2
ATOM      2  C   UNL     1       4.431   0.228  -1.532  0.00  0.00    +0.000 A 
ATOM      3  C   UNL     1       5.215   1.384  -1.373  0.00  0.00    +0.000 A 
ATOM      4  C   UNL     1       6.615   1.314  -1.395  0.00  0.00    +0.000 A 
ATOM      5  C   UNL     1       7.270   0.083  -1.536  0.00  0.00    +0.000 A 
ATOM      6  C   UNL     1       6.495  -1.066  -1.727  0.00  0.00    +0.000 A 
ATOM      7  C   UNL     1       5.102  -0.984  -1.735  0.00  0.00    +0.000 A 
ATOM      8  F   UNL     1       4.399  -2.117  -1.874  0.00  0.00    +0.000 F 
BRANCH   5   9
ATOM      9  C   UNL     1       8.770  -0.007  -1.453  0.00  0.00    +0.000 C 
BRANCH   9  10
ATOM     10  N   UNL     1       9.405   0.109  -2.735  0.00  0.00    +0.000 N 
ATOM     11  C   UNL     1      10.779   0.123  -2.855  0.00  0.00    +0.000 C 
ATOM     12  O   UNL     1      11.539   0.055  -1.891  0.00  0.00    +0.000 OA
ATOM     13  H   UNL     1       8.875   0.106  -3.602  0.00  0.00    +0.000 HD
BRANCH  11  14
ATOM     14  C   UNL     1      11.258   0.227  -4.240  0.00  0.00    +0.000 A 
ATOM     15  C   UNL     1      12.610   0.235  -4.673  0.00  0.00    +0.000 A 
ATOM     16  C   UNL     1      12.557   0.366  -6.039  0.00  0.00    +0.000 A 
ATOM     17  N   UNL     1      11.234   0.427  -6.355  0.00  0.00    +0.000 N 
ATOM     18  N   UNL     1      10.416   0.338  -5.291  0.00  0.00    +0.000 NA
ATOM     19  H   UNL     1      10.817   0.530  -7.275  0.00  0.00    +0.000 HD
ENDBRANCH  11  14
ENDBRANCH   9  10
ENDBRANCH   5   9
ENDBRANCH   1   2
BRANCH   1  20
ATOM     20  N   UNL     1       2.356   1.461  -1.974  0.00  0.00    +0.000 N 
ATOM     21  C   UNL     1       1.014   1.739  -2.060  0.00  0.00    +0.000 C 
ATOM     22  O   UNL     1       0.143   1.008  -1.598  0.00  0.00    +0.000 OA
ATOM     23  H   UNL     1       2.958   1.928  -2.643  0.00  0.00    +0.000 HD
BRANCH  21  24
ATOM     24  C   UNL     1       0.666   3.020  -2.693  0.00  0.00    +0.000 A 
ATOM     25  C   UNL     1      -0.513   3.669  -2.350  0.00  0.00    +0.000 A 
ATOM     26  S   UNL     1      -0.742   5.148  -3.169  0.00  0.00    +0.000 S 
ATOM     27  C   UNL     1       0.705   4.951  -4.043  0.00  0.00    +0.000 A 
ATOM     28  N   UNL     1       1.097   5.868  -4.969  0.00  0.00    +0.000 NA
ATOM     29  C   UNL     1       2.198   5.574  -5.577  0.00  0.00    +0.000 A 
ATOM     30  N   UNL     1       2.949   4.453  -5.336  0.00  0.00    +0.000 N 
ATOM     31  C   UNL     1       2.615   3.526  -4.382  0.00  0.00    +0.000 A 
ATOM     32  O   UNL     1       3.350   2.575  -4.136  0.00  0.00    +0.000 OA
ATOM     33  C   UNL     1       1.368   3.790  -3.692  0.00  0.00    +0.000 A 
ATOM     34  H   UNL     1       3.814   4.292  -5.831  0.00  0.00    +0.000 HD
ENDBRANCH  21  24
ENDBRANCH   1  20
BRANCH   1  36
ATOM     35  C   UNL     1       2.968  -1.210   0.750  0.00  0.00    +0.000 C 
ATOM     36  C   UNL     1       2.498   0.081   0.090  0.00  0.00    +0.000 C 
ENDBRANCH   1  36
TORSDOF 7
