REMARK  Name = 
REMARK  7 active torsions:
REMARK  status: ('A' for Active; 'I' for Inactive)
REMARK    1  A    between atoms: C_1  and  N_2
REMARK    2  A    between atoms: N_2  and  C_3
REMARK    3  A    between atoms: C_3  and  C_4
REMARK    4  A    between atoms: C_7  and  C_8
REMARK    5  A    between atoms: C_8  and  N_9
REMARK    6  A    between atoms: C_10  and  C_12
REMARK    7  A    between atoms: C_24  and  C_26
REMARK                            x       y       z     vdW  Elec       q    Type
REMARK                         _______ _______ _______ _____ _____    ______ ____
ROOT
ATOM      1  C   UNL     1       2.219   2.351   0.354  0.00  0.00    +0.000 A 
ATOM      2  C   UNL     1       0.945   2.153   0.907  0.00  0.00    +0.000 A 
ATOM      3  C   UNL     1       0.047   3.218   1.028  0.00  0.00    +0.000 A 
ATOM      4  C   UNL     1       0.402   4.499   0.590  0.00  0.00    +0.000 A 
ATOM      5  C   UNL     1       1.700   4.712   0.105  0.00  0.00    +0.000 A 
ATOM      6  C   UNL     1       2.597   3.646  -0.021  0.00  0.00    +0.000 A 
ENDROOT
BRANCH   1   7
ATOM      7  C   UNL     1       3.154   1.179   0.163  0.00  0.00    +0.000 C 
BRANCH   7   9
ATOM      8  C   UNL     1       2.035   0.732  -2.064  0.00  0.00    +0.000 C 
ATOM      9  N   UNL     1       3.127   0.484  -1.127  0.00  0.00    +0.000 N 
ATOM     10  C   UNL     1       3.999  -0.568  -1.456  0.00  0.00    +0.000 C 
ATOM     11  O   UNL     1       3.902  -1.142  -2.541  0.00  0.00    +0.000 OA
BRANCH  10  12
ATOM     12  C   UNL     1       5.078  -0.961  -0.558  0.00  0.00    +0.000 A 
ATOM     13  C   UNL     1       5.268  -0.956   0.816  0.00  0.00    +0.000 A 
ATOM     14  C   UNL     1       6.567  -1.450   1.096  0.00  0.00    +0.000 A 
ATOM     15  C   UNL     1       7.130  -1.808  -0.103  0.00  0.00    +0.000 A 
ATOM     16  N   UNL     1       6.212  -1.558  -1.084  0.00  0.00    +0.000 N 
ATOM     17  H   UNL     1       6.326  -1.753  -2.072  0.00  0.00    +0.000 HD
ENDBRANCH  10  12
ENDBRANCH   7   9
ENDBRANCH   1   7
BRANCH   4  18
ATOM     18  C   UNL     1      -0.589   5.632   0.646  0.00  0.00    +0.000 C 
BRANCH  18  19
ATOM     19  N   UNL     1      -0.522   6.334   1.899  0.00  0.00    +0.000 N 
ATOM     20  C   UNL     1      -1.412   7.334   2.196  0.00  0.00    +0.000 C 
ATOM     21  O   UNL     1      -2.328   7.638   1.435  0.00  0.00    +0.000 OA
ATOM     22  H   UNL     1       0.346   6.265   2.421  0.00  0.00    +0.000 HD
BRANCH  20  23
ATOM     23  C   UNL     1      -1.257   7.984   3.503  0.00  0.00    +0.000 A 
ATOM     24  C   UNL     1      -2.345   8.616   4.089  0.00  0.00    +0.000 A 
ATOM     25  S   UNL     1      -2.008   9.270   5.627  0.00  0.00    +0.000 S 
ATOM     26  C   UNL     1      -0.382   8.779   5.539  0.00  0.00    +0.000 A 
ATOM     27  N   UNL     1       0.488   9.059   6.548  0.00  0.00    +0.000 NA
ATOM     28  C   UNL     1       1.697   8.659   6.336  0.00  0.00    +0.000 A 
ATOM     29  N   UNL     1       2.113   7.997   5.210  0.00  0.00    +0.000 N 
ATOM     30  C   UNL     1       1.265   7.665   4.183  0.00  0.00    +0.000 A 
ATOM     31  O   UNL     1       1.661   7.029   3.208  0.00  0.00    +0.000 OA
ATOM     32  C   UNL     1      -0.105   8.106   4.364  0.00  0.00    +0.000 A 
ATOM     33  H   UNL     1       3.074   7.702   5.109  0.00  0.00    +0.000 HD
ENDBRANCH  20  23
ENDBRANCH  18  19
ENDBRANCH   4  18
TORSDOF 6
