REMARK  Name = 
REMARK  7 active torsions:
REMARK  status: ('A' for Active; 'I' for Inactive)
REMARK    1  A    between atoms: C_1  and  C_2
REMARK    2  A    between atoms: C_6  and  N_7
REMARK    3  A    between atoms: N_7  and  C_8
REMARK    4  A    between atoms: C_8  and  C_9
REMARK    5  A    between atoms: C_12  and  C_13
REMARK    6  A    between atoms: C_13  and  N_14
REMARK    7  A    between atoms: C_15  and  C_17
REMARK                            x       y       z     vdW  Elec       q    Type
REMARK                         _______ _______ _______ _____ _____    ______ ____
ROOT
ATOM      1  C   UNL     1      -3.419   4.108   0.028  0.00  0.00    +0.000 A 
ATOM      2  C   UNL     1      -2.453   5.118   0.038  0.00  0.00    +0.000 A 
ATOM      3  C   UNL     1      -2.845   6.456   0.071  0.00  0.00    +0.000 A 
ATOM      4  C   UNL     1      -4.203   6.762   0.063  0.00  0.00    +0.000 A 
ATOM      5  N   UNL     1      -5.161   5.800   0.054  0.00  0.00    +0.000 NA
ATOM      6  C   UNL     1      -4.750   4.509   0.034  0.00  0.00    +0.000 A 
ENDROOT
BRANCH   1   7
ATOM      7  C   UNL     1      -3.047   2.651   0.047  0.00  0.00    +0.000 C 
BRANCH   7   8
ATOM      8  N   UNL     1      -2.892   2.116  -1.282  0.00  0.00    +0.000 N 
ATOM      9  H   UNL     1      -2.961   2.714  -2.095  0.00  0.00    +0.000 HD
BRANCH   8  15
ATOM     10  C   UNL     1      -2.337  -1.092  -4.720  0.00  0.00    +0.000 C 
ATOM     11  C   UNL     1      -2.338  -0.794  -3.250  0.00  0.00    +0.000 A 
ATOM     12  C   UNL     1      -2.113  -1.807  -2.328  0.00  0.00    +0.000 A 
ATOM     13  C   UNL     1      -2.154  -1.486  -0.980  0.00  0.00    +0.000 A 
ATOM     14  C   UNL     1      -2.423  -0.173  -0.600  0.00  0.00    +0.000 A 
ATOM     15  C   UNL     1      -2.628   0.801  -1.571  0.00  0.00    +0.000 A 
ATOM     16  N   UNL     1      -2.583   0.492  -2.884  0.00  0.00    +0.000 NA
ENDBRANCH   8  15
ENDBRANCH   7   8
ENDBRANCH   1   7
BRANCH   4  17
ATOM     17  C   UNL     1      -4.662   8.201   0.065  0.00  0.00    +0.000 C 
BRANCH  17  18
ATOM     18  N   UNL     1      -4.867   8.719   1.399  0.00  0.00    +0.000 N 
ATOM     19  C   UNL     1      -3.929   9.466   2.057  0.00  0.00    +0.000 C 
ATOM     20  O   UNL     1      -2.837   9.731   1.560  0.00  0.00    +0.000 OA
ATOM     21  H   UNL     1      -5.647   8.317   1.910  0.00  0.00    +0.000 HD
BRANCH  19  22
ATOM     22  C   UNL     1      -4.324  10.000   3.366  0.00  0.00    +0.000 A 
ATOM     23  C   UNL     1      -3.702  11.140   3.863  0.00  0.00    +0.000 A 
ATOM     24  S   UNL     1      -4.302  11.642   5.378  0.00  0.00    +0.000 S 
ATOM     25  C   UNL     1      -5.387  10.334   5.445  0.00  0.00    +0.000 A 
ATOM     26  N   UNL     1      -6.201  10.151   6.521  0.00  0.00    +0.000 NA
ATOM     27  C   UNL     1      -6.950   9.104   6.448  0.00  0.00    +0.000 A 
ATOM     28  N   UNL     1      -6.974   8.227   5.397  0.00  0.00    +0.000 N 
ATOM     29  C   UNL     1      -6.204   8.398   4.270  0.00  0.00    +0.000 A 
ATOM     30  O   UNL     1      -6.312   7.640   3.314  0.00  0.00    +0.000 OA
ATOM     31  C   UNL     1      -5.312   9.539   4.313  0.00  0.00    +0.000 A 
ATOM     32  H   UNL     1      -7.604   7.441   5.392  0.00  0.00    +0.000 HD
ENDBRANCH  19  22
ENDBRANCH  17  18
ENDBRANCH   4  17
TORSDOF 6
