REMARK  Name = 
REMARK  8 active torsions:
REMARK  status: ('A' for Active; 'I' for Inactive)
REMARK    1  A    between atoms: C_1  and  C_2
REMARK    2  A    between atoms: C_2  and  N_3
REMARK    3  A    between atoms: C_2  and  C_25
REMARK    4  A    between atoms: N_3  and  C_4
REMARK    5  A    between atoms: C_4  and  C_5
REMARK    6  A    between atoms: C_8  and  C_9
REMARK    7  A    between atoms: C_9  and  N_10
REMARK    8  A    between atoms: C_11  and  C_13
REMARK                            x       y       z     vdW  Elec       q    Type
REMARK                         _______ _______ _______ _____ _____    ______ ____
ROOT
ATOM      1  C   UNL     1      -0.935  -0.890   1.088  0.00  0.00    +0.000 A 
ATOM      2  C   UNL     1      -1.576  -2.125   1.261  0.00  0.00    +0.000 A 
ATOM      3  C   UNL     1      -2.972  -2.211   1.265  0.00  0.00    +0.000 A 
ATOM      4  C   UNL     1      -3.755  -1.063   1.087  0.00  0.00    +0.000 A 
ATOM      5  C   UNL     1      -3.115   0.172   0.917  0.00  0.00    +0.000 A 
ATOM      6  C   UNL     1      -1.720   0.257   0.912  0.00  0.00    +0.000 A 
ENDROOT
BRANCH   1   7
ATOM      7  C   UNL     1       0.568  -0.774   1.211  0.00  0.00    +0.000 C 
BRANCH   7   8
ATOM      8  N   UNL     1       1.287  -1.668   0.301  0.00  0.00    +0.000 NA
ATOM      9  H   UNL     1       0.983  -1.462  -0.652  0.00  0.00    +0.000 HD
BRANCH   8  11
ATOM     10  C   UNL     1       3.329  -1.762   1.761  0.00  0.00    +0.000 C 
ATOM     11  C   UNL     1       2.747  -1.483   0.367  0.00  0.00    +0.000 C 
BRANCH  11  12
ATOM     12  C   UNL     1       3.447  -2.368  -0.660  0.00  0.00    +0.000 A 
ATOM     13  C   UNL     1       4.314  -1.798  -1.608  0.00  0.00    +0.000 A 
ATOM     14  C   UNL     1       5.000  -2.602  -2.523  0.00  0.00    +0.000 A 
ATOM     15  C   UNL     1       4.829  -3.984  -2.498  0.00  0.00    +0.000 A 
ATOM     16 CL   UNL     1       5.689  -4.972  -3.614  0.00  0.00    +0.000 Cl
ATOM     17  C   UNL     1       3.968  -4.568  -1.573  0.00  0.00    +0.000 A 
ATOM     18  C   UNL     1       3.279  -3.764  -0.661  0.00  0.00    +0.000 A 
ENDBRANCH  11  12
ENDBRANCH   8  11
ENDBRANCH   7   8
ENDBRANCH   1   7
BRANCH   4  19
ATOM     19  C   UNL     1      -5.257  -1.132   1.140  0.00  0.00    +0.000 C 
BRANCH  19  20
ATOM     20  N   UNL     1      -5.740  -0.918   2.482  0.00  0.00    +0.000 N 
ATOM     21  C   UNL     1      -7.076  -1.004   2.773  0.00  0.00    +0.000 C 
ATOM     22  O   UNL     1      -7.908  -1.311   1.922  0.00  0.00    +0.000 OA
ATOM     23  H   UNL     1      -5.112  -0.458   3.134  0.00  0.00    +0.000 HD
BRANCH  21  24
ATOM     24  C   UNL     1      -7.465  -0.770   4.170  0.00  0.00    +0.000 A 
ATOM     25  C   UNL     1      -8.656  -1.302   4.646  0.00  0.00    +0.000 A 
ATOM     26  S   UNL     1      -8.944  -0.969   6.293  0.00  0.00    +0.000 S 
ATOM     27  C   UNL     1      -7.509  -0.063   6.417  0.00  0.00    +0.000 A 
ATOM     28  N   UNL     1      -7.163   0.538   7.586  0.00  0.00    +0.000 NA
ATOM     29  C   UNL     1      -6.065   1.216   7.532  0.00  0.00    +0.000 A 
ATOM     30  N   UNL     1      -5.280   1.342   6.416  0.00  0.00    +0.000 N 
ATOM     31  C   UNL     1      -5.572   0.727   5.220  0.00  0.00    +0.000 A 
ATOM     32  O   UNL     1      -4.824   0.820   4.257  0.00  0.00    +0.000 OA
ATOM     33  C   UNL     1      -6.809  -0.034   5.223  0.00  0.00    +0.000 A 
ATOM     34  H   UNL     1      -4.423   1.875   6.445  0.00  0.00    +0.000 HD
ENDBRANCH  21  24
ENDBRANCH  19  20
ENDBRANCH   4  19
TORSDOF 7
