REMARK  Name = 
REMARK  6 active torsions:
REMARK  status: ('A' for Active; 'I' for Inactive)
REMARK    1  A    between atoms: C_2  and  C_3
REMARK    2  A    between atoms: C_6  and  O_7
REMARK    3  A    between atoms: O_7  and  C_8
REMARK    4  A    between atoms: C_8  and  C_9
REMARK    5  A    between atoms: C_9  and  C_12
REMARK    6  A    between atoms: C_16  and  C_17
REMARK                            x       y       z     vdW  Elec       q    Type
REMARK                         _______ _______ _______ _____ _____    ______ ____
ROOT
ATOM      1  C   UNL     1       5.924  -0.993   0.281  0.00  0.00    +0.000 C 
ATOM      2  F   UNL     1       6.328  -0.243  -0.789  0.00  0.00    +0.000 F 
ATOM      3  F   UNL     1       6.183  -0.198   1.371  0.00  0.00    +0.000 F 
ENDROOT
BRANCH   1   4
ATOM      4  C   UNL     1       6.680  -2.303   0.377  0.00  0.00    +0.000 A 
ATOM      5  C   UNL     1       7.091  -2.960  -0.792  0.00  0.00    +0.000 A 
ATOM      6  C   UNL     1       7.842  -4.133  -0.722  0.00  0.00    +0.000 A 
ATOM      7  C   UNL     1       8.219  -4.644   0.520  0.00  0.00    +0.000 A 
ATOM      8  C   UNL     1       7.837  -3.993   1.699  0.00  0.00    +0.000 A 
ATOM      9  C   UNL     1       7.033  -2.847   1.626  0.00  0.00    +0.000 A 
BRANCH   8  10
ATOM     10  C   UNL     1       8.349  -4.528   2.991  0.00  0.00    +0.000 C 
ATOM     11  N   UNL     1       8.473  -3.652   4.035  0.00  0.00    +0.000 N 
ATOM     12  O   UNL     1       8.704  -5.694   3.108  0.00  0.00    +0.000 OA
ATOM     13  H   UNL     1       8.384  -2.651   3.937  0.00  0.00    +0.000 HD
ATOM     14  H   UNL     1       8.961  -3.999   4.851  0.00  0.00    +0.000 HD
ENDBRANCH   8  10
ENDBRANCH   1   4
BRANCH   1  15
ATOM     15  C   UNL     1       4.400  -1.160   0.213  0.00  0.00    +0.000 C 
BRANCH  15  16
ATOM     16  O   UNL     1       3.974  -1.848  -0.969  0.00  0.00    +0.000 OA
BRANCH  16  20
ATOM     17  C   UNL     1      -0.097  -2.478  -1.652  0.00  0.00    +0.000 A 
ATOM     18  C   UNL     1       0.289  -1.816  -0.482  0.00  0.00    +0.000 A 
ATOM     19  C   UNL     1       1.644  -1.587  -0.214  0.00  0.00    +0.000 A 
ATOM     20  C   UNL     1       2.622  -2.019  -1.113  0.00  0.00    +0.000 A 
ATOM     21  C   UNL     1       2.231  -2.688  -2.276  0.00  0.00    +0.000 A 
ATOM     22  C   UNL     1       0.878  -2.922  -2.544  0.00  0.00    +0.000 A 
BRANCH  17  24
ATOM     23  N   UNL     1      -2.613  -2.872  -2.134  0.00  0.00    +0.000 NA
ATOM     24  C   UNL     1      -1.484  -2.701  -1.921  0.00  0.00    +0.000 C 
ENDBRANCH  17  24
ENDBRANCH  16  20
ENDBRANCH  15  16
ENDBRANCH   1  15
TORSDOF 6
