REMARK  Name = 
REMARK  4 active torsions:
REMARK  status: ('A' for Active; 'I' for Inactive)
REMARK    1  A    between atoms: C_2  and  C_4
REMARK    2  A    between atoms: C_7  and  N_8
REMARK    3  A    between atoms: N_8  and  C_9
REMARK    4  A    between atoms: C_9  and  C_10
REMARK                            x       y       z     vdW  Elec       q    Type
REMARK                         _______ _______ _______ _____ _____    ______ ____
ROOT
ATOM      1  C   UNL     1       2.920   1.488   0.455  0.00  0.00    +0.000 A 
ATOM      2  C   UNL     1       4.279   1.221   0.452  0.00  0.00    +0.000 A 
ATOM      3  C   UNL     1       5.118   2.003   1.252  0.00  0.00    +0.000 A 
ATOM      4  C   UNL     1       4.589   3.027   2.051  0.00  0.00    +0.000 A 
ATOM      5  C   UNL     1       3.207   3.197   1.974  0.00  0.00    +0.000 A 
ATOM      6  N   UNL     1       2.352   2.468   1.209  0.00  0.00    +0.000 NA
ENDROOT
BRANCH   1   8
ATOM      7  N   UNL     1       0.666   1.038  -0.400  0.00  0.00    +0.000 N 
ATOM      8  C   UNL     1       1.993   0.715  -0.428  0.00  0.00    +0.000 C 
ATOM      9  O   UNL     1       2.398  -0.175  -1.187  0.00  0.00    +0.000 OA
ATOM     10  H   UNL     1       0.070   0.576  -1.067  0.00  0.00    +0.000 HD
ATOM     11  H   UNL     1       0.358   1.914   0.011  0.00  0.00    +0.000 HD
ENDBRANCH   1   8
BRANCH   4  12
ATOM     12  N   UNL     1       5.440   3.852   2.800  0.00  0.00    +0.000 N 
ATOM     13  H   UNL     1       5.964   4.514   2.225  0.00  0.00    +0.000 HD
BRANCH  12  14
ATOM     14  C   UNL     1       4.911   4.448   4.026  0.00  0.00    +0.000 C 
BRANCH  14  15
ATOM     15  C   UNL     1       6.031   4.744   4.995  0.00  0.00    +0.000 A 
ATOM     16  C   UNL     1       6.237   6.052   5.462  0.00  0.00    +0.000 A 
ATOM     17  C   UNL     1       7.191   6.311   6.447  0.00  0.00    +0.000 A 
ATOM     18  C   UNL     1       7.952   5.268   6.972  0.00  0.00    +0.000 A 
ATOM     19  C   UNL     1       7.779   3.970   6.494  0.00  0.00    +0.000 A 
ATOM     20  C   UNL     1       6.827   3.709   5.506  0.00  0.00    +0.000 A 
ENDBRANCH  14  15
ENDBRANCH  12  14
ENDBRANCH   4  12
TORSDOF 4
