REMARK  Name = 
REMARK  4 active torsions:
REMARK  status: ('A' for Active; 'I' for Inactive)
REMARK    1  A    between atoms: C_2  and  C_3
REMARK    2  A    between atoms: N_8  and  C_9
REMARK    3  A    between atoms: C_9  and  C_10
REMARK    4  A    between atoms: C_14  and  C_15
REMARK                            x       y       z     vdW  Elec       q    Type
REMARK                         _______ _______ _______ _____ _____    ______ ____
ROOT
ATOM      1  C   UNL     1      -4.237  -3.778  -0.030  0.00  0.00    +0.000 A 
ATOM      2  C   UNL     1      -3.432  -4.862  -0.396  0.00  0.00    +0.000 A 
ATOM      3  C   UNL     1      -3.912  -6.165  -0.277  0.00  0.00    +0.000 A 
ATOM      4  C   UNL     1      -5.199  -6.400   0.215  0.00  0.00    +0.000 A 
ATOM      5  C   UNL     1      -6.040  -5.340   0.599  0.00  0.00    +0.000 A 
ATOM      6  C   UNL     1      -5.542  -4.031   0.436  0.00  0.00    +0.000 A 
ENDROOT
BRANCH   5   7
ATOM      7  C   UNL     1      -7.367  -5.590   1.205  0.00  0.00    +0.000 A 
ATOM      8  C   UNL     1      -7.597  -6.676   2.062  0.00  0.00    +0.000 A 
ATOM      9  N   UNL     1      -8.772  -6.953   2.687  0.00  0.00    +0.000 NA
ATOM     10  C   UNL     1      -9.786  -6.092   2.460  0.00  0.00    +0.000 A 
ATOM     11  C   UNL     1      -9.672  -4.989   1.636  0.00  0.00    +0.000 A 
ATOM     12  F   UNL     1     -10.710  -4.163   1.457  0.00  0.00    +0.000 F 
ATOM     13  C   UNL     1      -8.462  -4.738   0.999  0.00  0.00    +0.000 A 
ENDBRANCH   5   7
BRANCH   1  14
ATOM     14  C   UNL     1      -3.712  -2.358  -0.106  0.00  0.00    +0.000 C 
BRANCH  14  20
ATOM     15  C   UNL     1      -3.545   1.475  -3.025  0.00  0.00    +0.000 A 
ATOM     16  C   UNL     1      -2.938   2.189  -2.001  0.00  0.00    +0.000 A 
ATOM     17  C   UNL     1      -2.678   1.516  -0.823  0.00  0.00    +0.000 A 
ATOM     18  N   UNL     1      -2.991   0.217  -0.613  0.00  0.00    +0.000 NA
ATOM     19  C   UNL     1      -3.580  -0.474  -1.610  0.00  0.00    +0.000 A 
ATOM     20  N   UNL     1      -3.992  -1.802  -1.422  0.00  0.00    +0.000 N 
ATOM     21  C   UNL     1      -3.864   0.129  -2.832  0.00  0.00    +0.000 A 
ATOM     22  H   UNL     1      -3.633  -2.390  -2.167  0.00  0.00    +0.000 HD
BRANCH  15  24
ATOM     23  N   UNL     1      -4.107   2.636  -5.274  0.00  0.00    +0.000 NA
ATOM     24  C   UNL     1      -3.858   2.116  -4.269  0.00  0.00    +0.000 C 
ENDBRANCH  15  24
ENDBRANCH  14  20
ENDBRANCH   1  14
TORSDOF 4
