REMARK  Name = 
REMARK  7 active torsions:
REMARK  status: ('A' for Active; 'I' for Inactive)
REMARK    1  A    between atoms: C_1  and  C_2
REMARK    2  A    between atoms: C_2  and  C_3
REMARK    3  A    between atoms: C_2  and  C_4
REMARK    4  A    between atoms: C_2  and  C_5
REMARK    5  A    between atoms: C_8  and  C_9
REMARK    6  A    between atoms: N_16  and  C_17
REMARK    7  A    between atoms: C_17  and  C_18
REMARK                            x       y       z     vdW  Elec       q    Type
REMARK                         _______ _______ _______ _____ _____    ______ ____
ROOT
ATOM      1  C   UNL     1       2.937  -1.471  -0.275  0.00  0.00    +0.000 A 
ATOM      2  N   UNL     1       2.375  -2.621   0.044  0.00  0.00    +0.000 NA
ATOM      3  C   UNL     1       3.194  -3.621  -0.397  0.00  0.00    +0.000 A 
ATOM      4  C   UNL     1       3.014  -5.003  -0.323  0.00  0.00    +0.000 A 
ATOM      5  C   UNL     1       4.019  -5.766  -0.894  0.00  0.00    +0.000 A 
ATOM      6  N   UNL     1       5.133  -5.253  -1.486  0.00  0.00    +0.000 NA
ATOM      7  C   UNL     1       5.305  -3.908  -1.537  0.00  0.00    +0.000 A 
ATOM      8  C   UNL     1       4.326  -3.087  -0.991  0.00  0.00    +0.000 A 
ATOM      9  N   UNL     1       4.174  -1.713  -0.874  0.00  0.00    +0.000 N 
ENDROOT
BRANCH   4  10
ATOM     10  C   UNL     1       1.833  -5.614   0.304  0.00  0.00    +0.000 C 
ATOM     11  N   UNL     1       0.899  -4.770   0.839  0.00  0.00    +0.000 N 
ATOM     12  O   UNL     1       1.691  -6.827   0.343  0.00  0.00    +0.000 OA
ATOM     13  H   UNL     1       1.020  -3.758   0.795  0.00  0.00    +0.000 HD
ATOM     14  H   UNL     1       0.073  -5.149   1.280  0.00  0.00    +0.000 HD
ENDBRANCH   4  10
BRANCH   1  16
ATOM     15  C   UNL     1       0.875  -0.477   0.740  0.00  0.00    +0.000 C 
ATOM     16  C   UNL     1       2.222  -0.154   0.023  0.00  0.00    +0.000 C 
ATOM     17  C   UNL     1       1.844   0.598  -1.261  0.00  0.00    +0.000 C 
ATOM     18  C   UNL     1       3.024   0.729   0.984  0.00  0.00    +0.000 C 
ENDBRANCH   1  16
BRANCH   9  19
ATOM     19  C   UNL     1       5.147  -0.762  -1.412  0.00  0.00    +0.000 C 
BRANCH  19  20
ATOM     20  C   UNL     1       6.242  -0.314  -0.465  0.00  0.00    +0.000 A 
ATOM     21  C   UNL     1       6.323  -0.699   0.881  0.00  0.00    +0.000 A 
ATOM     22  C   UNL     1       7.230  -0.080   1.746  0.00  0.00    +0.000 A 
ATOM     23  C   UNL     1       8.095   0.904   1.273  0.00  0.00    +0.000 A 
ATOM     24  C   UNL     1       8.095   1.231  -0.079  0.00  0.00    +0.000 A 
ATOM     25  C   UNL     1       7.182   0.621  -0.942  0.00  0.00    +0.000 A 
ENDBRANCH  19  20
ENDBRANCH   9  19
TORSDOF 4
