REMARK  Name = 
REMARK  6 active torsions:
REMARK  status: ('A' for Active; 'I' for Inactive)
REMARK    1  A    between atoms: C_2  and  C_3
REMARK    2  A    between atoms: C_6  and  C_7
REMARK    3  A    between atoms: C_11  and  C_12
REMARK    4  A    between atoms: C_12  and  N_13
REMARK    5  A    between atoms: N_13  and  C_14
REMARK    6  A    between atoms: C_17  and  C_18
REMARK                            x       y       z     vdW  Elec       q    Type
REMARK                         _______ _______ _______ _____ _____    ______ ____
ROOT
ATOM      1  C   UNL     1       6.346   1.196   2.419  0.00  0.00    +0.000 C 
ATOM      2  C   UNL     1       7.286   2.384   2.392  0.00  0.00    +0.000 C 
ATOM      3  C   UNL     1       7.826   1.049   2.781  0.00  0.00    +0.000 C 
ENDROOT
BRANCH   1   8
ATOM      4  C   UNL     1       6.026  -1.150  -0.469  0.00  0.00    +0.000 A 
ATOM      5  C   UNL     1       5.189  -0.473  -1.353  0.00  0.00    +0.000 A 
ATOM      6  C   UNL     1       4.691   0.773  -0.995  0.00  0.00    +0.000 A 
ATOM      7  C   UNL     1       5.053   1.317   0.229  0.00  0.00    +0.000 A 
ATOM      8  C   UNL     1       5.899   0.606   1.079  0.00  0.00    +0.000 A 
ATOM      9  N   UNL     1       6.353  -0.631   0.739  0.00  0.00    +0.000 NA
BRANCH   4  13
ATOM     10  C   UNL     1       7.823  -4.955  -1.389  0.00  0.00    +0.000 A 
ATOM     11  C   UNL     1       7.596  -4.023  -2.402  0.00  0.00    +0.000 A 
ATOM     12  C   UNL     1       7.013  -2.787  -2.101  0.00  0.00    +0.000 A 
ATOM     13  C   UNL     1       6.638  -2.454  -0.787  0.00  0.00    +0.000 A 
ATOM     14  C   UNL     1       6.893  -3.403   0.222  0.00  0.00    +0.000 A 
ATOM     15  C   UNL     1       7.475  -4.643  -0.074  0.00  0.00    +0.000 A 
BRANCH  10  17
ATOM     16  N   UNL     1       8.890  -7.251  -1.958  0.00  0.00    +0.000 NA
ATOM     17  C   UNL     1       8.413  -6.220  -1.698  0.00  0.00    +0.000 C 
ENDBRANCH  10  17
ENDBRANCH   4  13
ENDBRANCH   1   8
BRANCH   1  18
ATOM     18  N   UNL     1       5.437   0.883   3.541  0.00  0.00    +0.000 N 
ATOM     19  H   UNL     1       5.269  -0.120   3.618  0.00  0.00    +0.000 HD
BRANCH  18  20
ATOM     20  C   UNL     1       4.276   1.607   3.881  0.00  0.00    +0.000 A 
ATOM     21  C   UNL     1       3.992   2.897   3.432  0.00  0.00    +0.000 A 
ATOM     22  C   UNL     1       2.867   3.589   3.907  0.00  0.00    +0.000 A 
ATOM     23  C   UNL     1       2.022   3.006   4.858  0.00  0.00    +0.000 A 
ATOM     24  C   UNL     1       2.308   1.726   5.333  0.00  0.00    +0.000 A 
ATOM     25  C   UNL     1       3.431   1.046   4.854  0.00  0.00    +0.000 A 
BRANCH  23  26
ATOM     26  C   UNL     1       0.884   3.800   5.391  0.00  0.00    +0.000 C 
ATOM     27  N   UNL     1      -0.190   3.115   5.887  0.00  0.00    +0.000 N 
ATOM     28  O   UNL     1       0.897   5.024   5.378  0.00  0.00    +0.000 OA
ATOM     29  H   UNL     1      -0.318   2.119   5.784  0.00  0.00    +0.000 HD
ATOM     30  H   UNL     1      -0.977   3.667   6.204  0.00  0.00    +0.000 HD
ENDBRANCH  23  26
ENDBRANCH  18  20
ENDBRANCH   1  18
TORSDOF 6
