REMARK  Name = 
REMARK  6 active torsions:
REMARK  status: ('A' for Active; 'I' for Inactive)
REMARK    1  A    between atoms: C_1  and  C_2
REMARK    2  A    between atoms: C_5  and  C_6
REMARK    3  A    between atoms: C_6  and  N_7
REMARK    4  A    between atoms: C_11  and  C_12
REMARK    5  A    between atoms: C_12  and  N_13
REMARK    6  A    between atoms: C_14  and  C_16
REMARK                            x       y       z     vdW  Elec       q    Type
REMARK                         _______ _______ _______ _____ _____    ______ ____
ROOT
ATOM      1  N   UNL     1      -3.717   1.561   0.079  0.00  0.00    +0.000 N 
ATOM      2  C   UNL     1      -5.104   1.780  -0.041  0.00  0.00    +0.000 A 
ATOM      3  C   UNL     1      -5.960   1.089   0.812  0.00  0.00    +0.000 A 
ATOM      4  C   UNL     1      -7.335   1.334   0.758  0.00  0.00    +0.000 A 
ATOM      5  C   UNL     1      -7.827   2.321  -0.095  0.00  0.00    +0.000 A 
ATOM      6  C   UNL     1      -6.900   2.967  -0.899  0.00  0.00    +0.000 A 
ATOM      7  N   UNL     1      -5.570   2.711  -0.894  0.00  0.00    +0.000 NA
ATOM      8  H   UNL     1      -3.397   2.174   0.830  0.00  0.00    +0.000 HD
ENDROOT
BRANCH   1   9
ATOM      9  C   UNL     1      -2.990   1.887  -1.155  0.00  0.00    +0.000 C 
BRANCH   9  14
ATOM     10  C   UNL     1       2.737   1.374  -0.582  0.00  0.00    +0.000 C 
ATOM     11  C   UNL     1       1.250   1.451  -0.713  0.00  0.00    +0.000 A 
ATOM     12  C   UNL     1       0.427   0.354  -0.463  0.00  0.00    +0.000 A 
ATOM     13  C   UNL     1      -0.956   0.481  -0.600  0.00  0.00    +0.000 A 
ATOM     14  C   UNL     1      -1.490   1.711  -0.978  0.00  0.00    +0.000 A 
ATOM     15  N   UNL     1      -0.704   2.790  -1.229  0.00  0.00    +0.000 NA
ATOM     16  C   UNL     1       0.633   2.635  -1.097  0.00  0.00    +0.000 A 
ENDBRANCH   9  14
ENDBRANCH   1   9
BRANCH   5  17
ATOM     17  C   UNL     1      -9.287   2.666  -0.164  0.00  0.00    +0.000 C 
BRANCH  17  18
ATOM     18  N   UNL     1      -9.969   1.882  -1.158  0.00  0.00    +0.000 N 
ATOM     19  C   UNL     1     -11.286   2.111  -1.480  0.00  0.00    +0.000 C 
ATOM     20  O   UNL     1     -11.933   3.020  -0.972  0.00  0.00    +0.000 OA
ATOM     21  H   UNL     1      -9.555   0.987  -1.400  0.00  0.00    +0.000 HD
BRANCH  19  22
ATOM     22  C   UNL     1     -11.861   1.241  -2.515  0.00  0.00    +0.000 A 
ATOM     23  C   UNL     1     -12.942   1.680  -3.271  0.00  0.00    +0.000 A 
ATOM     24  S   UNL     1     -13.458   0.553  -4.443  0.00  0.00    +0.000 S 
ATOM     25  C   UNL     1     -12.289  -0.580  -3.948  0.00  0.00    +0.000 A 
ATOM     26  N   UNL     1     -12.207  -1.805  -4.535  0.00  0.00    +0.000 NA
ATOM     27  C   UNL     1     -11.286  -2.568  -4.050  0.00  0.00    +0.000 A 
ATOM     28  N   UNL     1     -10.433  -2.219  -3.036  0.00  0.00    +0.000 N 
ATOM     29  C   UNL     1     -10.461  -0.984  -2.431  0.00  0.00    +0.000 A 
ATOM     30  O   UNL     1      -9.652  -0.686  -1.561  0.00  0.00    +0.000 OA
ATOM     31  C   UNL     1     -11.494  -0.093  -2.927  0.00  0.00    +0.000 A 
ATOM     32  H   UNL     1      -9.721  -2.856  -2.713  0.00  0.00    +0.000 HD
ENDBRANCH  19  22
ENDBRANCH  17  18
ENDBRANCH   5  17
TORSDOF 5
