REMARK  Name = 
REMARK  10 active torsions:
REMARK  status: ('A' for Active; 'I' for Inactive)
REMARK    1  A    between atoms: C_1  and  O_2
REMARK    2  A    between atoms: O_2  and  C_3
REMARK    3  A    between atoms: C_10  and  C_11
REMARK    4  A    between atoms: N_13  and  C_14
REMARK    5  A    between atoms: C_14  and  C_15
REMARK    6  A    between atoms: C_18  and  C_19
REMARK    7  A    between atoms: C_19  and  N_20
REMARK    8  A    between atoms: N_20  and  C_21
REMARK    9  A    between atoms: N_20  and  C_22
REMARK   10  A    between atoms: C_22  and  C_23
REMARK                            x       y       z     vdW  Elec       q    Type
REMARK                         _______ _______ _______ _____ _____    ______ ____
ROOT
ATOM      1  C   UNL     1       2.860   1.750  -3.034  0.00  0.00    +0.000 C 
ENDROOT
BRANCH   1   2
ATOM      2  C   UNL     1       1.739   0.778  -3.309  0.00  0.00    +0.000 A 
ATOM      3  C   UNL     1       2.003  -0.587  -3.480  0.00  0.00    +0.000 A 
ATOM      4  C   UNL     1       0.960  -1.495  -3.694  0.00  0.00    +0.000 A 
ATOM      5  C   UNL     1      -0.371  -1.057  -3.732  0.00  0.00    +0.000 A 
ATOM      6  C   UNL     1      -0.630   0.315  -3.620  0.00  0.00    +0.000 A 
ATOM      7  C   UNL     1       0.415   1.224  -3.420  0.00  0.00    +0.000 A 
BRANCH   5   8
ATOM      8  C   UNL     1      -1.516  -2.047  -3.870  0.00  0.00    +0.000 C 
BRANCH   8   9
ATOM      9  N   UNL     1      -1.546  -3.069  -2.801  0.00  0.00    +0.000 NA
ATOM     10  C   UNL     1      -1.750  -2.459  -1.480  0.00  0.00    +0.000 C 
BRANCH   9  11
ATOM     11  C   UNL     1      -2.640  -4.039  -3.052  0.00  0.00    +0.000 C 
BRANCH  11  12
ATOM     12  C   UNL     1      -2.487  -4.861  -4.321  0.00  0.00    +0.000 A 
ATOM     13  C   UNL     1      -1.357  -5.655  -4.514  0.00  0.00    +0.000 A 
ATOM     14  C   UNL     1      -1.273  -6.437  -5.663  0.00  0.00    +0.000 A 
ATOM     15  C   UNL     1      -2.307  -6.399  -6.590  0.00  0.00    +0.000 A 
ATOM     16  C   UNL     1      -3.382  -5.565  -6.336  0.00  0.00    +0.000 A 
ATOM     17  N   UNL     1      -3.496  -4.799  -5.228  0.00  0.00    +0.000 NA
ENDBRANCH  11  12
ENDBRANCH   9  11
ENDBRANCH   8   9
ENDBRANCH   5   8
ENDBRANCH   1   2
BRANCH   1  20
ATOM     18  C   UNL     1       4.499   3.098  -4.293  0.00  0.00    +0.000 C 
ATOM     19  O   UNL     1       5.036   3.497  -3.261  0.00  0.00    +0.000 OA
ATOM     20  N   UNL     1       3.436   2.243  -4.258  0.00  0.00    +0.000 N 
ATOM     21  H   UNL     1       2.963   1.995  -5.116  0.00  0.00    +0.000 HD
BRANCH  18  29
ATOM     22  C   UNL     1       3.559   2.281  -7.504  0.00  0.00    +0.000 A 
ATOM     23  N   UNL     1       3.422   2.117  -8.835  0.00  0.00    +0.000 NA
ATOM     24  C   UNL     1       4.261   2.770  -9.640  0.00  0.00    +0.000 A 
ATOM     25  N   UNL     1       5.242   3.591  -9.275  0.00  0.00    +0.000 NA
ATOM     26  C   UNL     1       5.342   3.733  -7.939  0.00  0.00    +0.000 A 
ATOM     27  S   UNL     1       6.532   4.753  -7.294  0.00  0.00    +0.000 S 
ATOM     28  C   UNL     1       6.047   4.399  -5.705  0.00  0.00    +0.000 A 
ATOM     29  C   UNL     1       4.983   3.510  -5.624  0.00  0.00    +0.000 A 
ATOM     30  C   UNL     1       4.553   3.121  -6.971  0.00  0.00    +0.000 A 
BRANCH  22  32
ATOM     31  C   UNL     1       2.105   0.467  -7.274  0.00  0.00    +0.000 C 
ATOM     32  O   UNL     1       2.654   1.644  -6.683  0.00  0.00    +0.000 OA
ENDBRANCH  22  32
ENDBRANCH  18  29
ENDBRANCH   1  20
TORSDOF 8
