REMARK  Name = 
REMARK  8 active torsions:
REMARK  status: ('A' for Active; 'I' for Inactive)
REMARK    1  A    between atoms: C_2  and  C_3
REMARK    2  A    between atoms: C_3  and  N_4
REMARK    3  A    between atoms: C_3  and  C_26
REMARK    4  A    between atoms: N_4  and  C_5
REMARK    5  A    between atoms: C_5  and  C_6
REMARK    6  A    between atoms: C_9  and  C_10
REMARK    7  A    between atoms: C_10  and  N_11
REMARK    8  A    between atoms: C_12  and  C_14
REMARK                            x       y       z     vdW  Elec       q    Type
REMARK                         _______ _______ _______ _____ _____    ______ ____
ROOT
ATOM      1  C   UNL     1       0.244   0.702   1.229  0.00  0.00    +0.000 A 
ATOM      2  C   UNL     1      -0.523  -0.391   0.796  0.00  0.00    +0.000 A 
ATOM      3  C   UNL     1      -1.920  -0.333   0.798  0.00  0.00    +0.000 A 
ATOM      4  C   UNL     1      -2.582   0.823   1.230  0.00  0.00    +0.000 A 
ATOM      5  C   UNL     1      -1.819   1.904   1.689  0.00  0.00    +0.000 A 
ATOM      6  C   UNL     1      -0.421   1.847   1.685  0.00  0.00    +0.000 A 
ENDROOT
BRANCH   1   7
ATOM      7  C   UNL     1       1.754   0.619   1.252  0.00  0.00    +0.000 C 
BRANCH   7   8
ATOM      8  N   UNL     1       2.288   0.311  -0.077  0.00  0.00    +0.000 NA
ATOM      9  H   UNL     1       1.989   1.041  -0.723  0.00  0.00    +0.000 HD
BRANCH   8  10
ATOM     10  C   UNL     1       3.765   0.233  -0.105  0.00  0.00    +0.000 C 
BRANCH  10  11
ATOM     11  C   UNL     1       4.226  -0.049  -1.534  0.00  0.00    +0.000 A 
ATOM     12  C   UNL     1       3.824  -1.221  -2.203  0.00  0.00    +0.000 A 
ATOM     13  C   UNL     1       4.252  -1.488  -3.505  0.00  0.00    +0.000 A 
ATOM     14  C   UNL     1       5.085  -0.586  -4.164  0.00  0.00    +0.000 A 
ATOM     15  C   UNL     1       5.485   0.580  -3.517  0.00  0.00    +0.000 A 
ATOM     16 CL   UNL     1       6.506   1.699  -4.335  0.00  0.00    +0.000 Cl
ATOM     17  C   UNL     1       5.066   0.852  -2.212  0.00  0.00    +0.000 A 
ENDBRANCH  10  11
BRANCH  10  19
ATOM     18  N   UNL     1       4.757  -1.550   1.592  0.00  0.00    +0.000 NA
ATOM     19  C   UNL     1       4.333  -0.780   0.829  0.00  0.00    +0.000 C 
ENDBRANCH  10  19
ENDBRANCH   8  10
ENDBRANCH   7   8
ENDBRANCH   1   7
BRANCH   4  20
ATOM     20  C   UNL     1      -4.088   0.891   1.251  0.00  0.00    +0.000 C 
BRANCH  20  21
ATOM     21  N   UNL     1      -4.609   0.438   2.515  0.00  0.00    +0.000 N 
ATOM     22  C   UNL     1      -5.958   0.337   2.738  0.00  0.00    +0.000 C 
ATOM     23  O   UNL     1      -6.784   0.592   1.865  0.00  0.00    +0.000 OA
ATOM     24  H   UNL     1      -3.971   0.442   3.304  0.00  0.00    +0.000 HD
BRANCH  22  25
ATOM     25  C   UNL     1      -6.368  -0.156   4.060  0.00  0.00    +0.000 A 
ATOM     26  C   UNL     1      -7.613  -0.750   4.216  0.00  0.00    +0.000 A 
ATOM     27  S   UNL     1      -7.908  -1.314   5.799  0.00  0.00    +0.000 S 
ATOM     28  C   UNL     1      -6.402  -0.740   6.343  0.00  0.00    +0.000 A 
ATOM     29  N   UNL     1      -6.026  -0.884   7.643  0.00  0.00    +0.000 NA
ATOM     30  C   UNL     1      -4.870  -0.383   7.923  0.00  0.00    +0.000 A 
ATOM     31  N   UNL     1      -4.053   0.246   7.020  0.00  0.00    +0.000 N 
ATOM     32  C   UNL     1      -4.380   0.396   5.694  0.00  0.00    +0.000 A 
ATOM     33  O   UNL     1      -3.611   0.937   4.906  0.00  0.00    +0.000 OA
ATOM     34  C   UNL     1      -5.675  -0.144   5.327  0.00  0.00    +0.000 A 
ATOM     35  H   UNL     1      -3.155   0.611   7.302  0.00  0.00    +0.000 HD
ENDBRANCH  22  25
ENDBRANCH  20  21
ENDBRANCH   4  20
TORSDOF 8
