REMARK  Name = 
REMARK  7 active torsions:
REMARK  status: ('A' for Active; 'I' for Inactive)
REMARK    1  A    between atoms: N_1  and  C_2
REMARK    2  A    between atoms: C_2  and  C_3
REMARK    3  A    between atoms: C_6  and  C_7
REMARK    4  A    between atoms: C_7  and  O_8
REMARK    5  A    between atoms: O_8  and  C_9
REMARK    6  A    between atoms: C_12  and  C_13
REMARK    7  A    between atoms: C_17  and  N_18
REMARK                            x       y       z     vdW  Elec       q    Type
REMARK                         _______ _______ _______ _____ _____    ______ ____
ROOT
ATOM      1  C   UNL     1       3.325   7.076  -2.962  0.00  0.00    +0.000 A 
ATOM      2  N   UNL     1       4.571   7.227  -3.477  0.00  0.00    +0.000 NA
ATOM      3  C   UNL     1       4.924   8.461  -3.919  0.00  0.00    +0.000 A 
ATOM      4  C   UNL     1       4.089   9.571  -3.885  0.00  0.00    +0.000 A 
ATOM      5  C   UNL     1       2.800   9.394  -3.372  0.00  0.00    +0.000 A 
ATOM      6  C   UNL     1       2.430   8.130  -2.903  0.00  0.00    +0.000 A 
ENDROOT
BRANCH   4   7
ATOM      7  C   UNL     1       4.507  10.914  -4.349  0.00  0.00    +0.000 C 
ATOM      8  N   UNL     1       5.784  11.100  -4.796  0.00  0.00    +0.000 N 
ATOM      9  O   UNL     1       3.720  11.853  -4.321  0.00  0.00    +0.000 OA
ATOM     10  H   UNL     1       6.518  10.410  -4.833  0.00  0.00    +0.000 HD
ATOM     11  H   UNL     1       6.027  12.042  -5.081  0.00  0.00    +0.000 HD
ENDBRANCH   4   7
BRANCH   6  12
ATOM     12  N   UNL     1       1.122   7.943  -2.337  0.00  0.00    +0.000 N 
ATOM     13  O   UNL     1       1.059   7.587  -1.153  0.00  0.00    +0.000 OA
ATOM     14  O   UNL     1       0.155   8.216  -3.061  0.00  0.00    +0.000 OA
ENDBRANCH   6  12
BRANCH   1  15
ATOM     15  O   UNL     1       2.950   5.827  -2.529  0.00  0.00    +0.000 OA
BRANCH  15  16
ATOM     16  C   UNL     1       4.036   4.895  -2.500  0.00  0.00    +0.000 C 
BRANCH  16  20
ATOM     17  C   UNL     1       2.901   1.162  -0.613  0.00  0.00    +0.000 A 
ATOM     18  C   UNL     1       3.861   1.191  -1.634  0.00  0.00    +0.000 A 
ATOM     19  C   UNL     1       4.214   2.396  -2.246  0.00  0.00    +0.000 A 
ATOM     20  C   UNL     1       3.605   3.598  -1.857  0.00  0.00    +0.000 A 
ATOM     21  C   UNL     1       2.662   3.572  -0.822  0.00  0.00    +0.000 A 
ATOM     22  C   UNL     1       2.308   2.366  -0.212  0.00  0.00    +0.000 A 
BRANCH  17  23
ATOM     23  C   UNL     1       2.499  -0.143   0.024  0.00  0.00    +0.000 C 
BRANCH  23  24
ATOM     24  N   UNL     1       3.636  -0.820   0.638  0.00  0.00    +0.000 NA
ATOM     25  H   UNL     1       3.303  -1.646   1.130  0.00  0.00    +0.000 HD
ATOM     26  H   UNL     1       4.036  -0.204   1.345  0.00  0.00    +0.000 HD
ENDBRANCH  23  24
ENDBRANCH  17  23
ENDBRANCH  16  20
ENDBRANCH  15  16
ENDBRANCH   1  15
TORSDOF 7
