REMARK  Name = 
REMARK  10 active torsions:
REMARK  status: ('A' for Active; 'I' for Inactive)
REMARK    1  A    between atoms: C_1  and  O_2
REMARK    2  A    between atoms: O_2  and  C_3
REMARK    3  A    between atoms: C_3  and  C_5
REMARK    4  A    between atoms: C_8  and  N_9
REMARK    5  A    between atoms: N_9  and  C_10
REMARK    6  A    between atoms: C_10  and  C_11
REMARK    7  A    between atoms: C_11  and  C_12
REMARK    8  A    between atoms: C_11  and  C_13
REMARK    9  A    between atoms: C_11  and  C_14
REMARK   10  A    between atoms: C_17  and  O_18
REMARK                            x       y       z     vdW  Elec       q    Type
REMARK                         _______ _______ _______ _____ _____    ______ ____
ROOT
ATOM      1  N   UNL     1       8.826   1.251   0.433  0.00  0.00    +0.000 N 
ATOM      2  H   UNL     1       9.161   1.210   1.392  0.00  0.00    +0.000 HD
ENDROOT
BRANCH   1   6
ATOM      3  C   UNL     1       4.677   1.497   0.273  0.00  0.00    +0.000 A 
ATOM      4  C   UNL     1       5.318   0.801  -0.745  0.00  0.00    +0.000 A 
ATOM      5  C   UNL     1       6.711   0.682  -0.702  0.00  0.00    +0.000 A 
ATOM      6  C   UNL     1       7.437   1.227   0.357  0.00  0.00    +0.000 A 
ATOM      7  C   UNL     1       6.685   1.906   1.323  0.00  0.00    +0.000 A 
ATOM      8  N   UNL     1       5.340   2.048   1.319  0.00  0.00    +0.000 NA
BRANCH   3   9
ATOM      9  C   UNL     1       3.195   1.688   0.206  0.00  0.00    +0.000 C 
ATOM     10  O   UNL     1       2.487   1.231  -0.679  0.00  0.00    +0.000 OA
BRANCH   9  12
ATOM     11  C   UNL     1       1.380   2.740   1.256  0.00  0.00    +0.000 C 
ATOM     12  O   UNL     1       2.775   2.451   1.249  0.00  0.00    +0.000 OA
ENDBRANCH   9  12
ENDBRANCH   3   9
ENDBRANCH   1   6
BRANCH   1  13
ATOM     13  C   UNL     1       9.667   0.568  -0.551  0.00  0.00    +0.000 C 
BRANCH  13  14
ATOM     14  C   UNL     1      11.194   0.701  -0.234  0.00  0.00    +0.000 C 
ATOM     15  C   UNL     1      11.553   2.201  -0.099  0.00  0.00    +0.000 C 
ATOM     16  C   UNL     1      11.531   0.029   1.119  0.00  0.00    +0.000 C 
BRANCH  14  17
ATOM     17  C   UNL     1      11.997  -0.009  -1.350  0.00  0.00    +0.000 A 
ATOM     18  C   UNL     1      12.918   0.669  -2.171  0.00  0.00    +0.000 A 
ATOM     19  C   UNL     1      13.643   0.001  -3.163  0.00  0.00    +0.000 A 
ATOM     20  C   UNL     1      13.453  -1.358  -3.358  0.00  0.00    +0.000 A 
ATOM     21  C   UNL     1      12.546  -2.058  -2.574  0.00  0.00    +0.000 A 
ATOM     22  C   UNL     1      11.827  -1.391  -1.577  0.00  0.00    +0.000 A 
BRANCH  20  23
ATOM     23  O   UNL     1      14.140  -2.047  -4.309  0.00  0.00    +0.000 OA
ATOM     24  H   UNL     1      14.749  -1.437  -4.753  0.00  0.00    +0.000 HD
ENDBRANCH  20  23
ENDBRANCH  14  17
ENDBRANCH  13  14
ENDBRANCH   1  13
TORSDOF 7
