REMARK  Name = 
REMARK  2 active torsions:
REMARK  status: ('A' for Active; 'I' for Inactive)
REMARK    1  A    between atoms: C_7  and  C_8
REMARK    2  A    between atoms: C_8  and  N_9
REMARK                            x       y       z     vdW  Elec       q    Type
REMARK                         _______ _______ _______ _____ _____    ______ ____
ROOT
ATOM      1  N   UNL     1       0.961  -0.028  -0.121  0.00  0.00    +0.000 NA
ATOM      2  C   UNL     1       2.243  -0.007  -0.018  0.00  0.00    +0.000 C 
ATOM      3  N   UNL     1       2.922   1.135   0.228  0.00  0.00    +0.000 N 
ATOM      4  N   UNL     1       3.058  -1.091  -0.200  0.00  0.00    +0.000 N 
ATOM      5  C   UNL     1       4.006  -1.442   0.871  0.00  0.00    +0.000 C 
ATOM      6  C   UNL     1       5.178  -2.209   0.266  0.00  0.00    +0.000 C 
ATOM      7  C   UNL     1       4.721  -3.487  -0.455  0.00  0.00    +0.000 C 
ATOM      8  C   UNL     1       3.638  -3.105  -1.486  0.00  0.00    +0.000 C 
ATOM      9  C   UNL     1       2.502  -2.266  -0.884  0.00  0.00    +0.000 C 
ATOM     10  H   UNL     1       0.593   0.904   0.076  0.00  0.00    +0.000 HD
ATOM     11  H   UNL     1       2.413   1.982   0.016  0.00  0.00    +0.000 HD
ATOM     12  H   UNL     1       3.828   1.130  -0.226  0.00  0.00    +0.000 HD
ENDROOT
BRANCH   7  13
ATOM     13  C   UNL     1       4.203  -4.589   0.489  0.00  0.00    +0.000 C 
BRANCH  13  14
ATOM     14  N   UNL     1       5.157  -5.049   1.490  0.00  0.00    +0.000 N 
ATOM     15  C   UNL     1       5.231  -4.537   2.762  0.00  0.00    +0.000 A 
ATOM     16  C   UNL     1       6.091  -5.322   3.492  0.00  0.00    +0.000 A 
ATOM     17  C   UNL     1       6.540  -6.369   2.647  0.00  0.00    +0.000 A 
ATOM     18  C   UNL     1       7.365  -7.493   2.854  0.00  0.00    +0.000 A 
ATOM     19  C   UNL     1       7.610  -8.372   1.795  0.00  0.00    +0.000 A 
ATOM     20  C   UNL     1       7.071  -8.119   0.536  0.00  0.00    +0.000 A 
ATOM     21 CL   UNL     1       7.393  -9.216  -0.753  0.00  0.00    +0.000 Cl
ATOM     22  C   UNL     1       6.258  -7.006   0.299  0.00  0.00    +0.000 A 
ATOM     23  C   UNL     1       5.980  -6.154   1.381  0.00  0.00    +0.000 A 
ENDBRANCH  13  14
ENDBRANCH   7  13
TORSDOF 2
