REMARK  Name = 
REMARK  5 active torsions:
REMARK  status: ('A' for Active; 'I' for Inactive)
REMARK    1  A    between atoms: C_2  and  C_4
REMARK    2  A    between atoms: C_7  and  N_8
REMARK    3  A    between atoms: N_8  and  C_9
REMARK    4  A    between atoms: C_9  and  C_10
REMARK    5  A    between atoms: C_12  and  N_13
REMARK                            x       y       z     vdW  Elec       q    Type
REMARK                         _______ _______ _______ _____ _____    ______ ____
ROOT
ATOM      1  N   UNL     1       5.078  -5.010  -0.389  0.00  0.00    +0.000 N 
ATOM      2  H   UNL     1       5.094  -5.517   0.495  0.00  0.00    +0.000 HD
ENDROOT
BRANCH   1   6
ATOM      3  C   UNL     1       2.907  -1.397  -0.089  0.00  0.00    +0.000 A 
ATOM      4  C   UNL     1       2.673  -2.247  -1.170  0.00  0.00    +0.000 A 
ATOM      5  C   UNL     1       3.374  -3.456  -1.277  0.00  0.00    +0.000 A 
ATOM      6  C   UNL     1       4.298  -3.853  -0.303  0.00  0.00    +0.000 A 
ATOM      7  C   UNL     1       4.524  -2.981   0.773  0.00  0.00    +0.000 A 
ATOM      8  C   UNL     1       3.845  -1.761   0.878  0.00  0.00    +0.000 A 
BRANCH   3  10
ATOM      9  N   UNL     1       0.981   0.028  -0.534  0.00  0.00    +0.000 N 
ATOM     10  C   UNL     1       2.220  -0.083   0.034  0.00  0.00    +0.000 C 
ATOM     11  O   UNL     1       2.723   0.850   0.644  0.00  0.00    +0.000 OA
ATOM     12  H   UNL     1       0.487   0.893  -0.359  0.00  0.00    +0.000 HD
ATOM     13  H   UNL     1       0.439  -0.775  -0.814  0.00  0.00    +0.000 HD
ENDBRANCH   3  10
ENDBRANCH   1   6
BRANCH   1  14
ATOM     14  C   UNL     1       4.926  -5.901  -1.540  0.00  0.00    +0.000 C 
BRANCH  14  15
ATOM     15  C   UNL     1       5.840  -7.108  -1.449  0.00  0.00    +0.000 A 
ATOM     16  C   UNL     1       7.225  -6.947  -1.348  0.00  0.00    +0.000 A 
ATOM     17  C   UNL     1       8.066  -8.064  -1.331  0.00  0.00    +0.000 A 
ATOM     18  C   UNL     1       7.449  -9.314  -1.422  0.00  0.00    +0.000 A 
ATOM     19  C   UNL     1       6.069  -9.397  -1.505  0.00  0.00    +0.000 A 
ATOM     20  N   UNL     1       5.253  -8.327  -1.522  0.00  0.00    +0.000 NA
BRANCH  17  21
ATOM     21  N   UNL     1       9.436  -7.960  -1.219  0.00  0.00    +0.000 N 
ATOM     22  C   UNL     1      10.102  -6.886  -0.468  0.00  0.00    +0.000 C 
ATOM     23  C   UNL     1      11.008  -6.065  -1.396  0.00  0.00    +0.000 C 
ATOM     24  O   UNL     1      11.933  -6.903  -2.110  0.00  0.00    +0.000 OA
ATOM     25  C   UNL     1      11.220  -7.862  -2.910  0.00  0.00    +0.000 C 
ATOM     26  C   UNL     1      10.338  -8.779  -2.044  0.00  0.00    +0.000 C 
ENDBRANCH  17  21
ENDBRANCH  14  15
ENDBRANCH   1  14
TORSDOF 5
