REMARK  Name = 
REMARK  5 active torsions:
REMARK  status: ('A' for Active; 'I' for Inactive)
REMARK    1  A    between atoms: C_2  and  C_3
REMARK    2  A    between atoms: C_6  and  N_7
REMARK    3  A    between atoms: N_7  and  C_8
REMARK    4  A    between atoms: C_8  and  C_9
REMARK    5  A    between atoms: C_13  and  C_14
REMARK                            x       y       z     vdW  Elec       q    Type
REMARK                         _______ _______ _______ _____ _____    ______ ____
ROOT
ATOM      1  C   UNL     1       4.752   1.032  -0.038  0.00  0.00    +0.000 C 
ATOM      2  C   UNL     1       3.440   0.962  -0.811  0.00  0.00    +0.000 C 
ATOM      3  C   UNL     1       3.448   0.615   0.639  0.00  0.00    +0.000 C 
ENDROOT
BRANCH   1   4
ATOM      4  C   UNL     1       5.760  -0.094  -0.237  0.00  0.00    +0.000 A 
ATOM      5  C   UNL     1       6.390  -0.748   0.831  0.00  0.00    +0.000 A 
ATOM      6  C   UNL     1       7.113  -1.928   0.625  0.00  0.00    +0.000 A 
ATOM      7  C   UNL     1       7.212  -2.482  -0.655  0.00  0.00    +0.000 A 
ATOM      8  C   UNL     1       6.636  -1.829  -1.745  0.00  0.00    +0.000 A 
ATOM      9  C   UNL     1       5.969  -0.620  -1.518  0.00  0.00    +0.000 A 
BRANCH   8  10
ATOM     10  C   UNL     1       6.606  -2.442  -3.131  0.00  0.00    +0.000 C 
ATOM     11  C   UNL     1       7.374  -1.596  -4.157  0.00  0.00    +0.000 C 
ATOM     12  C   UNL     1       7.179  -2.150  -5.562  0.00  0.00    +0.000 C 
ATOM     13  O   UNL     1       5.792  -2.243  -5.885  0.00  0.00    +0.000 OA
ATOM     14  C   UNL     1       5.099  -3.147  -5.027  0.00  0.00    +0.000 C 
ATOM     15  C   UNL     1       5.149  -2.655  -3.592  0.00  0.00    +0.000 C 
ENDBRANCH   8  10
ENDBRANCH   1   4
BRANCH   1  16
ATOM     16  N   UNL     1       5.320   2.347   0.320  0.00  0.00    +0.000 N 
ATOM     17  H   UNL     1       4.963   2.751   1.182  0.00  0.00    +0.000 HD
BRANCH  16  21
ATOM     18  C   UNL     1       6.612   5.331  -2.414  0.00  0.00    +0.000 A 
ATOM     19  C   UNL     1       6.413   4.028  -2.859  0.00  0.00    +0.000 A 
ATOM     20  C   UNL     1       5.966   3.036  -1.972  0.00  0.00    +0.000 A 
ATOM     21  C   UNL     1       5.701   3.324  -0.628  0.00  0.00    +0.000 A 
ATOM     22  C   UNL     1       5.931   4.630  -0.187  0.00  0.00    +0.000 A 
ATOM     23  C   UNL     1       6.367   5.621  -1.075  0.00  0.00    +0.000 A 
ATOM     24  F   UNL     1       6.553   6.863  -0.605  0.00  0.00    +0.000 F 
BRANCH  18  26
ATOM     25  N   UNL     1       7.439   7.156  -4.061  0.00  0.00    +0.000 NA
ATOM     26  C   UNL     1       7.070   6.351  -3.310  0.00  0.00    +0.000 C 
ENDBRANCH  18  26
ENDBRANCH  16  21
ENDBRANCH   1  16
TORSDOF 5
