REMARK  Name = 
REMARK  9 active torsions:
REMARK  status: ('A' for Active; 'I' for Inactive)
REMARK    1  A    between atoms: C_1  and  C_2
REMARK    2  A    between atoms: C_2  and  O_3
REMARK    3  A    between atoms: O_3  and  C_4
REMARK    4  A    between atoms: C_9  and  C_10
REMARK    5  A    between atoms: N_12  and  C_13
REMARK    6  A    between atoms: C_13  and  C_14
REMARK    7  A    between atoms: C_17  and  C_18
REMARK    8  A    between atoms: C_18  and  N_19
REMARK    9  A    between atoms: C_20  and  C_22
REMARK                            x       y       z     vdW  Elec       q    Type
REMARK                         _______ _______ _______ _____ _____    ______ ____
ROOT
ATOM      1  C   UNL     1       0.608   3.853  -2.122  0.00  0.00    +0.000 A 
ATOM      2  C   UNL     1      -0.016   2.607  -1.975  0.00  0.00    +0.000 A 
ATOM      3  C   UNL     1      -1.271   2.506  -1.359  0.00  0.00    +0.000 A 
ATOM      4  C   UNL     1      -1.933   3.650  -0.898  0.00  0.00    +0.000 A 
ATOM      5  C   UNL     1      -1.313   4.897  -1.057  0.00  0.00    +0.000 A 
ATOM      6  C   UNL     1      -0.061   4.998  -1.672  0.00  0.00    +0.000 A 
ENDROOT
BRANCH   1   7
ATOM      7  C   UNL     1       1.968   3.964  -2.763  0.00  0.00    +0.000 C 
BRANCH   7  10
ATOM      8  C   UNL     1       2.997   4.306  -4.970  0.00  0.00    +0.000 C 
ATOM      9  O   UNL     1       4.130   4.291  -4.492  0.00  0.00    +0.000 OA
ATOM     10  N   UNL     1       1.876   4.180  -4.185  0.00  0.00    +0.000 N 
ATOM     11  H   UNL     1       0.966   4.193  -4.628  0.00  0.00    +0.000 HD
BRANCH   8  17
ATOM     12  C   UNL     1       1.552   4.512  -7.107  0.00  0.00    +0.000 A 
ATOM     13  C   UNL     1       1.517   4.590  -8.510  0.00  0.00    +0.000 A 
ATOM     14  C   UNL     1       2.693   4.617  -9.261  0.00  0.00    +0.000 A 
ATOM     15  C   UNL     1       3.925   4.572  -8.622  0.00  0.00    +0.000 A 
ATOM     16  C   UNL     1       3.978   4.485  -7.231  0.00  0.00    +0.000 A 
ATOM     17  C   UNL     1       2.802   4.442  -6.457  0.00  0.00    +0.000 A 
BRANCH  12  18
ATOM     18  O   UNL     1       0.415   4.494  -6.332  0.00  0.00    +0.000 OA
BRANCH  18  20
ATOM     19  C   UNL     1      -1.932   4.724  -5.940  0.00  0.00    +0.000 C 
ATOM     20  C   UNL     1      -0.839   4.678  -6.991  0.00  0.00    +0.000 C 
ENDBRANCH  18  20
ENDBRANCH  12  18
ENDBRANCH   8  17
ENDBRANCH   7  10
ENDBRANCH   1   7
BRANCH   4  21
ATOM     21  C   UNL     1      -3.264   3.544  -0.196  0.00  0.00    +0.000 C 
BRANCH  21  22
ATOM     22  N   UNL     1      -3.094   3.368   1.225  0.00  0.00    +0.000 N 
ATOM     23  C   UNL     1      -4.169   3.156   2.051  0.00  0.00    +0.000 C 
ATOM     24  O   UNL     1      -5.313   3.058   1.613  0.00  0.00    +0.000 OA
ATOM     25  H   UNL     1      -2.207   3.662   1.625  0.00  0.00    +0.000 HD
BRANCH  23  26
ATOM     26  C   UNL     1      -3.883   2.990   3.482  0.00  0.00    +0.000 A 
ATOM     27  C   UNL     1      -4.790   2.318   4.291  0.00  0.00    +0.000 A 
ATOM     28  S   UNL     1      -4.283   2.165   5.912  0.00  0.00    +0.000 S 
ATOM     29  C   UNL     1      -2.859   3.043   5.606  0.00  0.00    +0.000 A 
ATOM     30  N   UNL     1      -1.970   3.302   6.602  0.00  0.00    +0.000 NA
ATOM     31  C   UNL     1      -0.954   4.012   6.240  0.00  0.00    +0.000 A 
ATOM     32  N   UNL     1      -0.744   4.481   4.969  0.00  0.00    +0.000 N 
ATOM     33  C   UNL     1      -1.594   4.212   3.923  0.00  0.00    +0.000 A 
ATOM     34  O   UNL     1      -1.352   4.605   2.786  0.00  0.00    +0.000 OA
ATOM     35  C   UNL     1      -2.763   3.431   4.281  0.00  0.00    +0.000 A 
ATOM     36  H   UNL     1       0.077   5.025   4.748  0.00  0.00    +0.000 HD
ENDBRANCH  23  26
ENDBRANCH  21  22
ENDBRANCH   4  21
TORSDOF 8
