REMARK  Name = 
REMARK  8 active torsions:
REMARK  status: ('A' for Active; 'I' for Inactive)
REMARK    1  A    between atoms: C_2  and  C_3
REMARK    2  A    between atoms: C_3  and  N_4
REMARK    3  A    between atoms: C_5  and  C_7
REMARK    4  A    between atoms: N_17  and  C_18
REMARK    5  A    between atoms: C_18  and  C_19
REMARK    6  A    between atoms: C_22  and  C_23
REMARK    7  A    between atoms: C_23  and  N_24
REMARK    8  A    between atoms: C_25  and  C_27
REMARK                            x       y       z     vdW  Elec       q    Type
REMARK                         _______ _______ _______ _____ _____    ______ ____
ROOT
ATOM      1  O   UNL     1       3.971  -1.893  -1.501  0.00  0.00    +0.000 OA
ATOM      2  C   UNL     1       3.058  -1.090  -1.682  0.00  0.00    +0.000 C 
ATOM      3  N   UNL     1       3.152   0.250  -1.387  0.00  0.00    +0.000 N 
ATOM      4  H   UNL     1       2.308   0.812  -1.412  0.00  0.00    +0.000 HD
ENDROOT
BRANCH   2   5
ATOM      5  C   UNL     1       1.683  -1.527  -2.192  0.00  0.00    +0.000 C 
BRANCH   5   6
ATOM      6  N   UNL     1       0.836  -1.963  -1.101  0.00  0.00    +0.000 N 
ATOM      7  C   UNL     1      -0.038  -1.110  -0.473  0.00  0.00    +0.000 C 
ATOM      8  O   UNL     1      -0.172   0.054  -0.832  0.00  0.00    +0.000 OA
ATOM      9  H   UNL     1       1.103  -2.830  -0.644  0.00  0.00    +0.000 HD
BRANCH   7  10
ATOM     10  C   UNL     1      -0.839  -1.680   0.619  0.00  0.00    +0.000 A 
ATOM     11  C   UNL     1      -2.082  -1.144   0.925  0.00  0.00    +0.000 A 
ATOM     12  S   UNL     1      -2.859  -1.920   2.232  0.00  0.00    +0.000 S 
ATOM     13  C   UNL     1      -1.549  -2.985   2.451  0.00  0.00    +0.000 A 
ATOM     14  N   UNL     1      -1.552  -3.910   3.449  0.00  0.00    +0.000 NA
ATOM     15  C   UNL     1      -0.487  -4.638   3.506  0.00  0.00    +0.000 A 
ATOM     16  N   UNL     1       0.577  -4.529   2.649  0.00  0.00    +0.000 N 
ATOM     17  C   UNL     1       0.608  -3.636   1.610  0.00  0.00    +0.000 A 
ATOM     18  O   UNL     1       1.542  -3.613   0.812  0.00  0.00    +0.000 OA
ATOM     19  C   UNL     1      -0.550  -2.771   1.519  0.00  0.00    +0.000 A 
ATOM     20  H   UNL     1       1.373  -5.147   2.727  0.00  0.00    +0.000 HD
ENDBRANCH   7  10
ENDBRANCH   5   6
ENDBRANCH   2   5
BRANCH   3  21
ATOM     21  C   UNL     1       4.363   0.850  -0.867  0.00  0.00    +0.000 C 
BRANCH  21  22
ATOM     22  C   UNL     1       4.822   1.994  -1.737  0.00  0.00    +0.000 A 
ATOM     23  C   UNL     1       4.308   3.283  -1.547  0.00  0.00    +0.000 A 
ATOM     24  C   UNL     1       4.694   4.338  -2.383  0.00  0.00    +0.000 A 
ATOM     25  C   UNL     1       5.593   4.128  -3.436  0.00  0.00    +0.000 A 
ATOM     26  C   UNL     1       6.135   2.846  -3.606  0.00  0.00    +0.000 A 
ATOM     27  C   UNL     1       5.744   1.788  -2.773  0.00  0.00    +0.000 A 
BRANCH  25  28
ATOM     28  C   UNL     1       5.915   5.242  -4.398  0.00  0.00    +0.000 C 
BRANCH  28  29
ATOM     29  N   UNL     1       7.008   6.082  -3.971  0.00  0.00    +0.000 N 
ATOM     30  C   UNL     1       7.454   7.101  -4.789  0.00  0.00    +0.000 C 
ATOM     31  O   UNL     1       6.910   7.383  -5.855  0.00  0.00    +0.000 OA
ATOM     32  H   UNL     1       7.579   5.827  -3.172  0.00  0.00    +0.000 HD
BRANCH  30  33
ATOM     33  C   UNL     1       8.631   7.913  -4.219  0.00  0.00    +0.000 C 
ATOM     34  C   UNL     1       9.500   8.489  -5.328  0.00  0.00    +0.000 C 
ATOM     35  C   UNL     1      10.846   8.622  -4.667  0.00  0.00    +0.000 C 
ATOM     36  C   UNL     1      10.860   7.452  -3.709  0.00  0.00    +0.000 C 
ATOM     37  O   UNL     1       9.499   7.158  -3.362  0.00  0.00    +0.000 OA
ENDBRANCH  30  33
ENDBRANCH  28  29
ENDBRANCH  25  28
ENDBRANCH  21  22
ENDBRANCH   3  21
TORSDOF 8
