REMARK  Name = 
REMARK  6 active torsions:
REMARK  status: ('A' for Active; 'I' for Inactive)
REMARK    1  A    between atoms: C_2  and  C_3
REMARK    2  A    between atoms: C_7  and  C_8
REMARK    3  A    between atoms: C_8  and  C_9
REMARK    4  A    between atoms: C_12  and  C_13
REMARK    5  A    between atoms: C_13  and  N_14
REMARK    6  A    between atoms: C_15  and  C_17
REMARK                            x       y       z     vdW  Elec       q    Type
REMARK                         _______ _______ _______ _____ _____    ______ ____
ROOT
ATOM      1  C   UNL     1      -7.910  -1.733  -0.165  0.00  0.00    +0.000 C 
ENDROOT
BRANCH   1   5
ATOM      2  C   UNL     1      -3.704  -2.405  -0.090  0.00  0.00    +0.000 A 
ATOM      3  C   UNL     1      -4.261  -1.811  -1.221  0.00  0.00    +0.000 A 
ATOM      4  C   UNL     1      -5.634  -1.581  -1.258  0.00  0.00    +0.000 A 
ATOM      5  C   UNL     1      -6.433  -1.983  -0.187  0.00  0.00    +0.000 A 
ATOM      6  C   UNL     1      -5.796  -2.609   0.879  0.00  0.00    +0.000 A 
ATOM      7  N   UNL     1      -4.462  -2.827   0.954  0.00  0.00    +0.000 NA
BRANCH   2   8
ATOM      8  C   UNL     1      -2.203  -2.496   0.056  0.00  0.00    +0.000 C 
BRANCH   8  13
ATOM      9  C   UNL     1      -0.172   0.543   0.568  0.00  0.00    +0.000 A 
ATOM     10  C   UNL     1      -0.480   0.982   1.848  0.00  0.00    +0.000 A 
ATOM     11  C   UNL     1      -1.380   0.230   2.592  0.00  0.00    +0.000 A 
ATOM     12  C   UNL     1      -1.933  -0.921   2.035  0.00  0.00    +0.000 A 
ATOM     13  C   UNL     1      -1.598  -1.281   0.728  0.00  0.00    +0.000 A 
ATOM     14  N   UNL     1      -0.713  -0.560  -0.006  0.00  0.00    +0.000 NA
BRANCH   9  16
ATOM     15  N   UNL     1       1.547   1.869  -0.853  0.00  0.00    +0.000 NA
ATOM     16  C   UNL     1       0.776   1.261  -0.237  0.00  0.00    +0.000 C 
ENDBRANCH   9  16
ENDBRANCH   8  13
ENDBRANCH   2   8
ENDBRANCH   1   5
BRANCH   1  17
ATOM     17  N   UNL     1      -8.240  -0.472   0.446  0.00  0.00    +0.000 N 
ATOM     18  C   UNL     1      -8.449   0.678  -0.270  0.00  0.00    +0.000 C 
ATOM     19  O   UNL     1      -8.340   0.727  -1.491  0.00  0.00    +0.000 OA
ATOM     20  H   UNL     1      -8.110  -0.404   1.449  0.00  0.00    +0.000 HD
BRANCH  18  21
ATOM     21  C   UNL     1      -8.903   1.834   0.513  0.00  0.00    +0.000 A 
ATOM     22  C   UNL     1      -9.666   2.826  -0.087  0.00  0.00    +0.000 A 
ATOM     23  S   UNL     1     -10.160   4.051   0.995  0.00  0.00    +0.000 S 
ATOM     24  C   UNL     1      -9.327   3.324   2.287  0.00  0.00    +0.000 A 
ATOM     25  N   UNL     1      -9.323   3.885   3.527  0.00  0.00    +0.000 NA
ATOM     26  C   UNL     1      -8.628   3.241   4.402  0.00  0.00    +0.000 A 
ATOM     27  N   UNL     1      -7.936   2.084   4.156  0.00  0.00    +0.000 N 
ATOM     28  C   UNL     1      -7.957   1.453   2.938  0.00  0.00    +0.000 A 
ATOM     29  O   UNL     1      -7.419   0.364   2.780  0.00  0.00    +0.000 OA
ATOM     30  C   UNL     1      -8.700   2.153   1.906  0.00  0.00    +0.000 A 
ATOM     31  H   UNL     1      -7.431   1.612   4.892  0.00  0.00    +0.000 HD
ENDBRANCH  18  21
ENDBRANCH   1  17
TORSDOF 6
