REMARK  Name = 
REMARK  9 active torsions:
REMARK  status: ('A' for Active; 'I' for Inactive)
REMARK    1  A    between atoms: C_1  and  O_2
REMARK    2  A    between atoms: O_2  and  C_3
REMARK    3  A    between atoms: C_10  and  C_11
REMARK    4  A    between atoms: N_13  and  C_14
REMARK    5  A    between atoms: C_14  and  C_15
REMARK    6  A    between atoms: C_18  and  O_19
REMARK    7  A    between atoms: O_19  and  C_20
REMARK    8  A    between atoms: C_20  and  C_21
REMARK    9  A    between atoms: C_25  and  C_26
REMARK                            x       y       z     vdW  Elec       q    Type
REMARK                         _______ _______ _______ _____ _____    ______ ____
ROOT
ATOM      1  C   UNL     1       1.912  -0.092   3.465  0.00  0.00    +0.000 A 
ATOM      2  C   UNL     1       0.635  -0.549   3.810  0.00  0.00    +0.000 A 
ATOM      3  C   UNL     1      -0.410   0.346   4.052  0.00  0.00    +0.000 A 
ATOM      4  C   UNL     1      -0.206   1.721   3.950  0.00  0.00    +0.000 A 
ATOM      5  C   UNL     1       1.055   2.185   3.549  0.00  0.00    +0.000 A 
ATOM      6  C   UNL     1       2.109   1.291   3.313  0.00  0.00    +0.000 A 
ENDROOT
BRANCH   1   7
ATOM      7  C   UNL     1       3.021  -1.094   3.260  0.00  0.00    +0.000 C 
BRANCH   7  10
ATOM      8  C   UNL     1       2.414  -2.611   1.401  0.00  0.00    +0.000 C 
ATOM      9  O   UNL     1       1.690  -3.301   2.121  0.00  0.00    +0.000 OA
ATOM     10  N   UNL     1       3.105  -1.541   1.891  0.00  0.00    +0.000 N 
ATOM     11  H   UNL     1       3.695  -1.004   1.275  0.00  0.00    +0.000 HD
BRANCH   8  19
ATOM     12  C   UNL     1       4.212  -1.153  -1.151  0.00  0.00    +0.000 A 
ATOM     13  N   UNL     1       4.801  -0.791  -2.308  0.00  0.00    +0.000 NA
ATOM     14  C   UNL     1       4.540  -1.518  -3.399  0.00  0.00    +0.000 A 
ATOM     15  N   UNL     1       3.748  -2.583  -3.481  0.00  0.00    +0.000 NA
ATOM     16  C   UNL     1       3.187  -2.914  -2.304  0.00  0.00    +0.000 A 
ATOM     17  S   UNL     1       2.148  -4.253  -2.219  0.00  0.00    +0.000 S 
ATOM     18  C   UNL     1       1.890  -4.010  -0.559  0.00  0.00    +0.000 A 
ATOM     19  C   UNL     1       2.575  -2.920  -0.033  0.00  0.00    +0.000 A 
ATOM     20  C   UNL     1       3.356  -2.267  -1.084  0.00  0.00    +0.000 A 
BRANCH  12  22
ATOM     21  C   UNL     1       4.933   0.905  -0.300  0.00  0.00    +0.000 C 
ATOM     22  O   UNL     1       4.515  -0.428  -0.016  0.00  0.00    +0.000 OA
ENDBRANCH  12  22
ENDBRANCH   8  19
ENDBRANCH   7  10
ENDBRANCH   1   7
BRANCH   4  23
ATOM     23  O   UNL     1      -1.169   2.670   4.195  0.00  0.00    +0.000 OA
BRANCH  23  24
ATOM     24  C   UNL     1      -2.245   2.253   5.054  0.00  0.00    +0.000 C 
BRANCH  24  25
ATOM     25  C   UNL     1      -3.224   3.421   5.297  0.00  0.00    +0.000 C 
ATOM     26  C   UNL     1      -2.523   4.666   5.855  0.00  0.00    +0.000 C 
ATOM     27  C   UNL     1      -2.073   4.425   7.288  0.00  0.00    +0.000 C 
ATOM     28  N   UNL     1      -3.248   4.188   8.119  0.00  0.00    +0.000 N 
ATOM     29  C   UNL     1      -3.645   4.951   9.205  0.00  0.00    +0.000 C 
ATOM     30  C   UNL     1      -2.850   6.177   9.597  0.00  0.00    +0.000 C 
ATOM     31  O   UNL     1      -4.649   4.672   9.867  0.00  0.00    +0.000 OA
ATOM     32  C   UNL     1      -4.043   3.019   7.727  0.00  0.00    +0.000 C 
ATOM     33  C   UNL     1      -4.393   3.027   6.230  0.00  0.00    +0.000 C 
ENDBRANCH  24  25
ENDBRANCH  23  24
ENDBRANCH   4  23
TORSDOF 7
