REMARK  Name = 
REMARK  6 active torsions:
REMARK  status: ('A' for Active; 'I' for Inactive)
REMARK    1  A    between atoms: N_1  and  C_2
REMARK    2  A    between atoms: C_2  and  C_3
REMARK    3  A    between atoms: C_6  and  C_7
REMARK    4  A    between atoms: C_7  and  O_8
REMARK    5  A    between atoms: O_8  and  C_9
REMARK    6  A    between atoms: C_12  and  C_13
REMARK                            x       y       z     vdW  Elec       q    Type
REMARK                         _______ _______ _______ _____ _____    ______ ____
ROOT
ATOM      1  O   UNL     1       4.961   1.365  -5.896  0.00  0.00    +0.000 OA
ENDROOT
BRANCH   1   2
ATOM      2  C   UNL     1       5.406   1.475  -7.183  0.00  0.00    +0.000 A 
ATOM      3  C   UNL     1       5.707   0.421  -8.041  0.00  0.00    +0.000 A 
ATOM      4  C   UNL     1       6.154   0.691  -9.334  0.00  0.00    +0.000 A 
ATOM      5  C   UNL     1       6.285   2.016  -9.727  0.00  0.00    +0.000 A 
ATOM      6  N   UNL     1       6.004   3.076  -8.920  0.00  0.00    +0.000 NA
ATOM      7  C   UNL     1       5.573   2.771  -7.670  0.00  0.00    +0.000 A 
BRANCH   5   8
ATOM      8  C   UNL     1       6.759   2.326 -11.112  0.00  0.00    +0.000 C 
ATOM      9  N   UNL     1       6.853   3.655 -11.418  0.00  0.00    +0.000 N 
ATOM     10  O   UNL     1       7.043   1.454 -11.924  0.00  0.00    +0.000 OA
ATOM     11  H   UNL     1       6.606   4.347 -10.719  0.00  0.00    +0.000 HD
ATOM     12  H   UNL     1       7.161   3.936 -12.337  0.00  0.00    +0.000 HD
ENDBRANCH   5   8
ENDBRANCH   1   2
BRANCH   1  13
ATOM     13  C   UNL     1       4.727   0.037  -5.418  0.00  0.00    +0.000 C 
BRANCH  13  17
ATOM     14  C   UNL     1       3.130  -0.038  -1.387  0.00  0.00    +0.000 A 
ATOM     15  C   UNL     1       2.884   1.057  -2.226  0.00  0.00    +0.000 A 
ATOM     16  C   UNL     1       3.403   1.098  -3.522  0.00  0.00    +0.000 A 
ATOM     17  C   UNL     1       4.197   0.050  -4.003  0.00  0.00    +0.000 A 
ATOM     18  C   UNL     1       4.433  -1.053  -3.168  0.00  0.00    +0.000 A 
ATOM     19  C   UNL     1       3.910  -1.094  -1.872  0.00  0.00    +0.000 A 
BRANCH  14  20
ATOM     20  C   UNL     1       2.572  -0.067   0.012  0.00  0.00    +0.000 C 
BRANCH  20  21
ATOM     21  N   UNL     1       1.115  -0.018   0.009  0.00  0.00    +0.000 NA
ATOM     22  H   UNL     1       0.775  -0.111   0.964  0.00  0.00    +0.000 HD
ATOM     23  H   UNL     1       0.762  -0.823  -0.506  0.00  0.00    +0.000 HD
ENDBRANCH  20  21
ENDBRANCH  14  20
ENDBRANCH  13  17
ENDBRANCH   1  13
TORSDOF 6
