REMARK  Name = 
REMARK  7 active torsions:
REMARK  status: ('A' for Active; 'I' for Inactive)
REMARK    1  A    between atoms: C_1  and  C_2
REMARK    2  A    between atoms: C_4  and  C_5
REMARK    3  A    between atoms: C_10  and  O_11
REMARK    4  A    between atoms: O_11  and  C_12
REMARK    5  A    between atoms: C_12  and  C_13
REMARK    6  A    between atoms: C_18  and  C_19
REMARK    7  A    between atoms: C_24  and  O_25
REMARK                            x       y       z     vdW  Elec       q    Type
REMARK                         _______ _______ _______ _____ _____    ______ ____
ROOT
ATOM      1  C   UNL     1       2.719  -4.017  -0.034  0.00  0.00    +0.000 A 
ATOM      2  C   UNL     1       1.816  -5.072   0.010  0.00  0.00    +0.000 A 
ATOM      3  C   UNL     1       2.287  -6.380   0.081  0.00  0.00    +0.000 A 
ATOM      4  C   UNL     1       3.666  -6.654   0.128  0.00  0.00    +0.000 A 
ATOM      5 CL   UNL     1       4.060  -8.329   0.355  0.00  0.00    +0.000 Cl
ATOM      6  C   UNL     1       4.626  -5.618   0.044  0.00  0.00    +0.000 A 
ATOM      7  C   UNL     1       4.098  -4.308  -0.047  0.00  0.00    +0.000 A 
ENDROOT
BRANCH   6   8
ATOM      8  C   UNL     1       6.114  -5.810   0.023  0.00  0.00    +0.000 A 
ATOM      9  C   UNL     1       6.692  -6.896  -0.667  0.00  0.00    +0.000 A 
ATOM     10  C   UNL     1       8.075  -7.105  -0.721  0.00  0.00    +0.000 A 
ATOM     11  C   UNL     1       8.940  -6.189  -0.139  0.00  0.00    +0.000 A 
ATOM     12  C   UNL     1       8.420  -5.081   0.518  0.00  0.00    +0.000 A 
ATOM     13  C   UNL     1       7.031  -4.906   0.612  0.00  0.00    +0.000 A 
BRANCH  13  14
ATOM     14  O   UNL     1       6.581  -3.811   1.308  0.00  0.00    +0.000 OA
ATOM     15  H   UNL     1       7.327  -3.208   1.464  0.00  0.00    +0.000 HD
ENDBRANCH  13  14
ENDBRANCH   6   8
BRANCH   1  16
ATOM     16  C   UNL     1       2.301  -2.562   0.009  0.00  0.00    +0.000 C 
BRANCH  16  17
ATOM     17  O   UNL     1       0.888  -2.407   0.059  0.00  0.00    +0.000 OA
BRANCH  17  24
ATOM     18  C   UNL     1       2.184   0.185   1.234  0.00  0.00    +0.000 C 
ATOM     19  C   UNL     1       0.894   0.053   0.476  0.00  0.00    +0.000 A 
ATOM     20  C   UNL     1       0.140   1.235   0.320  0.00  0.00    +0.000 A 
ATOM     21  C   UNL     1      -1.097   1.257  -0.340  0.00  0.00    +0.000 A 
ATOM     22  C   UNL     1      -1.600   0.060  -0.851  0.00  0.00    +0.000 A 
ATOM     23  C   UNL     1      -0.870  -1.122  -0.696  0.00  0.00    +0.000 A 
ATOM     24  C   UNL     1       0.376  -1.140  -0.049  0.00  0.00    +0.000 A 
BRANCH  21  25
ATOM     25  C   UNL     1      -1.809   2.567  -0.433  0.00  0.00    +0.000 C 
ATOM     26  N   UNL     1      -3.009   2.617  -1.073  0.00  0.00    +0.000 N 
ATOM     27  O   UNL     1      -1.327   3.591   0.047  0.00  0.00    +0.000 OA
ATOM     28  H   UNL     1      -3.488   1.831  -1.481  0.00  0.00    +0.000 HD
ATOM     29  H   UNL     1      -3.466   3.520  -1.106  0.00  0.00    +0.000 HD
ENDBRANCH  21  25
ENDBRANCH  17  24
ENDBRANCH  16  17
ENDBRANCH   1  16
TORSDOF 6
