REMARK  Name = 
REMARK  6 active torsions:
REMARK  status: ('A' for Active; 'I' for Inactive)
REMARK    1  A    between atoms: C_2  and  C_4
REMARK    2  A    between atoms: N_8  and  C_9
REMARK    3  A    between atoms: C_9  and  C_10
REMARK    4  A    between atoms: C_10  and  C_13
REMARK    5  A    between atoms: C_18  and  S_19
REMARK    6  A    between atoms: S_19  and  C_20
REMARK                            x       y       z     vdW  Elec       q    Type
REMARK                         _______ _______ _______ _____ _____    ______ ____
ROOT
ATOM      1  C   UNL     1       6.097  -0.963   7.049  0.00  0.00    +0.000 C 
ATOM      2  F   UNL     1       7.338  -1.161   6.513  0.00  0.00    +0.000 F 
ATOM      3  F   UNL     1       6.108   0.318   7.523  0.00  0.00    +0.000 F 
ENDROOT
BRANCH   1   4
ATOM      4  C   UNL     1       5.779  -1.959   8.148  0.00  0.00    +0.000 A 
ATOM      5  C   UNL     1       4.915  -1.599   9.190  0.00  0.00    +0.000 A 
ATOM      6  C   UNL     1       4.618  -2.517  10.188  0.00  0.00    +0.000 A 
ATOM      7  F   UNL     1       3.820  -2.149  11.199  0.00  0.00    +0.000 F 
ATOM      8  C   UNL     1       5.161  -3.798  10.172  0.00  0.00    +0.000 A 
ATOM      9  C   UNL     1       6.033  -4.182   9.146  0.00  0.00    +0.000 A 
ATOM     10  C   UNL     1       6.346  -3.250   8.148  0.00  0.00    +0.000 A 
BRANCH   9  11
ATOM     11  S   UNL     1       6.919  -5.713   9.323  0.00  0.00    +0.000 S 
BRANCH  11  12
ATOM     12  C   UNL     1       6.376  -6.821   8.004  0.00  0.00    +0.000 C 
ATOM     13  C   UNL     1       6.763  -6.431   6.570  0.00  0.00    +0.000 C 
ATOM     14  N   UNL     1       5.467  -7.005   6.115  0.00  0.00    +0.000 NA
ATOM     15  C   UNL     1       4.934  -6.762   7.489  0.00  0.00    +0.000 C 
ATOM     16  H   UNL     1       5.536  -7.997   5.875  0.00  0.00    +0.000 HD
ENDBRANCH  11  12
ENDBRANCH   9  11
ENDBRANCH   1   4
BRANCH   1  17
ATOM     17  C   UNL     1       5.048  -1.073   5.910  0.00  0.00    +0.000 C 
BRANCH  17  22
ATOM     18  C   UNL     1       2.917   0.103   1.432  0.00  0.00    +0.000 A 
ATOM     19  C   UNL     1       2.317  -0.366   2.595  0.00  0.00    +0.000 A 
ATOM     20  C   UNL     1       3.075  -0.450   3.764  0.00  0.00    +0.000 A 
ATOM     21  C   UNL     1       4.417  -0.079   3.746  0.00  0.00    +0.000 A 
ATOM     22  N   UNL     1       5.205  -0.039   4.880  0.00  0.00    +0.000 N 
ATOM     23  N   UNL     1       5.015   0.342   2.616  0.00  0.00    +0.000 NA
ATOM     24  C   UNL     1       4.264   0.419   1.486  0.00  0.00    +0.000 A 
ATOM     25  H   UNL     1       6.165   0.146   4.590  0.00  0.00    +0.000 HD
BRANCH  18  27
ATOM     26  N   UNL     1       0.837   0.521   0.251  0.00  0.00    +0.000 N 
ATOM     27  C   UNL     1       2.181   0.285   0.161  0.00  0.00    +0.000 C 
ATOM     28  O   UNL     1       2.754   0.261  -0.921  0.00  0.00    +0.000 OA
ATOM     29  H   UNL     1       0.368   0.762  -0.614  0.00  0.00    +0.000 HD
ATOM     30  H   UNL     1       0.390   0.802   1.113  0.00  0.00    +0.000 HD
ENDBRANCH  18  27
ENDBRANCH  17  22
ENDBRANCH   1  17
TORSDOF 6
