REMARK  Name = 
REMARK  5 active torsions:
REMARK  status: ('A' for Active; 'I' for Inactive)
REMARK    1  A    between atoms: C_2  and  C_4
REMARK    2  A    between atoms: N_8  and  C_9
REMARK    3  A    between atoms: C_9  and  C_10
REMARK    4  A    between atoms: C_10  and  C_13
REMARK    5  A    between atoms: C_17  and  C_18
REMARK                            x       y       z     vdW  Elec       q    Type
REMARK                         _______ _______ _______ _____ _____    ______ ____
ROOT
ATOM      1  C   UNL     1       6.413  -6.814   1.432  0.00  0.00    +0.000 C 
ATOM      2  F   UNL     1       7.646  -6.405   1.011  0.00  0.00    +0.000 F 
ATOM      3  F   UNL     1       6.459  -6.755   2.797  0.00  0.00    +0.000 F 
ENDROOT
BRANCH   1   4
ATOM      4  C   UNL     1       6.071  -8.207   0.931  0.00  0.00    +0.000 A 
ATOM      5  C   UNL     1       5.297  -9.069   1.717  0.00  0.00    +0.000 A 
ATOM      6  C   UNL     1       4.949 -10.328   1.240  0.00  0.00    +0.000 A 
ATOM      7  C   UNL     1       5.349 -10.729  -0.037  0.00  0.00    +0.000 A 
ATOM      8  C   UNL     1       6.087  -9.877  -0.881  0.00  0.00    +0.000 A 
ATOM      9  C   UNL     1       6.464  -8.625  -0.356  0.00  0.00    +0.000 A 
BRANCH   8  10
ATOM     10  C   UNL     1       6.374 -10.249  -2.288  0.00  0.00    +0.000 A 
ATOM     11  C   UNL     1       5.442 -10.995  -3.038  0.00  0.00    +0.000 A 
ATOM     12  C   UNL     1       5.649 -11.287  -4.390  0.00  0.00    +0.000 A 
ATOM     13  C   UNL     1       6.798 -10.836  -5.024  0.00  0.00    +0.000 A 
ATOM     14 CL   UNL     1       7.036 -11.156  -6.697  0.00  0.00    +0.000 Cl
ATOM     15  C   UNL     1       7.747 -10.114  -4.311  0.00  0.00    +0.000 A 
ATOM     16  C   UNL     1       7.543  -9.833  -2.952  0.00  0.00    +0.000 A 
ENDBRANCH   8  10
ENDBRANCH   1   4
BRANCH   1  17
ATOM     17  C   UNL     1       5.352  -5.804   0.927  0.00  0.00    +0.000 C 
BRANCH  17  22
ATOM     18  C   UNL     1       3.053  -1.211   0.703  0.00  0.00    +0.000 A 
ATOM     19  C   UNL     1       2.757  -2.418   0.079  0.00  0.00    +0.000 A 
ATOM     20  C   UNL     1       3.581  -3.520   0.310  0.00  0.00    +0.000 A 
ATOM     21  C   UNL     1       4.689  -3.401   1.149  0.00  0.00    +0.000 A 
ATOM     22  N   UNL     1       5.542  -4.439   1.408  0.00  0.00    +0.000 N 
ATOM     23  N   UNL     1       4.985  -2.234   1.748  0.00  0.00    +0.000 NA
ATOM     24  C   UNL     1       4.176  -1.164   1.508  0.00  0.00    +0.000 A 
ATOM     25  H   UNL     1       6.292  -4.224   2.056  0.00  0.00    +0.000 HD
BRANCH  18  27
ATOM     26  N   UNL     1       0.921  -0.166   0.190  0.00  0.00    +0.000 N 
ATOM     27  C   UNL     1       2.239   0.006   0.514  0.00  0.00    +0.000 C 
ATOM     28  O   UNL     1       2.711   1.124   0.671  0.00  0.00    +0.000 OA
ATOM     29  H   UNL     1       0.353   0.672   0.166  0.00  0.00    +0.000 HD
ATOM     30  H   UNL     1       0.445  -1.050   0.293  0.00  0.00    +0.000 HD
ENDBRANCH  18  27
ENDBRANCH  17  22
ENDBRANCH   1  17
TORSDOF 5
