REMARK  Name = 
REMARK  6 active torsions:
REMARK  status: ('A' for Active; 'I' for Inactive)
REMARK    1  A    between atoms: C_1  and  C_2
REMARK    2  A    between atoms: C_2  and  N_3
REMARK    3  A    between atoms: C_2  and  C_13
REMARK    4  A    between atoms: N_3  and  C_4
REMARK    5  A    between atoms: C_7  and  C_8
REMARK    6  A    between atoms: C_17  and  C_18
REMARK                            x       y       z     vdW  Elec       q    Type
REMARK                         _______ _______ _______ _____ _____    ______ ____
ROOT
ATOM      1  N   UNL     1       2.723  -0.546   1.427  0.00  0.00    +0.000 N 
ATOM      2  H   UNL     1       3.483  -1.221   1.356  0.00  0.00    +0.000 HD
ENDROOT
BRANCH   1   3
ATOM      3  C   UNL     1       2.895   0.287   2.536  0.00  0.00    +0.000 A 
ATOM      4  C   UNL     1       2.202   1.482   2.724  0.00  0.00    +0.000 A 
ATOM      5  C   UNL     1       2.334   2.205   3.912  0.00  0.00    +0.000 A 
ATOM      6  C   UNL     1       3.157   1.706   4.907  0.00  0.00    +0.000 A 
ATOM      7  N   UNL     1       3.855   0.545   4.792  0.00  0.00    +0.000 NA
ATOM      8  C   UNL     1       3.684  -0.128   3.623  0.00  0.00    +0.000 A 
BRANCH   6   9
ATOM      9  C   UNL     1       3.273   2.453   6.202  0.00  0.00    +0.000 C 
ATOM     10  N   UNL     1       4.100   1.899   7.141  0.00  0.00    +0.000 N 
ATOM     11  O   UNL     1       2.661   3.490   6.419  0.00  0.00    +0.000 OA
ATOM     12  H   UNL     1       4.571   1.023   6.947  0.00  0.00    +0.000 HD
ATOM     13  H   UNL     1       4.177   2.337   8.047  0.00  0.00    +0.000 HD
ENDBRANCH   6   9
ENDBRANCH   1   3
BRANCH   1  15
ATOM     14  C   UNL     1       0.845   0.076  -0.093  0.00  0.00    +0.000 C 
ATOM     15  C   UNL     1       2.361  -0.015   0.105  0.00  0.00    +0.000 C 
BRANCH  15  16
ATOM     16  C   UNL     1       2.955  -0.946  -0.951  0.00  0.00    +0.000 A 
ATOM     17  C   UNL     1       2.539  -2.284  -1.057  0.00  0.00    +0.000 A 
ATOM     18  C   UNL     1       3.096  -3.132  -2.014  0.00  0.00    +0.000 A 
ATOM     19  C   UNL     1       4.071  -2.653  -2.887  0.00  0.00    +0.000 A 
ATOM     20  C   UNL     1       4.492  -1.318  -2.818  0.00  0.00    +0.000 A 
ATOM     21  C   UNL     1       3.936  -0.476  -1.837  0.00  0.00    +0.000 A 
BRANCH  20  22
ATOM     22  C   UNL     1       5.512  -0.769  -3.785  0.00  0.00    +0.000 C 
ATOM     23  F   UNL     1       5.958  -1.685  -4.689  0.00  0.00    +0.000 F 
ATOM     24  F   UNL     1       5.021   0.269  -4.517  0.00  0.00    +0.000 F 
ATOM     25  F   UNL     1       6.622  -0.291  -3.157  0.00  0.00    +0.000 F 
ENDBRANCH  20  22
ENDBRANCH  15  16
ENDBRANCH   1  15
TORSDOF 5
