REMARK  Name = 
REMARK  9 active torsions:
REMARK  status: ('A' for Active; 'I' for Inactive)
REMARK    1  A    between atoms: N_1  and  C_2
REMARK    2  A    between atoms: C_2  and  C_3
REMARK    3  A    between atoms: C_3  and  N_4
REMARK    4  A    between atoms: C_3  and  C_26
REMARK    5  A    between atoms: N_4  and  C_5
REMARK    6  A    between atoms: C_5  and  C_6
REMARK    7  A    between atoms: C_9  and  C_10
REMARK    8  A    between atoms: C_10  and  N_11
REMARK    9  A    between atoms: C_12  and  C_14
REMARK                            x       y       z     vdW  Elec       q    Type
REMARK                         _______ _______ _______ _____ _____    ______ ____
ROOT
ATOM      1  C   UNL     1       2.852  -1.372  -2.136  0.00  0.00    +0.000 A 
ATOM      2  C   UNL     1       2.411  -2.652  -1.791  0.00  0.00    +0.000 A 
ATOM      3  C   UNL     1       1.781  -3.446  -2.743  0.00  0.00    +0.000 A 
ATOM      4  C   UNL     1       1.613  -2.940  -4.028  0.00  0.00    +0.000 A 
ATOM      5  N   UNL     1       2.008  -1.690  -4.384  0.00  0.00    +0.000 NA
ATOM      6  C   UNL     1       2.618  -0.944  -3.437  0.00  0.00    +0.000 A 
ENDROOT
BRANCH   1   7
ATOM      7  C   UNL     1       3.467  -0.456  -1.118  0.00  0.00    +0.000 C 
BRANCH   7   8
ATOM      8  N   UNL     1       4.638  -1.054  -0.476  0.00  0.00    +0.000 NA
ATOM      9  H   UNL     1       5.317  -1.305  -1.196  0.00  0.00    +0.000 HD
BRANCH   8  10
ATOM     10  C   UNL     1       5.295  -0.133   0.473  0.00  0.00    +0.000 C 
BRANCH  10  11
ATOM     11  C   UNL     1       6.580  -0.768   1.002  0.00  0.00    +0.000 A 
ATOM     12  C   UNL     1       7.804  -0.087   0.886  0.00  0.00    +0.000 A 
ATOM     13  C   UNL     1       8.984  -0.646   1.380  0.00  0.00    +0.000 A 
ATOM     14  C   UNL     1       8.958  -1.895   2.002  0.00  0.00    +0.000 A 
ATOM     15  C   UNL     1       7.755  -2.586   2.119  0.00  0.00    +0.000 A 
ATOM     16  C   UNL     1       6.573  -2.029   1.625  0.00  0.00    +0.000 A 
ENDBRANCH  10  11
BRANCH  10  17
ATOM     17  C   UNL     1       4.357   0.315   1.643  0.00  0.00    +0.000 C 
BRANCH  17  18
ATOM     18  N   UNL     1       4.929   1.312   2.557  0.00  0.00    +0.000 NA
ATOM     19  H   UNL     1       5.694   0.876   3.074  0.00  0.00    +0.000 HD
ATOM     20  H   UNL     1       5.352   2.064   2.017  0.00  0.00    +0.000 HD
ENDBRANCH  17  18
ENDBRANCH  10  17
ENDBRANCH   8  10
ENDBRANCH   7   8
ENDBRANCH   1   7
BRANCH   4  21
ATOM     21  C   UNL     1       0.905  -3.755  -5.080  0.00  0.00    +0.000 C 
BRANCH  21  22
ATOM     22  N   UNL     1      -0.511  -3.457  -5.109  0.00  0.00    +0.000 N 
ATOM     23  C   UNL     1      -1.425  -4.232  -4.435  0.00  0.00    +0.000 C 
ATOM     24  O   UNL     1      -1.116  -5.249  -3.828  0.00  0.00    +0.000 OA
ATOM     25  H   UNL     1      -0.763  -2.521  -5.394  0.00  0.00    +0.000 HD
BRANCH  23  26
ATOM     26  C   UNL     1      -2.809  -3.772  -4.550  0.00  0.00    +0.000 A 
ATOM     27  C   UNL     1      -3.290  -3.220  -5.730  0.00  0.00    +0.000 A 
ATOM     28  S   UNL     1      -4.954  -2.873  -5.682  0.00  0.00    +0.000 S 
ATOM     29  C   UNL     1      -5.077  -3.447  -4.087  0.00  0.00    +0.000 A 
ATOM     30  N   UNL     1      -6.272  -3.430  -3.474  0.00  0.00    +0.000 NA
ATOM     31  C   UNL     1      -6.223  -3.878  -2.221  0.00  0.00    +0.000 A 
ATOM     32  N   UNL     1      -5.141  -4.292  -1.558  0.00  0.00    +0.000 NA
ATOM     33  C   UNL     1      -3.977  -4.291  -2.227  0.00  0.00    +0.000 A 
ATOM     34 CL   UNL     1      -2.606  -4.684  -1.307  0.00  0.00    +0.000 Cl
ATOM     35  C   UNL     1      -3.866  -3.880  -3.556  0.00  0.00    +0.000 A 
ENDBRANCH  23  26
ENDBRANCH  21  22
ENDBRANCH   4  21
TORSDOF 9
