REMARK  Name = 
REMARK  7 active torsions:
REMARK  status: ('A' for Active; 'I' for Inactive)
REMARK    1  A    between atoms: N_1  and  C_2
REMARK    2  A    between atoms: C_2  and  C_3
REMARK    3  A    between atoms: C_3  and  C_4
REMARK    4  A    between atoms: C_7  and  C_8
REMARK    5  A    between atoms: C_8  and  N_9
REMARK    6  A    between atoms: C_14  and  C_15
REMARK    7  A    between atoms: C_15  and  O_17
REMARK                            x       y       z     vdW  Elec       q    Type
REMARK                         _______ _______ _______ _____ _____    ______ ____
ROOT
ATOM      1  N   UNL     1       9.970  -0.373  -1.103  0.00  0.00    +0.000 N 
ATOM      2  C   UNL     1      10.256   0.220  -2.307  0.00  0.00    +0.000 A 
ATOM      3  N   UNL     1      11.477   0.705  -2.334  0.00  0.00    +0.000 NA
ATOM      4  C   UNL     1      11.994   0.438  -1.096  0.00  0.00    +0.000 A 
ATOM      5  C   UNL     1      13.306   0.607  -0.637  0.00  0.00    +0.000 A 
ATOM      6  C   UNL     1      13.612   0.158   0.655  0.00  0.00    +0.000 A 
ATOM      7  C   UNL     1      12.609  -0.283   1.527  0.00  0.00    +0.000 A 
ATOM      8  C   UNL     1      11.289  -0.434   1.085  0.00  0.00    +0.000 A 
ATOM      9  C   UNL     1      11.037  -0.134  -0.260  0.00  0.00    +0.000 A 
ENDROOT
BRANCH   6  10
ATOM     10  C   UNL     1      15.021   0.079   1.101  0.00  0.00    +0.000 C 
ATOM     11  O   UNL     1      15.382   0.310   2.240  0.00  0.00    +0.000 OA
BRANCH  10  12
ATOM     12  O   UNL     1      15.846  -0.384   0.134  0.00  0.00    +0.000 OA
ATOM     13  H   UNL     1      15.400  -0.691  -0.679  0.00  0.00    +0.000 HD
ENDBRANCH  10  12
ENDBRANCH   6  10
BRANCH   1  14
ATOM     14  C   UNL     1       9.008  -1.457  -0.946  0.00  0.00    +0.000 C 
BRANCH  14  18
ATOM     15  C   UNL     1       4.812  -0.380  -0.784  0.00  0.00    +0.000 A 
ATOM     16  C   UNL     1       5.429  -0.662  -2.008  0.00  0.00    +0.000 A 
ATOM     17  C   UNL     1       6.791  -0.985  -2.064  0.00  0.00    +0.000 A 
ATOM     18  C   UNL     1       7.570  -1.022  -0.899  0.00  0.00    +0.000 A 
ATOM     19  C   UNL     1       6.962  -0.716   0.322  0.00  0.00    +0.000 A 
ATOM     20  C   UNL     1       5.601  -0.400   0.377  0.00  0.00    +0.000 A 
BRANCH  15  21
ATOM     21  C   UNL     1       3.358   0.032  -0.662  0.00  0.00    +0.000 C 
BRANCH  21  22
ATOM     22  C   UNL     1       2.384  -0.563  -1.693  0.00  0.00    +0.000 C 
BRANCH  22  23
ATOM     23  N   UNL     1       1.016  -0.117  -1.432  0.00  0.00    +0.000 NA
ATOM     24  H   UNL     1       0.393  -0.502  -2.140  0.00  0.00    +0.000 HD
ATOM     25  H   UNL     1       0.961   0.897  -1.528  0.00  0.00    +0.000 HD
ENDBRANCH  22  23
ENDBRANCH  21  22
ENDBRANCH  15  21
ENDBRANCH  14  18
ENDBRANCH   1  14
TORSDOF 7
