REMARK  Name = 
REMARK  10 active torsions:
REMARK  status: ('A' for Active; 'I' for Inactive)
REMARK    1  A    between atoms: C_1  and  O_2
REMARK    2  A    between atoms: O_2  and  C_3
REMARK    3  A    between atoms: C_6  and  C_7
REMARK    4  A    between atoms: C_11  and  N_12
REMARK    5  A    between atoms: N_12  and  C_13
REMARK    6  A    between atoms: C_13  and  C_14
REMARK    7  A    between atoms: C_18  and  C_19
REMARK    8  A    between atoms: C_23  and  C_24
REMARK    9  A    between atoms: C_24  and  C_25
REMARK   10  A    between atoms: C_24  and  O_26
REMARK                            x       y       z     vdW  Elec       q    Type
REMARK                         _______ _______ _______ _____ _____    ______ ____
ROOT
ATOM      1  C   UNL     1      13.094  10.496   2.655  0.00  0.00    +0.000 C 
ATOM      2  C   UNL     1      14.531  10.124   2.996  0.00  0.00    +0.000 C 
ATOM      3  C   UNL     1      13.935   9.627   1.723  0.00  0.00    +0.000 C 
ENDROOT
BRANCH   1   4
ATOM      4  C   UNL     1      11.936   9.739   3.298  0.00  0.00    +0.000 A 
ATOM      5  C   UNL     1      10.883   9.219   2.530  0.00  0.00    +0.000 A 
ATOM      6  C   UNL     1       9.928   8.373   3.094  0.00  0.00    +0.000 A 
ATOM      7  C   UNL     1      10.008   8.027   4.443  0.00  0.00    +0.000 A 
ATOM      8  C   UNL     1      11.031   8.537   5.257  0.00  0.00    +0.000 A 
ATOM      9  C   UNL     1      11.954   9.416   4.663  0.00  0.00    +0.000 A 
BRANCH   8  10
ATOM     10  C   UNL     1      11.230   8.098   6.655  0.00  0.00    +0.000 A 
ATOM     11  C   UNL     1      11.036   6.763   7.032  0.00  0.00    +0.000 A 
ATOM     12  C   UNL     1      11.350   6.319   8.315  0.00  0.00    +0.000 A 
ATOM     13  C   UNL     1      11.886   7.206   9.250  0.00  0.00    +0.000 A 
ATOM     14  C   UNL     1      12.085   8.556   8.922  0.00  0.00    +0.000 A 
ATOM     15  C   UNL     1      11.734   8.985   7.632  0.00  0.00    +0.000 A 
BRANCH  14  16
ATOM     16  C   UNL     1      12.767   9.469   9.921  0.00  0.00    +0.000 C 
ATOM     17  C   UNL     1      12.339  10.932   9.877  0.00  0.00    +0.000 C 
BRANCH  16  18
ATOM     18  O   UNL     1      14.179   9.435   9.697  0.00  0.00    +0.000 OA
ATOM     19  H   UNL     1      14.328   9.080   8.805  0.00  0.00    +0.000 HD
ENDBRANCH  16  18
ENDBRANCH  14  16
ENDBRANCH   8  10
ENDBRANCH   1   4
BRANCH   1  20
ATOM     20  N   UNL     1      12.807  11.893   2.274  0.00  0.00    +0.000 N 
ATOM     21  H   UNL     1      12.086  12.056   1.572  0.00  0.00    +0.000 HD
BRANCH  20  27
ATOM     22  C   UNL     1      12.425  14.269   2.735  0.00  0.00    +0.000 A 
ATOM     23  C   UNL     1      12.560  15.382   3.570  0.00  0.00    +0.000 A 
ATOM     24  C   UNL     1      13.144  15.252   4.832  0.00  0.00    +0.000 A 
ATOM     25  C   UNL     1      13.602  14.007   5.276  0.00  0.00    +0.000 A 
ATOM     26  C   UNL     1      13.469  12.895   4.436  0.00  0.00    +0.000 A 
ATOM     27  C   UNL     1      12.865  12.996   3.172  0.00  0.00    +0.000 A 
BRANCH  25  28
ATOM     28  C   UNL     1      14.206  13.936   6.640  0.00  0.00    +0.000 C 
ATOM     29  N   UNL     1      14.647  12.733   7.102  0.00  0.00    +0.000 N 
ATOM     30  O   UNL     1      14.304  14.939   7.343  0.00  0.00    +0.000 OA
ATOM     31  H   UNL     1      14.632  11.868   6.595  0.00  0.00    +0.000 HD
ATOM     32  H   UNL     1      15.050  12.726   8.034  0.00  0.00    +0.000 HD
ENDBRANCH  25  28
BRANCH  22  34
ATOM     33  C   UNL     1      11.670  15.611   0.921  0.00  0.00    +0.000 C 
ATOM     34  O   UNL     1      11.855  14.313   1.483  0.00  0.00    +0.000 OA
ENDBRANCH  22  34
ENDBRANCH  20  27
ENDBRANCH   1  20
TORSDOF 8
