REMARK  Name = 
REMARK  7 active torsions:
REMARK  status: ('A' for Active; 'I' for Inactive)
REMARK    1  A    between atoms: C_2  and  C_20
REMARK    2  A    between atoms: N_3  and  C_4
REMARK    3  A    between atoms: C_4  and  C_5
REMARK    4  A    between atoms: C_8  and  C_9
REMARK    5  A    between atoms: C_9  and  O_10
REMARK    6  A    between atoms: C_9  and  C_11
REMARK    7  A    between atoms: C_11  and  C_12
REMARK                            x       y       z     vdW  Elec       q    Type
REMARK                         _______ _______ _______ _____ _____    ______ ____
ROOT
ATOM      1  C   UNL     1       2.241  -1.552  -1.845  0.00  0.00    +0.000 C 
ENDROOT
BRANCH   1   2
ATOM      2  C   UNL     1       3.178  -2.355  -2.707  0.00  0.00    +0.000 A 
ATOM      3  C   UNL     1       4.200  -1.725  -3.424  0.00  0.00    +0.000 A 
ATOM      4  C   UNL     1       5.053  -2.468  -4.243  0.00  0.00    +0.000 A 
ATOM      5  C   UNL     1       4.893  -3.856  -4.381  0.00  0.00    +0.000 A 
ATOM      6  C   UNL     1       3.864  -4.479  -3.659  0.00  0.00    +0.000 A 
ATOM      7  C   UNL     1       3.009  -3.737  -2.843  0.00  0.00    +0.000 A 
BRANCH   5   8
ATOM      8  C   UNL     1       5.868  -4.629  -5.251  0.00  0.00    +0.000 C 
BRANCH   8   9
ATOM      9  O   UNL     1       6.967  -5.011  -4.421  0.00  0.00    +0.000 OA
ATOM     10  H   UNL     1       6.601  -5.433  -3.626  0.00  0.00    +0.000 HD
ENDBRANCH   8   9
BRANCH   8  11
ATOM     11  C   UNL     1       5.265  -5.879  -5.927  0.00  0.00    +0.000 C 
BRANCH  11  12
ATOM     12  C   UNL     1       6.152  -6.683  -6.850  0.00  0.00    +0.000 A 
ATOM     13  C   UNL     1       5.626  -7.831  -7.455  0.00  0.00    +0.000 A 
ATOM     14  C   UNL     1       6.430  -8.627  -8.258  0.00  0.00    +0.000 A 
ATOM     15  C   UNL     1       7.749  -8.251  -8.441  0.00  0.00    +0.000 A 
ATOM     16  N   UNL     1       8.293  -7.147  -7.891  0.00  0.00    +0.000 NA
ATOM     17  C   UNL     1       7.489  -6.392  -7.106  0.00  0.00    +0.000 A 
ENDBRANCH  11  12
ENDBRANCH   8  11
ENDBRANCH   5   8
ENDBRANCH   1   2
BRANCH   1  20
ATOM     18  O   UNL     1       1.885   0.937  -3.103  0.00  0.00    +0.000 OA
ATOM     19  C   UNL     1       1.028   0.069  -3.245  0.00  0.00    +0.000 C 
ATOM     20  N   UNL     1       1.087  -1.140  -2.602  0.00  0.00    +0.000 N 
ATOM     21  H   UNL     1       0.475  -1.887  -2.910  0.00  0.00    +0.000 HD
BRANCH  19  22
ATOM     22  C   UNL     1      -0.159   0.295  -4.077  0.00  0.00    +0.000 A 
ATOM     23  C   UNL     1      -0.576   1.593  -4.343  0.00  0.00    +0.000 A 
ATOM     24  S   UNL     1      -1.983   1.674  -5.301  0.00  0.00    +0.000 S 
ATOM     25  C   UNL     1      -2.059  -0.020  -5.434  0.00  0.00    +0.000 A 
ATOM     26  N   UNL     1      -3.036  -0.621  -6.166  0.00  0.00    +0.000 NA
ATOM     27  C   UNL     1      -2.951  -1.908  -6.217  0.00  0.00    +0.000 A 
ATOM     28  N   UNL     1      -1.978  -2.649  -5.596  0.00  0.00    +0.000 N 
ATOM     29  C   UNL     1      -1.015  -2.094  -4.788  0.00  0.00    +0.000 A 
ATOM     30  O   UNL     1      -0.242  -2.800  -4.146  0.00  0.00    +0.000 OA
ATOM     31  C   UNL     1      -1.040  -0.642  -4.735  0.00  0.00    +0.000 A 
ATOM     32  H   UNL     1      -1.983  -3.657  -5.655  0.00  0.00    +0.000 HD
ENDBRANCH  19  22
ENDBRANCH   1  20
TORSDOF 7
