REMARK  Name = 
REMARK  7 active torsions:
REMARK  status: ('A' for Active; 'I' for Inactive)
REMARK    1  A    between atoms: C_1  and  O_2
REMARK    2  A    between atoms: O_2  and  C_3
REMARK    3  A    between atoms: C_5  and  C_6
REMARK    4  A    between atoms: C_6  and  N_7
REMARK    5  A    between atoms: C_8  and  C_10
REMARK    6  A    between atoms: C_22  and  C_23
REMARK    7  A    between atoms: C_23  and  N_24
REMARK                            x       y       z     vdW  Elec       q    Type
REMARK                         _______ _______ _______ _____ _____    ______ ____
ROOT
ATOM      1  C   UNL     1       3.166  -2.487  -4.498  0.00  0.00    +0.000 C 
ENDROOT
BRANCH   1   4
ATOM      2  C   UNL     1       2.970  -0.902  -1.010  0.00  0.00    +0.000 A 
ATOM      3  C   UNL     1       2.711  -1.216  -2.360  0.00  0.00    +0.000 A 
ATOM      4  C   UNL     1       3.457  -2.179  -3.053  0.00  0.00    +0.000 A 
ATOM      5  C   UNL     1       4.458  -2.859  -2.361  0.00  0.00    +0.000 A 
ATOM      6  C   UNL     1       4.704  -2.570  -1.015  0.00  0.00    +0.000 A 
ATOM      7  C   UNL     1       3.963  -1.600  -0.301  0.00  0.00    +0.000 A 
BRANCH   2   9
ATOM      8  C   UNL     1       2.733   1.141   0.171  0.00  0.00    +0.000 C 
ATOM      9  O   UNL     1       2.123   0.048  -0.505  0.00  0.00    +0.000 OA
ENDBRANCH   2   9
BRANCH   7  10
ATOM     10  C   UNL     1       4.337  -1.382   1.156  0.00  0.00    +0.000 C 
BRANCH  10  11
ATOM     11  N   UNL     1       3.685  -2.163   2.209  0.00  0.00    +0.000 NA
ATOM     12  C   UNL     1       3.833  -3.611   2.138  0.00  0.00    +0.000 C 
ATOM     13  C   UNL     1       2.516  -4.114   1.585  0.00  0.00    +0.000 C 
ATOM     14  C   UNL     1       1.495  -3.144   2.148  0.00  0.00    +0.000 C 
ATOM     15  C   UNL     1       2.275  -1.872   2.453  0.00  0.00    +0.000 C 
ENDBRANCH  10  11
ENDBRANCH   7  10
ENDBRANCH   1   4
BRANCH   1  16
ATOM     16  N   UNL     1       2.197  -3.547  -4.636  0.00  0.00    +0.000 N 
ATOM     17  C   UNL     1       0.872  -3.306  -4.886  0.00  0.00    +0.000 C 
ATOM     18  O   UNL     1       0.429  -2.166  -5.008  0.00  0.00    +0.000 OA
ATOM     19  H   UNL     1       2.500  -4.481  -4.381  0.00  0.00    +0.000 HD
BRANCH  17  20
ATOM     20  C   UNL     1       0.007  -4.481  -5.075  0.00  0.00    +0.000 A 
ATOM     21  C   UNL     1      -1.224  -4.321  -5.700  0.00  0.00    +0.000 A 
ATOM     22  S   UNL     1      -2.100  -5.771  -5.877  0.00  0.00    +0.000 S 
ATOM     23  C   UNL     1      -0.887  -6.661  -5.084  0.00  0.00    +0.000 A 
ATOM     24  N   UNL     1      -1.033  -7.996  -4.872  0.00  0.00    +0.000 NA
ATOM     25  C   UNL     1      -0.059  -8.544  -4.225  0.00  0.00    +0.000 A 
ATOM     26  N   UNL     1       1.056  -7.880  -3.788  0.00  0.00    +0.000 N 
ATOM     27  C   UNL     1       1.273  -6.545  -4.032  0.00  0.00    +0.000 A 
ATOM     28  O   UNL     1       2.328  -6.003  -3.709  0.00  0.00    +0.000 OA
ATOM     29  C   UNL     1       0.186  -5.869  -4.713  0.00  0.00    +0.000 A 
ATOM     30  H   UNL     1       1.797  -8.373  -3.312  0.00  0.00    +0.000 HD
ENDBRANCH  17  20
ENDBRANCH   1  16
TORSDOF 6
