REMARK  Name = 
REMARK  9 active torsions:
REMARK  status: ('A' for Active; 'I' for Inactive)
REMARK    1  A    between atoms: C_1  and  O_2
REMARK    2  A    between atoms: O_2  and  C_3
REMARK    3  A    between atoms: C_10  and  C_11
REMARK    4  A    between atoms: N_13  and  C_14
REMARK    5  A    between atoms: C_14  and  C_15
REMARK    6  A    between atoms: C_18  and  C_19
REMARK    7  A    between atoms: C_19  and  N_20
REMARK    8  A    between atoms: N_20  and  C_21
REMARK    9  A    between atoms: C_26  and  C_27
REMARK                            x       y       z     vdW  Elec       q    Type
REMARK                         _______ _______ _______ _____ _____    ______ ____
ROOT
ATOM      1  C   UNL     1       1.830  -1.324  -3.019  0.00  0.00    +0.000 A 
ATOM      2  C   UNL     1       1.909  -2.723  -3.013  0.00  0.00    +0.000 A 
ATOM      3  C   UNL     1       0.801  -3.497  -2.651  0.00  0.00    +0.000 A 
ATOM      4  C   UNL     1      -0.413  -2.887  -2.310  0.00  0.00    +0.000 A 
ATOM      5  C   UNL     1      -0.498  -1.488  -2.344  0.00  0.00    +0.000 A 
ATOM      6  C   UNL     1       0.610  -0.716  -2.702  0.00  0.00    +0.000 A 
ENDROOT
BRANCH   1   7
ATOM      7  C   UNL     1       3.031  -0.486  -3.364  0.00  0.00    +0.000 C 
BRANCH   7  10
ATOM      8  C   UNL     1       4.148   0.484  -5.319  0.00  0.00    +0.000 C 
ATOM      9  O   UNL     1       5.020   0.973  -4.605  0.00  0.00    +0.000 OA
ATOM     10  N   UNL     1       3.119  -0.241  -4.783  0.00  0.00    +0.000 N 
ATOM     11  H   UNL     1       2.385  -0.609  -5.371  0.00  0.00    +0.000 HD
BRANCH   8  19
ATOM     12  C   UNL     1       2.100  -0.587  -7.883  0.00  0.00    +0.000 A 
ATOM     13  N   UNL     1       1.538  -0.927  -9.062  0.00  0.00    +0.000 NA
ATOM     14  C   UNL     1       2.136  -0.524 -10.186  0.00  0.00    +0.000 A 
ATOM     15  N   UNL     1       3.245   0.203 -10.286  0.00  0.00    +0.000 NA
ATOM     16  C   UNL     1       3.779   0.511  -9.093  0.00  0.00    +0.000 A 
ATOM     17  S   UNL     1       5.196   1.445  -9.032  0.00  0.00    +0.000 S 
ATOM     18  C   UNL     1       5.228   1.369  -7.333  0.00  0.00    +0.000 A 
ATOM     19  C   UNL     1       4.182   0.645  -6.783  0.00  0.00    +0.000 A 
ATOM     20  C   UNL     1       3.297   0.151  -7.837  0.00  0.00    +0.000 A 
BRANCH  12  22
ATOM     21  C   UNL     1       0.228  -1.646  -6.929  0.00  0.00    +0.000 C 
ATOM     22  O   UNL     1       1.464  -0.967  -6.719  0.00  0.00    +0.000 OA
ENDBRANCH  12  22
ENDBRANCH   8  19
ENDBRANCH   7  10
ENDBRANCH   1   7
BRANCH   4  23
ATOM     23  C   UNL     1      -1.604  -3.711  -1.877  0.00  0.00    +0.000 C 
BRANCH  23  24
ATOM     24  N   UNL     1      -1.643  -3.875  -0.432  0.00  0.00    +0.000 NA
ATOM     25  H   UNL     1      -1.608  -2.986   0.053  0.00  0.00    +0.000 HD
BRANCH  24  26
ATOM     26  C   UNL     1      -2.744  -4.679   0.037  0.00  0.00    +0.000 C 
ATOM     27  C   UNL     1      -4.113  -4.069  -0.298  0.00  0.00    +0.000 C 
ATOM     28  C   UNL     1      -5.043  -4.740   0.697  0.00  0.00    +0.000 C 
ATOM     29  C   UNL     1      -4.174  -4.925   1.932  0.00  0.00    +0.000 C 
ATOM     30  N   UNL     1      -2.792  -4.766   1.490  0.00  0.00    +0.000 N 
ATOM     31  C   UNL     1      -1.698  -5.036   2.296  0.00  0.00    +0.000 C 
ATOM     32  C   UNL     1      -1.955  -5.256   3.772  0.00  0.00    +0.000 C 
ATOM     33  O   UNL     1      -0.534  -5.063   1.897  0.00  0.00    +0.000 OA
ENDBRANCH  24  26
ENDBRANCH  23  24
ENDBRANCH   4  23
TORSDOF 7
