REMARK  Name = 
REMARK  6 active torsions:
REMARK  status: ('A' for Active; 'I' for Inactive)
REMARK    1  A    between atoms: C_1  and  O_2
REMARK    2  A    between atoms: O_2  and  C_3
REMARK    3  A    between atoms: C_6  and  C_7
REMARK    4  A    between atoms: C_12  and  C_13
REMARK    5  A    between atoms: N_14  and  C_15
REMARK    6  A    between atoms: C_15  and  C_16
REMARK                            x       y       z     vdW  Elec       q    Type
REMARK                         _______ _______ _______ _____ _____    ______ ____
ROOT
ATOM      1  C   UNL     1       3.140   0.902   1.087  0.00  0.00    +0.000 A 
ATOM      2  N   UNL     1       2.865   1.050   2.404  0.00  0.00    +0.000 NA
ATOM      3  C   UNL     1       3.554   1.943   3.137  0.00  0.00    +0.000 A 
ATOM      4  C   UNL     1       4.570   2.743   2.646  0.00  0.00    +0.000 A 
ATOM      5  C   UNL     1       4.896   2.591   1.281  0.00  0.00    +0.000 A 
ATOM      6  C   UNL     1       5.806   3.228   0.397  0.00  0.00    +0.000 A 
ATOM      7  C   UNL     1       5.686   2.666  -0.855  0.00  0.00    +0.000 A 
ATOM      8  C   UNL     1       6.431   3.031  -2.093  0.00  0.00    +0.000 C 
ATOM      9  N   UNL     1       4.708   1.688  -0.782  0.00  0.00    +0.000 N 
ATOM     10  C   UNL     1       4.184   1.645   0.511  0.00  0.00    +0.000 A 
ENDROOT
BRANCH   4  11
ATOM     11  C   UNL     1       5.181   3.712   3.575  0.00  0.00    +0.000 C 
ATOM     12  N   UNL     1       6.477   4.086   3.363  0.00  0.00    +0.000 N 
ATOM     13  O   UNL     1       4.567   4.137   4.545  0.00  0.00    +0.000 OA
ATOM     14  H   UNL     1       7.089   3.580   2.739  0.00  0.00    +0.000 HD
ATOM     15  H   UNL     1       6.901   4.666   4.076  0.00  0.00    +0.000 HD
ENDBRANCH   4  11
BRANCH   1  17
ATOM     16  C   UNL     1       1.113  -0.226   0.992  0.00  0.00    +0.000 C 
ATOM     17  O   UNL     1       2.375   0.011   0.360  0.00  0.00    +0.000 OA
ENDBRANCH   1  17
BRANCH   9  18
ATOM     18  C   UNL     1       4.241   0.909  -1.935  0.00  0.00    +0.000 C 
BRANCH  18  19
ATOM     19  C   UNL     1       5.096  -0.286  -2.221  0.00  0.00    +0.000 A 
ATOM     20  C   UNL     1       5.142  -1.392  -1.394  0.00  0.00    +0.000 A 
ATOM     21  N   UNL     1       5.896  -2.484  -1.637  0.00  0.00    +0.000 NA
ATOM     22  C   UNL     1       6.625  -2.455  -2.761  0.00  0.00    +0.000 A 
ATOM     23  N   UNL     1       6.654  -1.451  -3.650  0.00  0.00    +0.000 NA
ATOM     24  C   UNL     1       5.879  -0.388  -3.356  0.00  0.00    +0.000 A 
ENDBRANCH  18  19
ENDBRANCH   9  18
TORSDOF 4
