REMARK  Name = 
REMARK  9 active torsions:
REMARK  status: ('A' for Active; 'I' for Inactive)
REMARK    1  A    between atoms: C_1  and  C_2
REMARK    2  A    between atoms: C_2  and  N_3
REMARK    3  A    between atoms: C_2  and  C_16
REMARK    4  A    between atoms: C_4  and  C_6
REMARK    5  A    between atoms: C_19  and  C_20
REMARK    6  A    between atoms: C_20  and  N_21
REMARK    7  A    between atoms: N_21  and  C_22
REMARK    8  A    between atoms: C_22  and  C_23
REMARK    9  A    between atoms: C_22  and  C_24
REMARK                            x       y       z     vdW  Elec       q    Type
REMARK                         _______ _______ _______ _____ _____    ______ ____
ROOT
ATOM      1  C   UNL     1      11.424  -8.473  -6.699  0.00  0.00    +0.000 C 
ATOM      2  C   UNL     1      11.011  -8.333  -5.232  0.00  0.00    +0.000 C 
ENDROOT
BRANCH   2   3
ATOM      3  C   UNL     1       9.501  -8.295  -5.079  0.00  0.00    +0.000 A 
ATOM      4  C   UNL     1       8.914  -7.454  -4.136  0.00  0.00    +0.000 A 
ATOM      5  N   UNL     1       7.571  -7.316  -3.995  0.00  0.00    +0.000 NA
ATOM      6  C   UNL     1       6.812  -8.066  -4.839  0.00  0.00    +0.000 A 
ATOM      7  C   UNL     1       7.397  -8.929  -5.759  0.00  0.00    +0.000 A 
ATOM      8  N   UNL     1       8.737  -9.075  -5.886  0.00  0.00    +0.000 NA
BRANCH   6   9
ATOM      9  C   UNL     1       5.307  -7.963  -4.742  0.00  0.00    +0.000 C 
BRANCH   9  10
ATOM     10  N   UNL     1       4.752  -6.609  -4.910  0.00  0.00    +0.000 NA
ATOM     11  H   UNL     1       5.216  -6.023  -4.212  0.00  0.00    +0.000 HD
BRANCH  10  12
ATOM     12  C   UNL     1       5.029  -6.017  -6.237  0.00  0.00    +0.000 C 
ATOM     13  C   UNL     1       4.472  -4.584  -6.230  0.00  0.00    +0.000 C 
BRANCH  12  14
ATOM     14  C   UNL     1       4.450  -6.794  -7.420  0.00  0.00    +0.000 A 
ATOM     15  C   UNL     1       3.082  -7.011  -7.541  0.00  0.00    +0.000 A 
ATOM     16  C   UNL     1       2.592  -7.635  -8.687  0.00  0.00    +0.000 A 
ATOM     17  C   UNL     1       3.480  -8.047  -9.671  0.00  0.00    +0.000 A 
ATOM     18  C   UNL     1       4.829  -7.836  -9.456  0.00  0.00    +0.000 A 
ATOM     19  N   UNL     1       5.333  -7.226  -8.359  0.00  0.00    +0.000 NA
ENDBRANCH  12  14
ENDBRANCH  10  12
ENDBRANCH   9  10
ENDBRANCH   6   9
ENDBRANCH   2   3
BRANCH   2  20
ATOM     20  N   UNL     1      11.611  -9.378  -4.413  0.00  0.00    +0.000 N 
ATOM     21  C   UNL     1      12.849  -9.200  -3.845  0.00  0.00    +0.000 C 
ATOM     22  O   UNL     1      13.486  -8.160  -4.001  0.00  0.00    +0.000 OA
ATOM     23  H   UNL     1      11.203 -10.309  -4.469  0.00  0.00    +0.000 HD
BRANCH  21  24
ATOM     24  C   UNL     1      13.352 -10.262  -2.968  0.00  0.00    +0.000 A 
ATOM     25  C   UNL     1      14.262  -9.939  -1.968  0.00  0.00    +0.000 A 
ATOM     26  S   UNL     1      14.742 -11.271  -1.020  0.00  0.00    +0.000 S 
ATOM     27  C   UNL     1      13.794 -12.337  -1.948  0.00  0.00    +0.000 A 
ATOM     28  N   UNL     1      13.794 -13.672  -1.688  0.00  0.00    +0.000 NA
ATOM     29  C   UNL     1      13.068 -14.370  -2.496  0.00  0.00    +0.000 A 
ATOM     30  N   UNL     1      12.329 -13.852  -3.528  0.00  0.00    +0.000 N 
ATOM     31  C   UNL     1      12.258 -12.502  -3.792  0.00  0.00    +0.000 A 
ATOM     32  O   UNL     1      11.520 -12.054  -4.665  0.00  0.00    +0.000 OA
ATOM     33  C   UNL     1      13.092 -11.679  -2.942  0.00  0.00    +0.000 A 
ATOM     34  H   UNL     1      11.764 -14.452  -4.109  0.00  0.00    +0.000 HD
ENDBRANCH  21  24
ENDBRANCH   2  20
TORSDOF 7
