REMARK  Name = 
REMARK  6 active torsions:
REMARK  status: ('A' for Active; 'I' for Inactive)
REMARK    1  A    between atoms: N_1  and  C_2
REMARK    2  A    between atoms: C_2  and  C_3
REMARK    3  A    between atoms: C_6  and  O_7
REMARK    4  A    between atoms: O_7  and  C_8
REMARK    5  A    between atoms: C_8  and  C_9
REMARK    6  A    between atoms: C_12  and  C_13
REMARK                            x       y       z     vdW  Elec       q    Type
REMARK                         _______ _______ _______ _____ _____    ______ ____
ROOT
ATOM      1  O   UNL     1       3.911  -3.362   4.143  0.00  0.00    +0.000 OA
ENDROOT
BRANCH   1   5
ATOM      2  C   UNL     1       3.252  -0.878   0.920  0.00  0.00    +0.000 A 
ATOM      3  C   UNL     1       3.858  -0.315   2.041  0.00  0.00    +0.000 A 
ATOM      4  C   UNL     1       4.113  -1.113   3.158  0.00  0.00    +0.000 A 
ATOM      5  C   UNL     1       3.751  -2.456   3.136  0.00  0.00    +0.000 A 
ATOM      6  C   UNL     1       3.162  -2.935   1.971  0.00  0.00    +0.000 A 
ATOM      7  N   UNL     1       2.907  -2.188   0.869  0.00  0.00    +0.000 NA
BRANCH   2   8
ATOM      8  C   UNL     1       2.932  -0.023  -0.288  0.00  0.00    +0.000 C 
BRANCH   8   9
ATOM      9  N   UNL     1       4.116   0.622  -0.866  0.00  0.00    +0.000 NA
ATOM     10  H   UNL     1       3.847   1.055  -1.747  0.00  0.00    +0.000 HD
ATOM     11  H   UNL     1       4.782  -0.112  -1.111  0.00  0.00    +0.000 HD
ENDBRANCH   8   9
ENDBRANCH   2   8
ENDBRANCH   1   5
BRANCH   1  12
ATOM     12  C   UNL     1       4.488  -2.881   5.354  0.00  0.00    +0.000 C 
BRANCH  12  13
ATOM     13  C   UNL     1       4.553  -4.024   6.337  0.00  0.00    +0.000 A 
ATOM     14  C   UNL     1       5.673  -4.865   6.374  0.00  0.00    +0.000 A 
ATOM     15  C   UNL     1       5.743  -5.914   7.293  0.00  0.00    +0.000 A 
ATOM     16  C   UNL     1       4.690  -6.149   8.189  0.00  0.00    +0.000 A 
ATOM     17  C   UNL     1       3.556  -5.324   8.131  0.00  0.00    +0.000 A 
ATOM     18  C   UNL     1       3.486  -4.275   7.210  0.00  0.00    +0.000 A 
BRANCH  16  19
ATOM     19  C   UNL     1       4.766  -7.261   9.206  0.00  0.00    +0.000 C 
ATOM     20  F   UNL     1       5.925  -7.976   9.147  0.00  0.00    +0.000 F 
ATOM     21  F   UNL     1       4.681  -6.800  10.485  0.00  0.00    +0.000 F 
ATOM     22  F   UNL     1       3.761  -8.169   9.068  0.00  0.00    +0.000 F 
ENDBRANCH  16  19
ENDBRANCH  12  13
ENDBRANCH   1  12
TORSDOF 6
