REMARK  Name = 
REMARK  4 active torsions:
REMARK  status: ('A' for Active; 'I' for Inactive)
REMARK    1  A    between atoms: N_1  and  C_2
REMARK    2  A    between atoms: C_2  and  C_3
REMARK    3  A    between atoms: C_7  and  C_8
REMARK    4  A    between atoms: C_8  and  N_9
REMARK                            x       y       z     vdW  Elec       q    Type
REMARK                         _______ _______ _______ _____ _____    ______ ____
ROOT
ATOM      1  C   UNL     1       2.981   2.928  -0.012  0.00  0.00    +0.000 A 
ATOM      2  C   UNL     1       1.811   2.777  -0.768  0.00  0.00    +0.000 A 
ATOM      3  C   UNL     1       1.877   2.529  -2.138  0.00  0.00    +0.000 A 
ATOM      4  C   UNL     1       3.114   2.460  -2.779  0.00  0.00    +0.000 A 
ATOM      5  C   UNL     1       4.299   2.651  -2.054  0.00  0.00    +0.000 A 
ATOM      6  C   UNL     1       4.220   2.870  -0.668  0.00  0.00    +0.000 A 
ENDROOT
BRANCH   1   7
ATOM      7  C   UNL     1       2.908   3.199   1.470  0.00  0.00    +0.000 C 
BRANCH   7   8
ATOM      8  N   UNL     1       2.143   2.172   2.172  0.00  0.00    +0.000 NA
ATOM      9  H   UNL     1       2.197   2.345   3.173  0.00  0.00    +0.000 HD
ATOM     10  H   UNL     1       2.589   1.270   2.009  0.00  0.00    +0.000 HD
ENDBRANCH   7   8
ENDBRANCH   1   7
BRANCH   5  11
ATOM     11  C   UNL     1       5.639   2.685  -2.752  0.00  0.00    +0.000 C 
BRANCH  11  12
ATOM     12  N   UNL     1       5.981   4.036  -3.178  0.00  0.00    +0.000 N 
ATOM     13  C   UNL     1       5.697   4.570  -4.416  0.00  0.00    +0.000 A 
ATOM     14  C   UNL     1       6.164   5.868  -4.436  0.00  0.00    +0.000 A 
ATOM     15  C   UNL     1       6.764   6.129  -3.176  0.00  0.00    +0.000 A 
ATOM     16  C   UNL     1       7.390   7.236  -2.581  0.00  0.00    +0.000 A 
ATOM     17  C   UNL     1       7.864   7.090  -1.278  0.00  0.00    +0.000 A 
ATOM     18  C   UNL     1       7.713   5.864  -0.644  0.00  0.00    +0.000 A 
ATOM     19  N   UNL     1       7.124   4.765  -1.168  0.00  0.00    +0.000 NA
ATOM     20  C   UNL     1       6.660   4.959  -2.423  0.00  0.00    +0.000 A 
ENDBRANCH  11  12
ENDBRANCH   5  11
TORSDOF 4
