REMARK  Name = 
REMARK  9 active torsions:
REMARK  status: ('A' for Active; 'I' for Inactive)
REMARK    1  A    between atoms: C_1  and  C_2
REMARK    2  A    between atoms: C_2  and  C_3
REMARK    3  A    between atoms: C_2  and  C_4
REMARK    4  A    between atoms: C_2  and  C_15
REMARK    5  A    between atoms: C_4  and  N_5
REMARK    6  A    between atoms: N_5  and  C_6
REMARK    7  A    between atoms: C_9  and  C_10
REMARK    8  A    between atoms: C_17  and  C_18
REMARK    9  A    between atoms: C_21  and  C_22
REMARK                            x       y       z     vdW  Elec       q    Type
REMARK                         _______ _______ _______ _____ _____    ______ ____
ROOT
ATOM      1  C   UNL     1       1.037  -0.005   0.078  0.00  0.00    +0.000 C 
ATOM      2  C   UNL     1       2.581   0.035   0.092  0.00  0.00    +0.000 C 
ATOM      3  C   UNL     1       3.054   0.049   1.564  0.00  0.00    +0.000 C 
ENDROOT
BRANCH   2   4
ATOM      4  C   UNL     1       3.029   1.327  -0.605  0.00  0.00    +0.000 A 
ATOM      5  C   UNL     1       3.787   1.316  -1.776  0.00  0.00    +0.000 A 
ATOM      6  C   UNL     1       4.279   2.496  -2.344  0.00  0.00    +0.000 A 
ATOM      7  C   UNL     1       3.904   3.689  -1.726  0.00  0.00    +0.000 A 
ATOM      8  C   UNL     1       3.099   3.641  -0.599  0.00  0.00    +0.000 A 
ATOM      9  N   UNL     1       2.667   2.497  -0.026  0.00  0.00    +0.000 NA
BRANCH   6  10
ATOM     10  C   UNL     1       5.170   2.449  -3.525  0.00  0.00    +0.000 A 
ATOM     11  C   UNL     1       5.167   3.473  -4.482  0.00  0.00    +0.000 A 
ATOM     12  C   UNL     1       6.031   3.449  -5.581  0.00  0.00    +0.000 A 
ATOM     13  C   UNL     1       6.919   2.383  -5.766  0.00  0.00    +0.000 A 
ATOM     14  C   UNL     1       6.917   1.335  -4.839  0.00  0.00    +0.000 A 
ATOM     15  C   UNL     1       6.059   1.373  -3.736  0.00  0.00    +0.000 A 
BRANCH  13  16
ATOM     16  C   UNL     1       7.877   2.361  -6.930  0.00  0.00    +0.000 C 
ATOM     17  F   UNL     1       7.770   3.449  -7.742  0.00  0.00    +0.000 F 
ATOM     18  F   UNL     1       9.178   2.322  -6.530  0.00  0.00    +0.000 F 
ATOM     19  F   UNL     1       7.700   1.276  -7.733  0.00  0.00    +0.000 F 
ENDBRANCH  13  16
ENDBRANCH   6  10
ENDBRANCH   2   4
BRANCH   2  20
ATOM     20  C   UNL     1       3.099  -1.268  -0.599  0.00  0.00    +0.000 C 
BRANCH  20  21
ATOM     21  N   UNL     1       4.568  -1.336  -0.601  0.00  0.00    +0.000 N 
ATOM     22  H   UNL     1       4.988  -1.117   0.299  0.00  0.00    +0.000 HD
BRANCH  21  23
ATOM     23  C   UNL     1       5.246  -2.354  -1.264  0.00  0.00    +0.000 A 
ATOM     24  C   UNL     1       4.739  -3.022  -2.376  0.00  0.00    +0.000 A 
ATOM     25  C   UNL     1       5.494  -3.996  -3.036  0.00  0.00    +0.000 A 
ATOM     26  C   UNL     1       6.792  -4.295  -2.607  0.00  0.00    +0.000 A 
ATOM     27  C   UNL     1       7.326  -3.608  -1.522  0.00  0.00    +0.000 A 
ATOM     28  C   UNL     1       6.568  -2.634  -0.870  0.00  0.00    +0.000 A 
BRANCH  26  29
ATOM     29  C   UNL     1       7.538  -5.356  -3.329  0.00  0.00    +0.000 C 
ATOM     30  N   UNL     1       8.903  -5.302  -3.300  0.00  0.00    +0.000 N 
ATOM     31  O   UNL     1       6.957  -6.235  -3.951  0.00  0.00    +0.000 OA
ATOM     32  H   UNL     1       9.423  -4.509  -2.956  0.00  0.00    +0.000 HD
ATOM     33  H   UNL     1       9.390  -5.981  -3.869  0.00  0.00    +0.000 HD
ENDBRANCH  26  29
ENDBRANCH  21  23
ENDBRANCH  20  21
ENDBRANCH   2  20
TORSDOF 7
