REMARK  Name = 
REMARK  4 active torsions:
REMARK  status: ('A' for Active; 'I' for Inactive)
REMARK    1  A    between atoms: C_2  and  C_4
REMARK    2  A    between atoms: N_8  and  C_9
REMARK    3  A    between atoms: C_9  and  C_10
REMARK    4  A    between atoms: C_14  and  C_15
REMARK                            x       y       z     vdW  Elec       q    Type
REMARK                         _______ _______ _______ _____ _____    ______ ____
ROOT
ATOM      1  C   UNL     1       4.997  -4.148  -4.486  0.00  0.00    +0.000 C 
ENDROOT
BRANCH   1   6
ATOM      2  C   UNL     1       6.842  -2.657   0.094  0.00  0.00    +0.000 A 
ATOM      3  C   UNL     1       7.308  -2.413  -1.192  0.00  0.00    +0.000 A 
ATOM      4  C   UNL     1       6.617  -2.953  -2.276  0.00  0.00    +0.000 A 
ATOM      5  C   UNL     1       5.486  -3.732  -2.064  0.00  0.00    +0.000 A 
ATOM      6  N   UNL     1       4.707  -4.222  -3.076  0.00  0.00    +0.000 N 
ATOM      7  N   UNL     1       5.054  -4.011  -0.818  0.00  0.00    +0.000 NA
ATOM      8  C   UNL     1       5.736  -3.479   0.232  0.00  0.00    +0.000 A 
ATOM      9  H   UNL     1       3.998  -4.865  -2.746  0.00  0.00    +0.000 HD
BRANCH   2  11
ATOM     10  N   UNL     1       8.141  -0.886   1.119  0.00  0.00    +0.000 N 
ATOM     11  C   UNL     1       7.477  -2.070   1.289  0.00  0.00    +0.000 C 
ATOM     12  O   UNL     1       7.382  -2.595   2.391  0.00  0.00    +0.000 OA
ATOM     13  H   UNL     1       8.479  -0.436   1.960  0.00  0.00    +0.000 HD
ATOM     14  H   UNL     1       8.025  -0.308   0.298  0.00  0.00    +0.000 HD
ENDBRANCH   2  11
ENDBRANCH   1   6
BRANCH   1  15
ATOM     15  C   UNL     1       5.953  -5.231  -4.920  0.00  0.00    +0.000 A 
ATOM     16  C   UNL     1       7.192  -4.917  -5.489  0.00  0.00    +0.000 A 
ATOM     17  C   UNL     1       8.056  -5.931  -5.895  0.00  0.00    +0.000 A 
ATOM     18  C   UNL     1       7.693  -7.269  -5.727  0.00  0.00    +0.000 A 
ATOM     19  C   UNL     1       6.467  -7.626  -5.140  0.00  0.00    +0.000 A 
ATOM     20  C   UNL     1       5.604  -6.583  -4.759  0.00  0.00    +0.000 A 
BRANCH  19  21
ATOM     21  C   UNL     1       6.108  -9.037  -4.897  0.00  0.00    +0.000 A 
ATOM     22  C   UNL     1       7.057  -9.978  -4.480  0.00  0.00    +0.000 A 
ATOM     23  N   UNL     1       6.805 -11.288  -4.225  0.00  0.00    +0.000 NA
ATOM     24  C   UNL     1       5.524 -11.689  -4.376  0.00  0.00    +0.000 A 
ATOM     25  C   UNL     1       4.505 -10.843  -4.771  0.00  0.00    +0.000 A 
ATOM     26  F   UNL     1       3.252 -11.297  -4.896  0.00  0.00    +0.000 F 
ATOM     27  C   UNL     1       4.796  -9.512  -5.039  0.00  0.00    +0.000 A 
ENDBRANCH  19  21
ENDBRANCH   1  15
TORSDOF 4
