REMARK  Name = 
REMARK  3 active torsions:
REMARK  status: ('A' for Active; 'I' for Inactive)
REMARK    1  A    between atoms: C_2  and  C_4
REMARK    2  A    between atoms: N_11  and  C_12
REMARK    3  A    between atoms: C_12  and  C_13
REMARK                            x       y       z     vdW  Elec       q    Type
REMARK                         _______ _______ _______ _____ _____    ______ ____
ROOT
ATOM      1  C   UNL     1       3.374   0.275   1.191  0.00  0.00    +0.000 A 
ATOM      2  C   UNL     1       3.015  -0.466   2.314  0.00  0.00    +0.000 A 
ATOM      3  N   UNL     1       3.657  -0.458   3.511  0.00  0.00    +0.000 NA
ATOM      4  C   UNL     1       4.715   0.379   3.535  0.00  0.00    +0.000 A 
ATOM      5  C   UNL     1       5.167   1.187   2.492  0.00  0.00    +0.000 A 
ATOM      6  C   UNL     1       6.301   1.893   2.970  0.00  0.00    +0.000 A 
ATOM      7  C   UNL     1       6.529   1.485   4.267  0.00  0.00    +0.000 A 
ATOM      8  N   UNL     1       5.552   0.577   4.605  0.00  0.00    +0.000 N 
ATOM      9  C   UNL     1       4.469   1.139   1.273  0.00  0.00    +0.000 A 
ENDROOT
BRANCH   1  11
ATOM     10  N   UNL     1       3.176   0.427  -1.230  0.00  0.00    +0.000 N 
ATOM     11  C   UNL     1       2.567   0.129  -0.040  0.00  0.00    +0.000 C 
ATOM     12  O   UNL     1       1.408  -0.259  -0.005  0.00  0.00    +0.000 OA
ATOM     13  H   UNL     1       2.641   0.234  -2.067  0.00  0.00    +0.000 HD
ATOM     14  H   UNL     1       4.177   0.520  -1.330  0.00  0.00    +0.000 HD
ENDBRANCH   1  11
BRANCH   8  15
ATOM     15  C   UNL     1       5.505  -0.160   5.854  0.00  0.00    +0.000 C 
BRANCH  15  16
ATOM     16  C   UNL     1       4.685   0.497   6.984  0.00  0.00    +0.000 C 
ATOM     17  C   UNL     1       5.264   1.865   7.386  0.00  0.00    +0.000 C 
ATOM     18  C   UNL     1       4.795   2.338   8.755  0.00  0.00    +0.000 C 
ATOM     19  O   UNL     1       5.018   1.329   9.734  0.00  0.00    +0.000 OA
ATOM     20  C   UNL     1       4.215   0.181   9.479  0.00  0.00    +0.000 C 
ATOM     21  C   UNL     1       4.636  -0.479   8.175  0.00  0.00    +0.000 C 
ENDBRANCH  15  16
ENDBRANCH   8  15
TORSDOF 3
