REMARK  Name = 
REMARK  8 active torsions:
REMARK  status: ('A' for Active; 'I' for Inactive)
REMARK    1  A    between atoms: C_1  and  C_2
REMARK    2  A    between atoms: C_4  and  O_5
REMARK    3  A    between atoms: O_5  and  C_6
REMARK    4  A    between atoms: C_6  and  C_7
REMARK    5  A    between atoms: C_10  and  C_11
REMARK    6  A    between atoms: C_12  and  C_13
REMARK    7  A    between atoms: C_20  and  C_21
REMARK    8  A    between atoms: C_21  and  O_23
REMARK                            x       y       z     vdW  Elec       q    Type
REMARK                         _______ _______ _______ _____ _____    ______ ____
ROOT
ATOM      1  C   UNL     1      -2.911   2.585   0.005  0.00  0.00    +0.000 C 
ENDROOT
BRANCH   1   2
ATOM      2  C   UNL     1      -3.307   4.041   0.079  0.00  0.00    +0.000 A 
ATOM      3  C   UNL     1      -3.510   4.779  -1.093  0.00  0.00    +0.000 A 
ATOM      4  C   UNL     1      -3.892   6.123  -1.032  0.00  0.00    +0.000 A 
ATOM      5  C   UNL     1      -4.088   6.762   0.199  0.00  0.00    +0.000 A 
ATOM      6  C   UNL     1      -3.867   6.026   1.370  0.00  0.00    +0.000 A 
ATOM      7  C   UNL     1      -3.483   4.679   1.312  0.00  0.00    +0.000 A 
BRANCH   5   8
ATOM      8  C   UNL     1      -4.452   8.186   0.297  0.00  0.00    +0.000 C 
ATOM      9  C   UNL     1      -5.199   8.839  -0.611  0.00  0.00    +0.000 C 
BRANCH   9  10
ATOM     10  C   UNL     1      -5.506  10.277  -0.440  0.00  0.00    +0.000 C 
ATOM     11  N   UNL     1      -6.272  10.800  -1.435  0.00  0.00    +0.000 N 
ATOM     12  O   UNL     1      -5.116  10.955   0.499  0.00  0.00    +0.000 OA
ATOM     13  H   UNL     1      -6.617  10.271  -2.224  0.00  0.00    +0.000 HD
ATOM     14  H   UNL     1      -6.514  11.779  -1.369  0.00  0.00    +0.000 HD
ENDBRANCH   9  10
ENDBRANCH   5   8
ENDBRANCH   1   2
BRANCH   1  15
ATOM     15  O   UNL     1      -1.482   2.459   0.002  0.00  0.00    +0.000 OA
BRANCH  15  19
ATOM     16  C   UNL     1      -2.820  -2.060  -0.359  0.00  0.00    +0.000 C 
ATOM     17  C   UNL     1      -1.658  -1.115  -0.278  0.00  0.00    +0.000 A 
ATOM     18  N   UNL     1      -2.035   0.186  -0.163  0.00  0.00    +0.000 NA
ATOM     19  C   UNL     1      -1.091   1.140  -0.097  0.00  0.00    +0.000 A 
ATOM     20  C   UNL     1       0.261   0.857  -0.137  0.00  0.00    +0.000 A 
ATOM     21  C   UNL     1       0.654  -0.478  -0.253  0.00  0.00    +0.000 A 
ATOM     22  C   UNL     1      -0.311  -1.498  -0.309  0.00  0.00    +0.000 A 
BRANCH  22  23
ATOM     23  C   UNL     1       0.090  -2.919  -0.454  0.00  0.00    +0.000 C 
ATOM     24  O   UNL     1      -0.594  -3.749  -1.016  0.00  0.00    +0.000 OA
BRANCH  23  25
ATOM     25  O   UNL     1       1.285  -3.236   0.094  0.00  0.00    +0.000 OA
ATOM     26  H   UNL     1       1.722  -2.552   0.634  0.00  0.00    +0.000 HD
ENDBRANCH  23  25
ENDBRANCH  22  23
ENDBRANCH  15  19
ENDBRANCH   1  15
TORSDOF 7
