REMARK  Name = 
REMARK  6 active torsions:
REMARK  status: ('A' for Active; 'I' for Inactive)
REMARK    1  A    between atoms: C_2  and  C_3
REMARK    2  A    between atoms: N_7  and  C_8
REMARK    3  A    between atoms: C_8  and  C_9
REMARK    4  A    between atoms: C_13  and  C_14
REMARK    5  A    between atoms: C_18  and  O_19
REMARK    6  A    between atoms: O_19  and  C_20
REMARK                            x       y       z     vdW  Elec       q    Type
REMARK                         _______ _______ _______ _____ _____    ______ ____
ROOT
ATOM      1  C   UNL     1      -5.327   0.074   0.281  0.00  0.00    +0.000 A 
ATOM      2  C   UNL     1      -5.674  -0.967  -0.593  0.00  0.00    +0.000 A 
ATOM      3  C   UNL     1      -6.185  -2.164  -0.105  0.00  0.00    +0.000 A 
ATOM      4  C   UNL     1      -6.369  -2.331   1.269  0.00  0.00    +0.000 A 
ATOM      5  C   UNL     1      -6.119  -1.282   2.171  0.00  0.00    +0.000 A 
ATOM      6  C   UNL     1      -5.659  -0.068   1.641  0.00  0.00    +0.000 A 
ENDROOT
BRANCH   5   7
ATOM      7  C   UNL     1      -6.188  -1.478   3.631  0.00  0.00    +0.000 A 
ATOM      8  C   UNL     1      -5.665  -2.633   4.223  0.00  0.00    +0.000 A 
ATOM      9  N   UNL     1      -5.645  -2.885   5.551  0.00  0.00    +0.000 NA
ATOM     10  C   UNL     1      -6.157  -1.925   6.349  0.00  0.00    +0.000 A 
ATOM     11  C   UNL     1      -6.668  -0.718   5.891  0.00  0.00    +0.000 A 
ATOM     12  C   UNL     1      -6.702  -0.507   4.510  0.00  0.00    +0.000 A 
BRANCH  11  13
ATOM     13  O   UNL     1      -7.117   0.141   6.850  0.00  0.00    +0.000 OA
BRANCH  13  14
ATOM     14  C   UNL     1      -7.045   1.518   6.525  0.00  0.00    +0.000 C 
ATOM     15  F   UNL     1      -8.158   1.860   5.833  0.00  0.00    +0.000 F 
ATOM     16  F   UNL     1      -7.082   2.207   7.693  0.00  0.00    +0.000 F 
ENDBRANCH  13  14
ENDBRANCH  11  13
ENDBRANCH   5   7
BRANCH   1  17
ATOM     17  C   UNL     1      -4.431   1.214  -0.201  0.00  0.00    +0.000 C 
ATOM     18  C   UNL     1      -3.303   1.707   0.707  0.00  0.00    +0.000 C 
ATOM     19  C   UNL     1      -2.992   0.763  -0.398  0.00  0.00    +0.000 C 
BRANCH  17  24
ATOM     20  C   UNL     1      -5.107   4.045  -4.623  0.00  0.00    +0.000 A 
ATOM     21  C   UNL     1      -3.952   3.401  -4.198  0.00  0.00    +0.000 A 
ATOM     22  C   UNL     1      -3.944   2.749  -2.963  0.00  0.00    +0.000 A 
ATOM     23  C   UNL     1      -5.084   2.755  -2.173  0.00  0.00    +0.000 A 
ATOM     24  N   UNL     1      -5.166   2.282  -0.870  0.00  0.00    +0.000 N 
ATOM     25  N   UNL     1      -6.219   3.351  -2.599  0.00  0.00    +0.000 NA
ATOM     26  C   UNL     1      -6.212   3.979  -3.800  0.00  0.00    +0.000 A 
ATOM     27  H   UNL     1      -6.130   2.425  -0.578  0.00  0.00    +0.000 HD
BRANCH  20  29
ATOM     28  N   UNL     1      -5.185   5.406  -6.815  0.00  0.00    +0.000 NA
ATOM     29  C   UNL     1      -5.150   4.785  -5.840  0.00  0.00    +0.000 C 
ENDBRANCH  20  29
ENDBRANCH  17  24
ENDBRANCH   1  17
TORSDOF 6
