REMARK  Name = 
REMARK  5 active torsions:
REMARK  status: ('A' for Active; 'I' for Inactive)
REMARK    1  A    between atoms: C_2  and  C_3
REMARK    2  A    between atoms: C_6  and  N_7
REMARK    3  A    between atoms: N_7  and  C_8
REMARK    4  A    between atoms: C_8  and  C_9
REMARK    5  A    between atoms: C_19  and  N_20
REMARK                            x       y       z     vdW  Elec       q    Type
REMARK                         _______ _______ _______ _____ _____    ______ ____
ROOT
ATOM      1  N   UNL     1       7.597  -0.190  -0.039  0.00  0.00    +0.000 N 
ATOM      2  H   UNL     1       7.156   0.003   0.853  0.00  0.00    +0.000 HD
ENDROOT
BRANCH   1   6
ATOM      3  C   UNL     1       5.581   1.392  -3.336  0.00  0.00    +0.000 A 
ATOM      4  N   UNL     1       6.829   0.884  -3.540  0.00  0.00    +0.000 NA
ATOM      5  C   UNL     1       7.477   0.389  -2.452  0.00  0.00    +0.000 A 
ATOM      6  C   UNL     1       6.962   0.371  -1.159  0.00  0.00    +0.000 A 
ATOM      7  C   UNL     1       5.674   0.902  -1.006  0.00  0.00    +0.000 A 
ATOM      8  C   UNL     1       4.930   1.383  -2.096  0.00  0.00    +0.000 A 
BRANCH   8   9
ATOM      9  N   UNL     1       3.702   2.019  -1.839  0.00  0.00    +0.000 N 
ATOM     10  H   UNL     1       3.221   1.693  -1.004  0.00  0.00    +0.000 HD
ATOM     11  H   UNL     1       3.070   2.097  -2.635  0.00  0.00    +0.000 HD
ENDBRANCH   8   9
BRANCH   3  13
ATOM     12  N   UNL     1       4.379   2.351  -5.441  0.00  0.00    +0.000 NA
ATOM     13  C   UNL     1       4.942   1.926  -4.514  0.00  0.00    +0.000 C 
ENDBRANCH   3  13
ENDBRANCH   1   6
BRANCH   1  14
ATOM     14  C   UNL     1       8.848  -0.962  -0.032  0.00  0.00    +0.000 C 
ATOM     15  C   UNL     1       9.058  -2.092  -1.022  0.00  0.00    +0.000 C 
ATOM     16  C   UNL     1       8.748  -2.429   0.396  0.00  0.00    +0.000 C 
BRANCH  14  17
ATOM     17  C   UNL     1      10.040  -0.239   0.604  0.00  0.00    +0.000 A 
ATOM     18  C   UNL     1      10.105  -0.062   2.003  0.00  0.00    +0.000 A 
ATOM     19  C   UNL     1      11.247   0.446   2.630  0.00  0.00    +0.000 A 
ATOM     20  C   UNL     1      12.349   0.803   1.861  0.00  0.00    +0.000 A 
ATOM     21 CL   UNL     1      13.786   1.356   2.628  0.00  0.00    +0.000 Cl
ATOM     22  C   UNL     1      12.298   0.693   0.473  0.00  0.00    +0.000 A 
ATOM     23  C   UNL     1      11.149   0.186  -0.146  0.00  0.00    +0.000 A 
ENDBRANCH  14  17
ENDBRANCH   1  14
TORSDOF 5
