REMARK  Name = 
REMARK  8 active torsions:
REMARK  status: ('A' for Active; 'I' for Inactive)
REMARK    1  A    between atoms: C_1  and  O_2
REMARK    2  A    between atoms: O_2  and  C_3
REMARK    3  A    between atoms: C_8  and  C_9
REMARK    4  A    between atoms: N_11  and  C_12
REMARK    5  A    between atoms: C_12  and  C_13
REMARK    6  A    between atoms: C_16  and  C_17
REMARK    7  A    between atoms: C_17  and  N_18
REMARK    8  A    between atoms: C_19  and  C_21
REMARK                            x       y       z     vdW  Elec       q    Type
REMARK                         _______ _______ _______ _____ _____    ______ ____
ROOT
ATOM      1  C   UNL     1      -0.090  -5.812   1.066  0.00  0.00    +0.000 A 
ATOM      2  C   UNL     1      -0.205  -6.955   0.263  0.00  0.00    +0.000 A 
ATOM      3  C   UNL     1      -0.367  -8.220   0.840  0.00  0.00    +0.000 A 
ATOM      4  C   UNL     1      -0.439  -8.365   2.232  0.00  0.00    +0.000 A 
ATOM      5  C   UNL     1      -0.347  -7.218   3.033  0.00  0.00    +0.000 A 
ATOM      6  C   UNL     1      -0.187  -5.955   2.456  0.00  0.00    +0.000 A 
ENDROOT
BRANCH   1   7
ATOM      7  C   UNL     1       0.108  -4.452   0.448  0.00  0.00    +0.000 C 
BRANCH   7  10
ATOM      8  C   UNL     1      -1.245  -2.579  -0.421  0.00  0.00    +0.000 C 
ATOM      9  O   UNL     1      -0.252  -1.898  -0.670  0.00  0.00    +0.000 OA
ATOM     10  N   UNL     1      -1.155  -3.826   0.146  0.00  0.00    +0.000 N 
ATOM     11  H   UNL     1      -2.005  -4.353   0.329  0.00  0.00    +0.000 HD
BRANCH   8  17
ATOM     12  C   UNL     1      -3.800  -2.740  -0.510  0.00  0.00    +0.000 A 
ATOM     13  N   UNL     1      -5.022  -2.262  -0.862  0.00  0.00    +0.000 NA
ATOM     14  C   UNL     1      -5.066  -1.065  -1.482  0.00  0.00    +0.000 A 
ATOM     15  C   UNL     1      -3.945  -0.307  -1.760  0.00  0.00    +0.000 A 
ATOM     16  C   UNL     1      -2.700  -0.813  -1.390  0.00  0.00    +0.000 A 
ATOM     17  C   UNL     1      -2.605  -2.062  -0.757  0.00  0.00    +0.000 A 
BRANCH  12  19
ATOM     18  C   UNL     1      -5.032  -4.570   0.300  0.00  0.00    +0.000 C 
ATOM     19  O   UNL     1      -3.754  -3.964   0.129  0.00  0.00    +0.000 OA
ENDBRANCH  12  19
ENDBRANCH   8  17
ENDBRANCH   7  10
ENDBRANCH   1   7
BRANCH   4  20
ATOM     20  C   UNL     1      -0.541  -9.728   2.869  0.00  0.00    +0.000 C 
BRANCH  20  21
ATOM     21  N   UNL     1       0.771 -10.263   3.134  0.00  0.00    +0.000 N 
ATOM     22  C   UNL     1       0.948 -11.521   3.650  0.00  0.00    +0.000 C 
ATOM     23  O   UNL     1       0.004 -12.272   3.878  0.00  0.00    +0.000 OA
ATOM     24  H   UNL     1       1.532  -9.594   3.185  0.00  0.00    +0.000 HD
BRANCH  22  25
ATOM     25  C   UNL     1       2.339 -11.950   3.849  0.00  0.00    +0.000 A 
ATOM     26  C   UNL     1       2.647 -13.304   3.876  0.00  0.00    +0.000 A 
ATOM     27  S   UNL     1       4.315 -13.624   4.037  0.00  0.00    +0.000 S 
ATOM     28  C   UNL     1       4.680 -11.966   4.134  0.00  0.00    +0.000 A 
ATOM     29  N   UNL     1       5.962 -11.539   4.299  0.00  0.00    +0.000 NA
ATOM     30  C   UNL     1       6.090 -10.257   4.391  0.00  0.00    +0.000 A 
ATOM     31  N   UNL     1       5.053  -9.363   4.330  0.00  0.00    +0.000 N 
ATOM     32  C   UNL     1       3.746  -9.746   4.141  0.00  0.00    +0.000 A 
ATOM     33  O   UNL     1       2.846  -8.918   4.058  0.00  0.00    +0.000 OA
ATOM     34  C   UNL     1       3.547 -11.179   4.035  0.00  0.00    +0.000 A 
ATOM     35  H   UNL     1       5.219  -8.371   4.407  0.00  0.00    +0.000 HD
ENDBRANCH  22  25
ENDBRANCH  20  21
ENDBRANCH   4  20
TORSDOF 7
