REMARK  Name = 
REMARK  10 active torsions:
REMARK  status: ('A' for Active; 'I' for Inactive)
REMARK    1  A    between atoms: C_1  and  O_2
REMARK    2  A    between atoms: O_2  and  C_3
REMARK    3  A    between atoms: C_10  and  C_11
REMARK    4  A    between atoms: N_13  and  C_14
REMARK    5  A    between atoms: C_14  and  C_15
REMARK    6  A    between atoms: C_18  and  N_19
REMARK    7  A    between atoms: N_19  and  C_20
REMARK    8  A    between atoms: C_20  and  C_21
REMARK    9  A    between atoms: N_24  and  C_25
REMARK   10  A    between atoms: C_27  and  C_28
REMARK                            x       y       z     vdW  Elec       q    Type
REMARK                         _______ _______ _______ _____ _____    ______ ____
ROOT
ATOM      1  C   UNL     1      -1.331  -5.781   9.213  0.00  0.00    +0.000 A 
ATOM      2  C   UNL     1      -1.238  -6.926   8.416  0.00  0.00    +0.000 A 
ATOM      3  C   UNL     1      -1.718  -6.915   7.101  0.00  0.00    +0.000 A 
ATOM      4  C   UNL     1      -2.326  -5.774   6.568  0.00  0.00    +0.000 A 
ATOM      5  C   UNL     1      -2.251  -4.589   7.307  0.00  0.00    +0.000 A 
ATOM      6  C   UNL     1      -1.766  -4.591   8.621  0.00  0.00    +0.000 A 
ENDROOT
BRANCH   4   7
ATOM      7  N   UNL     1      -2.983  -5.753   5.326  0.00  0.00    +0.000 N 
ATOM      8  H   UNL     1      -2.391  -5.339   4.609  0.00  0.00    +0.000 HD
BRANCH   7   9
ATOM      9  C   UNL     1      -3.626  -7.002   4.901  0.00  0.00    +0.000 C 
BRANCH   9  10
ATOM     10  C   UNL     1      -4.903  -6.755   4.068  0.00  0.00    +0.000 C 
ATOM     11  C   UNL     1      -5.917  -5.919   4.879  0.00  0.00    +0.000 C 
ATOM     12  C   UNL     1      -7.162  -5.560   4.068  0.00  0.00    +0.000 C 
ATOM     13  N   UNL     1      -6.860  -4.922   2.783  0.00  0.00    +0.000 NA
ATOM     14  C   UNL     1      -6.308  -3.578   2.947  0.00  0.00    +0.000 C 
ATOM     15  C   UNL     1      -5.988  -5.784   1.982  0.00  0.00    +0.000 C 
ATOM     16  C   UNL     1      -4.652  -6.152   2.664  0.00  0.00    +0.000 C 
ATOM     17  C   UNL     1      -3.890  -7.113   1.743  0.00  0.00    +0.000 C 
ENDBRANCH   9  10
ENDBRANCH   7   9
ENDBRANCH   4   7
BRANCH   1  18
ATOM     18  C   UNL     1      -1.041  -5.847  10.689  0.00  0.00    +0.000 C 
BRANCH  18  21
ATOM     19  C   UNL     1       0.772  -5.662  12.307  0.00  0.00    +0.000 C 
ATOM     20  O   UNL     1      -0.005  -5.925  13.222  0.00  0.00    +0.000 OA
ATOM     21  N   UNL     1       0.338  -5.597  11.010  0.00  0.00    +0.000 N 
ATOM     22  H   UNL     1       0.971  -5.354  10.259  0.00  0.00    +0.000 HD
BRANCH  19  30
ATOM     23  C   UNL     1       3.482  -4.973  10.292  0.00  0.00    +0.000 A 
ATOM     24  N   UNL     1       4.699  -4.750   9.754  0.00  0.00    +0.000 NA
ATOM     25  C   UNL     1       5.747  -4.658  10.576  0.00  0.00    +0.000 A 
ATOM     26  N   UNL     1       5.728  -4.756  11.902  0.00  0.00    +0.000 NA
ATOM     27  C   UNL     1       4.505  -4.995  12.397  0.00  0.00    +0.000 A 
ATOM     28  S   UNL     1       4.296  -5.138  14.074  0.00  0.00    +0.000 S 
ATOM     29  C   UNL     1       2.631  -5.418  13.892  0.00  0.00    +0.000 A 
ATOM     30  C   UNL     1       2.198  -5.408  12.571  0.00  0.00    +0.000 A 
ATOM     31  C   UNL     1       3.319  -5.137  11.677  0.00  0.00    +0.000 A 
BRANCH  23  33
ATOM     32  C   UNL     1       2.616  -4.306   8.233  0.00  0.00    +0.000 C 
ATOM     33  O   UNL     1       2.401  -5.044   9.436  0.00  0.00    +0.000 OA
ENDBRANCH  23  33
ENDBRANCH  19  30
ENDBRANCH  18  21
ENDBRANCH   1  18
TORSDOF 7
