REMARK  Name = 
REMARK  7 active torsions:
REMARK  status: ('A' for Active; 'I' for Inactive)
REMARK    1  A    between atoms: N_1  and  C_2
REMARK    2  A    between atoms: C_2  and  C_3
REMARK    3  A    between atoms: C_3  and  C_4
REMARK    4  A    between atoms: C_7  and  N_8
REMARK    5  A    between atoms: N_8  and  C_9
REMARK    6  A    between atoms: C_9  and  C_10
REMARK    7  A    between atoms: C_14  and  C_15
REMARK                            x       y       z     vdW  Elec       q    Type
REMARK                         _______ _______ _______ _____ _____    ______ ____
ROOT
ATOM      1  N   UNL     1       8.712  -0.766  -0.819  0.00  0.00    +0.000 N 
ATOM      2  H   UNL     1       9.193  -1.655  -0.687  0.00  0.00    +0.000 HD
ENDROOT
BRANCH   1   6
ATOM      3  C   UNL     1       4.515  -1.200  -0.732  0.00  0.00    +0.000 A 
ATOM      4  C   UNL     1       5.173  -1.107  -1.963  0.00  0.00    +0.000 A 
ATOM      5  C   UNL     1       6.566  -0.986  -2.018  0.00  0.00    +0.000 A 
ATOM      6  C   UNL     1       7.325  -0.937  -0.845  0.00  0.00    +0.000 A 
ATOM      7  C   UNL     1       6.669  -1.122   0.376  0.00  0.00    +0.000 A 
ATOM      8  C   UNL     1       5.279  -1.234   0.438  0.00  0.00    +0.000 A 
BRANCH   3   9
ATOM      9  C   UNL     1       3.008  -1.265  -0.668  0.00  0.00    +0.000 C 
BRANCH   9  10
ATOM     10  C   UNL     1       2.484  -2.701  -0.750  0.00  0.00    +0.000 C 
BRANCH  10  11
ATOM     11  N   UNL     1       1.024  -2.732  -0.696  0.00  0.00    +0.000 NA
ATOM     12  H   UNL     1       0.705  -3.697  -0.794  0.00  0.00    +0.000 HD
ATOM     13  H   UNL     1       0.639  -2.226  -1.493  0.00  0.00    +0.000 HD
ENDBRANCH  10  11
ENDBRANCH   9  10
ENDBRANCH   3   9
ENDBRANCH   1   6
BRANCH   1  14
ATOM     14  C   UNL     1       9.314   0.043  -1.867  0.00  0.00    +0.000 C 
BRANCH  14  15
ATOM     15  C   UNL     1      10.549   0.718  -1.318  0.00  0.00    +0.000 A 
ATOM     16  C   UNL     1      11.806   0.499  -1.893  0.00  0.00    +0.000 A 
ATOM     17  C   UNL     1      12.931   1.156  -1.399  0.00  0.00    +0.000 A 
ATOM     18  C   UNL     1      12.811   2.055  -0.336  0.00  0.00    +0.000 A 
ATOM     19  C   UNL     1      11.561   2.305   0.246  0.00  0.00    +0.000 A 
ATOM     20  C   UNL     1      10.440   1.617  -0.243  0.00  0.00    +0.000 A 
BRANCH  19  21
ATOM     21  C   UNL     1      11.403   3.318   1.353  0.00  0.00    +0.000 C 
ATOM     22  F   UNL     1      12.569   3.941   1.689  0.00  0.00    +0.000 F 
ATOM     23  F   UNL     1      10.537   4.317   1.021  0.00  0.00    +0.000 F 
ATOM     24  F   UNL     1      10.925   2.777   2.507  0.00  0.00    +0.000 F 
ENDBRANCH  19  21
ENDBRANCH  14  15
ENDBRANCH   1  14
TORSDOF 7
