REMARK  Name = 
REMARK  5 active torsions:
REMARK  status: ('A' for Active; 'I' for Inactive)
REMARK    1  A    between atoms: C_2  and  C_4
REMARK    2  A    between atoms: C_7  and  O_8
REMARK    3  A    between atoms: O_8  and  C_9
REMARK    4  A    between atoms: C_9  and  C_10
REMARK    5  A    between atoms: C_14  and  C_15
REMARK                            x       y       z     vdW  Elec       q    Type
REMARK                         _______ _______ _______ _____ _____    ______ ____
ROOT
ATOM      1  C   UNL     1       4.934  -1.578  -5.741  0.00  0.00    +0.000 C 
ENDROOT
BRANCH   1   2
ATOM      2  C   UNL     1       5.834  -2.276  -6.735  0.00  0.00    +0.000 A 
ATOM      3  N   UNL     1       6.691  -1.521  -7.451  0.00  0.00    +0.000 NA
ATOM      4  C   UNL     1       7.430  -2.166  -8.367  0.00  0.00    +0.000 A 
ATOM      5  C   UNL     1       7.354  -3.520  -8.590  0.00  0.00    +0.000 A 
ATOM      6  C   UNL     1       6.466  -4.229  -7.803  0.00  0.00    +0.000 A 
ATOM      7  N   UNL     1       5.693  -3.611  -6.881  0.00  0.00    +0.000 NA
BRANCH   6   8
ATOM      8  C   UNL     1       6.297  -5.695  -7.900  0.00  0.00    +0.000 A 
ATOM      9  C   UNL     1       7.365  -6.544  -8.246  0.00  0.00    +0.000 A 
ATOM     10  C   UNL     1       7.201  -7.931  -8.314  0.00  0.00    +0.000 A 
ATOM     11  C   UNL     1       5.964  -8.503  -8.036  0.00  0.00    +0.000 A 
ATOM     12  C   UNL     1       4.890  -7.688  -7.691  0.00  0.00    +0.000 A 
ATOM     13  C   UNL     1       5.057  -6.301  -7.623  0.00  0.00    +0.000 A 
ENDBRANCH   6   8
ENDBRANCH   1   2
BRANCH   1  14
ATOM     14  O   UNL     1       5.556  -1.512  -4.450  0.00  0.00    +0.000 OA
BRANCH  14  18
ATOM     15  C   UNL     1       3.209   0.424  -1.675  0.00  0.00    +0.000 A 
ATOM     16  C   UNL     1       4.465  -0.059  -1.299  0.00  0.00    +0.000 A 
ATOM     17  C   UNL     1       5.250  -0.720  -2.247  0.00  0.00    +0.000 A 
ATOM     18  C   UNL     1       4.751  -0.869  -3.533  0.00  0.00    +0.000 A 
ATOM     19  N   UNL     1       3.535  -0.422  -3.916  0.00  0.00    +0.000 NA
ATOM     20  C   UNL     1       2.788   0.205  -2.977  0.00  0.00    +0.000 A 
BRANCH  15  22
ATOM     21  N   UNL     1       2.866   1.839   0.272  0.00  0.00    +0.000 N 
ATOM     22  C   UNL     1       2.300   1.143  -0.758  0.00  0.00    +0.000 C 
ATOM     23  O   UNL     1       1.089   1.154  -0.940  0.00  0.00    +0.000 OA
ATOM     24  H   UNL     1       2.236   2.424   0.808  0.00  0.00    +0.000 HD
ATOM     25  H   UNL     1       3.849   2.069   0.296  0.00  0.00    +0.000 HD
ENDBRANCH  15  22
ENDBRANCH  14  18
ENDBRANCH   1  14
TORSDOF 5
