REMARK  Name = 
REMARK  6 active torsions:
REMARK  status: ('A' for Active; 'I' for Inactive)
REMARK    1  A    between atoms: N_1  and  C_2
REMARK    2  A    between atoms: C_2  and  C_3
REMARK    3  A    between atoms: C_6  and  C_7
REMARK    4  A    between atoms: C_7  and  C_8
REMARK    5  A    between atoms: C_8  and  N_9
REMARK    6  A    between atoms: C_13  and  C_14
REMARK                            x       y       z     vdW  Elec       q    Type
REMARK                         _______ _______ _______ _____ _____    ______ ____
ROOT
ATOM      1  N   UNL     1       3.769   7.823   1.148  0.00  0.00    +0.000 N 
ATOM      2  C   UNL     1       3.311   8.893   0.391  0.00  0.00    +0.000 A 
ATOM      3  C   UNL     1       2.101   8.895  -0.316  0.00  0.00    +0.000 A 
ATOM      4  N   UNL     1       1.620   9.953  -1.018  0.00  0.00    +0.000 NA
ATOM      5  C   UNL     1       2.405  11.061  -0.964  0.00  0.00    +0.000 A 
ATOM      6  C   UNL     1       3.602  11.089  -0.264  0.00  0.00    +0.000 A 
ATOM      7  N   UNL     1       4.075  10.007   0.416  0.00  0.00    +0.000 NA
ATOM      8  H   UNL     1       4.732   8.018   1.411  0.00  0.00    +0.000 HD
ENDROOT
BRANCH   5   9
ATOM      9  C   UNL     1       1.921  12.268  -1.687  0.00  0.00    +0.000 C 
ATOM     10  N   UNL     1       0.732  12.118  -2.352  0.00  0.00    +0.000 N 
ATOM     11  O   UNL     1       2.538  13.325  -1.689  0.00  0.00    +0.000 OA
ATOM     12  H   UNL     1       0.248  11.228  -2.320  0.00  0.00    +0.000 HD
ATOM     13  H   UNL     1       0.336  12.901  -2.854  0.00  0.00    +0.000 HD
ENDBRANCH   5   9
BRANCH   1  14
ATOM     14  C   UNL     1       3.481   6.471   0.684  0.00  0.00    +0.000 C 
BRANCH  14  15
ATOM     15  C   UNL     1       4.052   5.420   1.642  0.00  0.00    +0.000 C 
BRANCH  15  19
ATOM     16  C   UNL     1       2.904   1.466   0.278  0.00  0.00    +0.000 A 
ATOM     17  C   UNL     1       4.109   2.048  -0.141  0.00  0.00    +0.000 A 
ATOM     18  C   UNL     1       4.489   3.314   0.312  0.00  0.00    +0.000 A 
ATOM     19  C   UNL     1       3.671   4.026   1.196  0.00  0.00    +0.000 A 
ATOM     20  C   UNL     1       2.464   3.449   1.615  0.00  0.00    +0.000 A 
ATOM     21  C   UNL     1       2.086   2.181   1.161  0.00  0.00    +0.000 A 
BRANCH  16  22
ATOM     22  C   UNL     1       2.489   0.110  -0.235  0.00  0.00    +0.000 C 
BRANCH  22  23
ATOM     23  N   UNL     1       3.462  -0.920   0.110  0.00  0.00    +0.000 NA
ATOM     24  H   UNL     1       3.096  -1.830  -0.165  0.00  0.00    +0.000 HD
ATOM     25  H   UNL     1       3.566  -0.945   1.123  0.00  0.00    +0.000 HD
ENDBRANCH  22  23
ENDBRANCH  16  22
ENDBRANCH  15  19
ENDBRANCH  14  15
ENDBRANCH   1  14
TORSDOF 6
