REMARK  Name = 
REMARK  7 active torsions:
REMARK  status: ('A' for Active; 'I' for Inactive)
REMARK    1  A    between atoms: C_2  and  C_4
REMARK    2  A    between atoms: C_7  and  N_8
REMARK    3  A    between atoms: N_8  and  C_9
REMARK    4  A    between atoms: C_9  and  C_10
REMARK    5  A    between atoms: C_10  and  C_13
REMARK    6  A    between atoms: C_17  and  N_18
REMARK    7  A    between atoms: N_18  and  C_19
REMARK                            x       y       z     vdW  Elec       q    Type
REMARK                         _______ _______ _______ _____ _____    ______ ____
ROOT
ATOM      1  C   UNL     1       6.010  -4.310  -5.783  0.00  0.00    +0.000 C 
ATOM      2  F   UNL     1       7.302  -3.867  -5.714  0.00  0.00    +0.000 F 
ATOM      3  F   UNL     1       5.995  -5.473  -5.059  0.00  0.00    +0.000 F 
ENDROOT
BRANCH   1   4
ATOM      4  C   UNL     1       5.573  -4.530  -7.219  0.00  0.00    +0.000 A 
ATOM      5  C   UNL     1       6.037  -3.695  -8.244  0.00  0.00    +0.000 A 
ATOM      6  C   UNL     1       5.624  -3.901  -9.560  0.00  0.00    +0.000 A 
ATOM      7  C   UNL     1       4.732  -4.933  -9.865  0.00  0.00    +0.000 A 
ATOM      8  C   UNL     1       4.253  -5.777  -8.862  0.00  0.00    +0.000 A 
ATOM      9  C   UNL     1       4.687  -5.571  -7.545  0.00  0.00    +0.000 A 
BRANCH   8  10
ATOM     10  N   UNL     1       3.375  -6.853  -9.111  0.00  0.00    +0.000 N 
ATOM     11  H   UNL     1       3.851  -7.732  -8.897  0.00  0.00    +0.000 HD
BRANCH  10  12
ATOM     12  C   UNL     1       2.476  -6.974 -10.231  0.00  0.00    +0.000 C 
ATOM     13  C   UNL     1       1.718  -8.319 -10.228  0.00  0.00    +0.000 C 
ATOM     14  N   UNL     1       2.066  -8.515 -11.646  0.00  0.00    +0.000 NA
ATOM     15  C   UNL     1       3.098  -7.464 -11.550  0.00  0.00    +0.000 C 
ATOM     16  H   UNL     1       1.304  -8.284 -12.284  0.00  0.00    +0.000 HD
ENDBRANCH  10  12
ENDBRANCH   8  10
ENDBRANCH   1   4
BRANCH   1  17
ATOM     17  C   UNL     1       5.087  -3.289  -5.066  0.00  0.00    +0.000 C 
BRANCH  17  18
ATOM     18  N   UNL     1       5.473  -3.056  -3.660  0.00  0.00    +0.000 N 
ATOM     19  H   UNL     1       5.837  -3.881  -3.185  0.00  0.00    +0.000 HD
BRANCH  18  23
ATOM     20  C   UNL     1       3.476  -0.344  -1.122  0.00  0.00    +0.000 A 
ATOM     21  C   UNL     1       3.028  -0.517  -2.433  0.00  0.00    +0.000 A 
ATOM     22  C   UNL     1       3.672  -1.426  -3.281  0.00  0.00    +0.000 A 
ATOM     23  C   UNL     1       4.750  -2.201  -2.837  0.00  0.00    +0.000 A 
ATOM     24  C   UNL     1       5.205  -1.992  -1.527  0.00  0.00    +0.000 A 
ATOM     25  C   UNL     1       4.581  -1.070  -0.675  0.00  0.00    +0.000 A 
BRANCH  20  27
ATOM     26  N   UNL     1       1.507   0.894  -0.400  0.00  0.00    +0.000 N 
ATOM     27  C   UNL     1       2.837   0.627  -0.199  0.00  0.00    +0.000 C 
ATOM     28  O   UNL     1       3.446   1.139   0.726  0.00  0.00    +0.000 OA
ATOM     29  H   UNL     1       1.058   1.471   0.302  0.00  0.00    +0.000 HD
ATOM     30  H   UNL     1       0.919   0.305  -0.972  0.00  0.00    +0.000 HD
ENDBRANCH  20  27
ENDBRANCH  18  23
ENDBRANCH  17  18
ENDBRANCH   1  17
TORSDOF 7
