REMARK  Name = 
REMARK  4 active torsions:
REMARK  status: ('A' for Active; 'I' for Inactive)
REMARK    1  A    between atoms: N_1  and  C_2
REMARK    2  A    between atoms: C_2  and  C_3
REMARK    3  A    between atoms: C_6  and  C_7
REMARK    4  A    between atoms: C_7  and  C_8
REMARK                            x       y       z     vdW  Elec       q    Type
REMARK                         _______ _______ _______ _____ _____    ______ ____
ROOT
ATOM      1  C   UNL     1       4.009  -0.634   5.695  0.00  0.00    +0.000 C 
ENDROOT
BRANCH   1   2
ATOM      2  C   UNL     1       5.249  -0.158   6.386  0.00  0.00    +0.000 A 
ATOM      3  C   UNL     1       6.549  -0.568   6.137  0.00  0.00    +0.000 A 
ATOM      4  N   UNL     1       7.363  -0.022   7.092  0.00  0.00    +0.000 N 
ATOM      5  C   UNL     1       6.597   0.574   8.066  0.00  0.00    +0.000 A 
ATOM      6  C   UNL     1       6.927   1.006   9.355  0.00  0.00    +0.000 A 
ATOM      7 CL   UNL     1       8.470   0.668  10.031  0.00  0.00    +0.000 Cl
ATOM      8  C   UNL     1       5.944   1.646  10.109  0.00  0.00    +0.000 A 
ATOM      9  C   UNL     1       4.688   1.902   9.562  0.00  0.00    +0.000 A 
ATOM     10  C   UNL     1       4.354   1.420   8.288  0.00  0.00    +0.000 A 
ATOM     11  C   UNL     1       5.306   0.676   7.552  0.00  0.00    +0.000 A 
ATOM     12  H   UNL     1       8.370  -0.116   7.141  0.00  0.00    +0.000 HD
ENDBRANCH   1   2
BRANCH   1  16
ATOM     13  C   UNL     1       3.996   0.627   1.551  0.00  0.00    +0.000 A 
ATOM     14  C   UNL     1       4.503  -0.628   1.911  0.00  0.00    +0.000 A 
ATOM     15  C   UNL     1       4.524  -1.032   3.249  0.00  0.00    +0.000 A 
ATOM     16  C   UNL     1       4.040  -0.187   4.259  0.00  0.00    +0.000 A 
ATOM     17  C   UNL     1       3.536   1.070   3.898  0.00  0.00    +0.000 A 
ATOM     18  C   UNL     1       3.508   1.470   2.559  0.00  0.00    +0.000 A 
BRANCH  13  19
ATOM     19  C   UNL     1       4.011   1.087   0.116  0.00  0.00    +0.000 C 
BRANCH  19  20
ATOM     20  N   UNL     1       3.256   0.198  -0.761  0.00  0.00    +0.000 NA
ATOM     21  H   UNL     1       3.230   0.604  -1.687  0.00  0.00    +0.000 HD
ATOM     22  H   UNL     1       2.290   0.162  -0.436  0.00  0.00    +0.000 HD
ENDBRANCH  19  20
ENDBRANCH  13  19
ENDBRANCH   1  16
TORSDOF 4
