REMARK  Name = 
REMARK  5 active torsions:
REMARK  status: ('A' for Active; 'I' for Inactive)
REMARK    1  A    between atoms: C_2  and  C_4
REMARK    2  A    between atoms: C_7  and  N_8
REMARK    3  A    between atoms: N_8  and  C_9
REMARK    4  A    between atoms: C_9  and  C_10
REMARK    5  A    between atoms: C_12  and  N_13
REMARK                            x       y       z     vdW  Elec       q    Type
REMARK                         _______ _______ _______ _____ _____    ______ ____
ROOT
ATOM      1  C   UNL     1       5.310  -5.496   2.062  0.00  0.00    +0.000 C 
ENDROOT
BRANCH   1   2
ATOM      2  C   UNL     1       6.266  -6.409   2.809  0.00  0.00    +0.000 A 
ATOM      3  C   UNL     1       7.350  -5.887   3.522  0.00  0.00    +0.000 A 
ATOM      4  C   UNL     1       8.271  -6.743   4.138  0.00  0.00    +0.000 A 
ATOM      5  C   UNL     1       8.035  -8.114   4.007  0.00  0.00    +0.000 A 
ATOM      6  C   UNL     1       6.928  -8.559   3.303  0.00  0.00    +0.000 A 
ATOM      7  N   UNL     1       6.042  -7.742   2.702  0.00  0.00    +0.000 NA
BRANCH   4   8
ATOM      8  N   UNL     1       9.364  -6.281   4.846  0.00  0.00    +0.000 N 
ATOM      9  C   UNL     1       9.345  -5.027   5.612  0.00  0.00    +0.000 C 
ATOM     10  C   UNL     1      10.432  -4.055   5.107  0.00  0.00    +0.000 C 
ATOM     11  N   UNL     1      11.785  -4.655   5.065  0.00  0.00    +0.000 NA
ATOM     12  C   UNL     1      11.731  -5.872   4.227  0.00  0.00    +0.000 C 
ATOM     13  C   UNL     1      10.686  -6.912   4.698  0.00  0.00    +0.000 C 
ATOM     14  H   UNL     1      12.033  -4.938   6.013  0.00  0.00    +0.000 HD
ENDBRANCH   4   8
ENDBRANCH   1   2
BRANCH   1  15
ATOM     15  N   UNL     1       4.618  -4.571   2.959  0.00  0.00    +0.000 N 
ATOM     16  H   UNL     1       4.303  -5.023   3.816  0.00  0.00    +0.000 HD
BRANCH  15  20
ATOM     17  C   UNL     1       1.840  -1.708   1.551  0.00  0.00    +0.000 A 
ATOM     18  C   UNL     1       2.405  -2.614   0.650  0.00  0.00    +0.000 A 
ATOM     19  C   UNL     1       3.315  -3.582   1.102  0.00  0.00    +0.000 A 
ATOM     20  C   UNL     1       3.657  -3.688   2.457  0.00  0.00    +0.000 A 
ATOM     21  C   UNL     1       3.075  -2.772   3.346  0.00  0.00    +0.000 A 
ATOM     22  C   UNL     1       2.185  -1.787   2.902  0.00  0.00    +0.000 A 
BRANCH  17  24
ATOM     23  N   UNL     1       0.190  -0.834  -0.019  0.00  0.00    +0.000 N 
ATOM     24  C   UNL     1       0.928  -0.622   1.112  0.00  0.00    +0.000 C 
ATOM     25  O   UNL     1       0.811   0.418   1.750  0.00  0.00    +0.000 OA
ATOM     26  H   UNL     1      -0.496  -0.123  -0.243  0.00  0.00    +0.000 HD
ATOM     27  H   UNL     1       0.064  -1.751  -0.421  0.00  0.00    +0.000 HD
ENDBRANCH  17  24
ENDBRANCH  15  20
ENDBRANCH   1  15
TORSDOF 5
