REMARK  Name = 
REMARK  5 active torsions:
REMARK  status: ('A' for Active; 'I' for Inactive)
REMARK    1  A    between atoms: C_2  and  C_3
REMARK    2  A    between atoms: C_6  and  N_7
REMARK    3  A    between atoms: N_7  and  C_8
REMARK    4  A    between atoms: C_8  and  C_9
REMARK    5  A    between atoms: C_11  and  C_12
REMARK                            x       y       z     vdW  Elec       q    Type
REMARK                         _______ _______ _______ _____ _____    ______ ____
ROOT
ATOM      1  C   UNL     1       4.589  -1.117   0.109  0.00  0.00    +0.000 C 
ATOM      2  C   UNL     1       4.805  -2.243  -0.888  0.00  0.00    +0.000 C 
ATOM      3  C   UNL     1       4.349  -2.584   0.487  0.00  0.00    +0.000 C 
ENDROOT
BRANCH   1   4
ATOM      4  C   UNL     1       5.765  -0.520   0.900  0.00  0.00    +0.000 A 
ATOM      5  C   UNL     1       5.633  -0.392   2.288  0.00  0.00    +0.000 A 
ATOM      6  C   UNL     1       6.758  -0.258   3.111  0.00  0.00    +0.000 A 
ATOM      7  C   UNL     1       7.991  -0.116   2.470  0.00  0.00    +0.000 A 
ATOM      8  C   UNL     1       8.038  -0.136   1.085  0.00  0.00    +0.000 A 
ATOM      9  N   UNL     1       6.966  -0.345   0.294  0.00  0.00    +0.000 NA
BRANCH   6  10
ATOM     10  C   UNL     1       6.637  -0.428   4.573  0.00  0.00    +0.000 A 
ATOM     11  C   UNL     1       7.529   0.126   5.490  0.00  0.00    +0.000 A 
ATOM     12  C   UNL     1       7.415  -0.210   6.840  0.00  0.00    +0.000 A 
ATOM     13  C   UNL     1       6.413  -1.080   7.246  0.00  0.00    +0.000 A 
ATOM     14  C   UNL     1       5.547  -1.565   6.286  0.00  0.00    +0.000 A 
ATOM     15  N   UNL     1       5.635  -1.256   4.974  0.00  0.00    +0.000 NA
ENDBRANCH   6  10
ENDBRANCH   1   4
BRANCH   1  16
ATOM     16  N   UNL     1       3.435  -0.215  -0.083  0.00  0.00    +0.000 N 
ATOM     17  H   UNL     1       2.555  -0.472   0.350  0.00  0.00    +0.000 HD
BRANCH  16  21
ATOM     18  C   UNL     1       2.992   2.467  -3.327  0.00  0.00    +0.000 A 
ATOM     19  C   UNL     1       4.042   1.547  -3.334  0.00  0.00    +0.000 A 
ATOM     20  C   UNL     1       4.203   0.662  -2.262  0.00  0.00    +0.000 A 
ATOM     21  C   UNL     1       3.293   0.634  -1.198  0.00  0.00    +0.000 A 
ATOM     22  C   UNL     1       2.263   1.584  -1.194  0.00  0.00    +0.000 A 
ATOM     23  C   UNL     1       2.112   2.494  -2.247  0.00  0.00    +0.000 A 
BRANCH  18  25
ATOM     24  N   UNL     1       2.706   4.137  -5.297  0.00  0.00    +0.000 NA
ATOM     25  C   UNL     1       2.837   3.395  -4.415  0.00  0.00    +0.000 C 
ENDBRANCH  18  25
ENDBRANCH  16  21
ENDBRANCH   1  16
TORSDOF 5
