REMARK  Name = 
REMARK  3 active torsions:
REMARK  status: ('A' for Active; 'I' for Inactive)
REMARK    1  A    between atoms: C_2  and  C_4
REMARK    2  A    between atoms: N_8  and  C_9
REMARK    3  A    between atoms: C_9  and  C_10
REMARK                            x       y       z     vdW  Elec       q    Type
REMARK                         _______ _______ _______ _____ _____    ______ ____
ROOT
ATOM      1  C   UNL     1       2.516  -2.029  -1.271  0.00  0.00    +0.000 A 
ATOM      2  C   UNL     1       3.717  -1.394  -1.019  0.00  0.00    +0.000 A 
ATOM      3  C   UNL     1       4.683  -1.349  -2.020  0.00  0.00    +0.000 A 
ATOM      4  C   UNL     1       4.363  -1.862  -3.296  0.00  0.00    +0.000 A 
ATOM      5  N   UNL     1       5.315  -1.680  -4.325  0.00  0.00    +0.000 N 
ATOM      6  N   UNL     1       3.213  -2.486  -3.531  0.00  0.00    +0.000 NA
ATOM      7  C   UNL     1       2.316  -2.599  -2.511  0.00  0.00    +0.000 A 
ATOM      8  H   UNL     1       6.181  -2.115  -4.043  0.00  0.00    +0.000 HD
ENDROOT
BRANCH   1  10
ATOM      9  N   UNL     1       1.440  -1.139   0.697  0.00  0.00    +0.000 N 
ATOM     10  C   UNL     1       1.478  -2.149  -0.223  0.00  0.00    +0.000 C 
ATOM     11  O   UNL     1       0.703  -3.087  -0.193  0.00  0.00    +0.000 OA
ATOM     12  H   UNL     1       0.708  -1.173   1.390  0.00  0.00    +0.000 HD
ATOM     13  H   UNL     1       1.920  -0.259   0.560  0.00  0.00    +0.000 HD
ENDBRANCH   1  10
BRANCH   5  14
ATOM     14  C   UNL     1       5.021  -1.683  -5.793  0.00  0.00    +0.000 C 
ATOM     15  C   UNL     1       5.113  -0.274  -6.396  0.00  0.00    +0.000 C 
ATOM     16  C   UNL     1       3.811  -1.004  -6.445  0.00  0.00    +0.000 C 
BRANCH  14  17
ATOM     17  C   UNL     1       5.623  -2.860  -6.576  0.00  0.00    +0.000 C 
ATOM     18  C   UNL     1       5.040  -4.188  -6.068  0.00  0.00    +0.000 C 
ATOM     19  C   UNL     1       5.573  -5.372  -6.867  0.00  0.00    +0.000 C 
ATOM     20  C   UNL     1       7.096  -5.418  -6.843  0.00  0.00    +0.000 C 
ATOM     21  C   UNL     1       7.697  -4.110  -7.346  0.00  0.00    +0.000 C 
ATOM     22  C   UNL     1       7.166  -2.908  -6.560  0.00  0.00    +0.000 C 
ENDBRANCH  14  17
ENDBRANCH   5  14
TORSDOF 3
