REMARK  Name = 
REMARK  10 active torsions:
REMARK  status: ('A' for Active; 'I' for Inactive)
REMARK    1  A    between atoms: C_1  and  C_2
REMARK    2  A    between atoms: C_2  and  C_3
REMARK    3  A    between atoms: C_3  and  N_4
REMARK    4  A    between atoms: C_5  and  C_7
REMARK    5  A    between atoms: C_10  and  O_11
REMARK    6  A    between atoms: O_11  and  C_12
REMARK    7  A    between atoms: C_12  and  C_13
REMARK    8  A    between atoms: C_13  and  C_14
REMARK    9  A    between atoms: C_13  and  C_15
REMARK   10  A    between atoms: C_13  and  C_16
REMARK                            x       y       z     vdW  Elec       q    Type
REMARK                         _______ _______ _______ _____ _____    ______ ____
ROOT
ATOM      1  C   UNL     1       6.598  -2.509   0.962  0.00  0.00    +0.000 A 
ATOM      2  C   UNL     1       7.340  -1.417   1.420  0.00  0.00    +0.000 A 
ATOM      3  C   UNL     1       8.736  -1.494   1.413  0.00  0.00    +0.000 A 
ATOM      4  C   UNL     1       9.334  -2.648   0.928  0.00  0.00    +0.000 A 
ATOM      5  N   UNL     1       8.640  -3.721   0.495  0.00  0.00    +0.000 NA
ATOM      6  C   UNL     1       7.289  -3.633   0.533  0.00  0.00    +0.000 A 
ENDROOT
BRANCH   1   8
ATOM      7  N   UNL     1       4.463  -1.361   0.741  0.00  0.00    +0.000 N 
ATOM      8  C   UNL     1       5.120  -2.555   0.941  0.00  0.00    +0.000 C 
ATOM      9  O   UNL     1       4.550  -3.631   1.069  0.00  0.00    +0.000 OA
ATOM     10  H   UNL     1       4.983  -0.513   0.566  0.00  0.00    +0.000 HD
BRANCH   7  11
ATOM     11  C   UNL     1       3.014  -1.290   0.716  0.00  0.00    +0.000 C 
BRANCH  11  13
ATOM     12  C   UNL     1       2.838   0.172   2.780  0.00  0.00    +0.000 C 
ATOM     13  C   UNL     1       2.419  -1.131   2.113  0.00  0.00    +0.000 C 
ENDBRANCH  11  13
ENDBRANCH   7  11
ENDBRANCH   1   8
BRANCH   4  14
ATOM     14  O   UNL     1      10.715  -2.700   0.941  0.00  0.00    +0.000 OA
BRANCH  14  15
ATOM     15  C   UNL     1      11.223  -3.667   0.008  0.00  0.00    +0.000 C 
BRANCH  15  16
ATOM     16  C   UNL     1      12.764  -3.807   0.105  0.00  0.00    +0.000 C 
ATOM     17  C   UNL     1      13.417  -2.415  -0.056  0.00  0.00    +0.000 C 
ATOM     18  C   UNL     1      13.166  -4.347   1.494  0.00  0.00    +0.000 C 
BRANCH  16  19
ATOM     19  C   UNL     1      13.241  -4.781  -0.985  0.00  0.00    +0.000 A 
ATOM     20  C   UNL     1      12.781  -6.090  -1.034  0.00  0.00    +0.000 A 
ATOM     21  C   UNL     1      13.249  -6.881  -2.061  0.00  0.00    +0.000 A 
ATOM     22  N   UNL     1      14.116  -6.453  -2.991  0.00  0.00    +0.000 NA
ATOM     23  C   UNL     1      14.510  -5.180  -2.862  0.00  0.00    +0.000 A 
ATOM     24  N   UNL     1      14.115  -4.321  -1.907  0.00  0.00    +0.000 NA
ENDBRANCH  16  19
ENDBRANCH  15  16
ENDBRANCH  14  15
ENDBRANCH   4  14
TORSDOF 7
