REMARK  Name = 
REMARK  6 active torsions:
REMARK  status: ('A' for Active; 'I' for Inactive)
REMARK    1  A    between atoms: C_2  and  C_25
REMARK    2  A    between atoms: N_3  and  C_4
REMARK    3  A    between atoms: C_4  and  C_5
REMARK    4  A    between atoms: C_8  and  C_9
REMARK    5  A    between atoms: C_9  and  N_10
REMARK    6  A    between atoms: C_11  and  C_13
REMARK                            x       y       z     vdW  Elec       q    Type
REMARK                         _______ _______ _______ _____ _____    ______ ____
ROOT
ATOM      1  C   UNL     1       3.141  -1.139   3.518  0.00  0.00    +0.000 A 
ATOM      2  C   UNL     1       3.790  -0.094   4.191  0.00  0.00    +0.000 A 
ATOM      3  C   UNL     1       4.644  -0.357   5.271  0.00  0.00    +0.000 A 
ATOM      4  C   UNL     1       4.886  -1.672   5.687  0.00  0.00    +0.000 A 
ATOM      5  C   UNL     1       4.233  -2.716   5.016  0.00  0.00    +0.000 A 
ATOM      6  C   UNL     1       3.382  -2.454   3.936  0.00  0.00    +0.000 A 
ENDROOT
BRANCH   1   7
ATOM      7  C   UNL     1       2.194  -0.848   2.381  0.00  0.00    +0.000 C 
BRANCH   7  10
ATOM      8  O   UNL     1       0.934  -0.410  -0.058  0.00  0.00    +0.000 OA
ATOM      9  C   UNL     1       2.152  -0.538  -0.048  0.00  0.00    +0.000 C 
ATOM     10  N   UNL     1       2.864  -0.774   1.107  0.00  0.00    +0.000 N 
ATOM     11  H   UNL     1       3.873  -0.718   1.095  0.00  0.00    +0.000 HD
BRANCH   9  12
ATOM     12  C   UNL     1       2.944  -0.438  -1.246  0.00  0.00    +0.000 A 
ATOM     13  C   UNL     1       4.282  -0.657  -1.517  0.00  0.00    +0.000 A 
ATOM     14  C   UNL     1       4.428  -0.402  -2.893  0.00  0.00    +0.000 A 
ATOM     15  N   UNL     1       3.280  -0.043  -3.465  0.00  0.00    +0.000 NA
ATOM     16  N   UNL     1       2.395  -0.080  -2.451  0.00  0.00    +0.000 N 
ATOM     17  H   UNL     1       1.425   0.152  -2.637  0.00  0.00    +0.000 HD
ENDBRANCH   9  12
ENDBRANCH   7  10
ENDBRANCH   1   7
BRANCH   4  18
ATOM     18  C   UNL     1       5.801  -1.970   6.850  0.00  0.00    +0.000 C 
BRANCH  18  19
ATOM     19  N   UNL     1       5.076  -2.009   8.096  0.00  0.00    +0.000 N 
ATOM     20  C   UNL     1       5.714  -2.205   9.296  0.00  0.00    +0.000 C 
ATOM     21  O   UNL     1       6.936  -2.312   9.376  0.00  0.00    +0.000 OA
ATOM     22  H   UNL     1       4.079  -2.188   8.035  0.00  0.00    +0.000 HD
BRANCH  20  23
ATOM     23  C   UNL     1       4.861  -2.223  10.491  0.00  0.00    +0.000 A 
ATOM     24  C   UNL     1       5.397  -1.899  11.732  0.00  0.00    +0.000 A 
ATOM     25  S   UNL     1       4.252  -1.923  12.998  0.00  0.00    +0.000 S 
ATOM     26  C   UNL     1       3.013  -2.421  11.943  0.00  0.00    +0.000 A 
ATOM     27  N   UNL     1       1.754  -2.659  12.402  0.00  0.00    +0.000 NA
ATOM     28  C   UNL     1       0.924  -3.061  11.498  0.00  0.00    +0.000 A 
ATOM     29  N   UNL     1       1.236  -3.239  10.175  0.00  0.00    +0.000 N 
ATOM     30  C   UNL     1       2.484  -2.978   9.661  0.00  0.00    +0.000 A 
ATOM     31  O   UNL     1       2.714  -3.097   8.462  0.00  0.00    +0.000 OA
ATOM     32  C   UNL     1       3.461  -2.543  10.640  0.00  0.00    +0.000 A 
ATOM     33  H   UNL     1       0.538  -3.545   9.514  0.00  0.00    +0.000 HD
ENDBRANCH  20  23
ENDBRANCH  18  19
ENDBRANCH   4  18
TORSDOF 6
