REMARK  Name = 
REMARK  7 active torsions:
REMARK  status: ('A' for Active; 'I' for Inactive)
REMARK    1  A    between atoms: C_2  and  C_19
REMARK    2  A    between atoms: N_3  and  C_4
REMARK    3  A    between atoms: C_4  and  C_5
REMARK    4  A    between atoms: C_8  and  C_9
REMARK    5  A    between atoms: C_9  and  C_10
REMARK    6  A    between atoms: C_10  and  C_11
REMARK    7  A    between atoms: C_11  and  N_12
REMARK                            x       y       z     vdW  Elec       q    Type
REMARK                         _______ _______ _______ _____ _____    ______ ____
ROOT
ATOM      1  O   UNL     1       1.071   0.004   0.050  0.00  0.00    +0.000 OA
ATOM      2  C   UNL     1       2.145   0.544  -0.206  0.00  0.00    +0.000 C 
ATOM      3  N   UNL     1       2.849   1.250   0.739  0.00  0.00    +0.000 N 
ATOM      4  H   UNL     1       3.597   1.870   0.445  0.00  0.00    +0.000 HD
ENDROOT
BRANCH   2   5
ATOM      5  C   UNL     1       2.757   0.427  -1.530  0.00  0.00    +0.000 A 
ATOM      6  C   UNL     1       2.463  -0.670  -2.333  0.00  0.00    +0.000 A 
ATOM      7  S   UNL     1       3.249  -0.636  -3.844  0.00  0.00    +0.000 S 
ATOM      8  C   UNL     1       3.975   0.859  -3.497  0.00  0.00    +0.000 A 
ATOM      9  N   UNL     1       4.760   1.489  -4.411  0.00  0.00    +0.000 NA
ATOM     10  C   UNL     1       5.217   2.631  -4.029  0.00  0.00    +0.000 A 
ATOM     11  N   UNL     1       4.969   3.204  -2.804  0.00  0.00    +0.000 N 
ATOM     12  C   UNL     1       4.216   2.591  -1.832  0.00  0.00    +0.000 A 
ATOM     13  O   UNL     1       4.073   3.095  -0.722  0.00  0.00    +0.000 OA
ATOM     14  C   UNL     1       3.653   1.314  -2.230  0.00  0.00    +0.000 A 
ATOM     15  H   UNL     1       5.376   4.094  -2.555  0.00  0.00    +0.000 HD
ENDBRANCH   2   5
BRANCH   3  16
ATOM     16  C   UNL     1       2.268   1.484   2.037  0.00  0.00    +0.000 C 
BRANCH  16  17
ATOM     17  C   UNL     1       3.187   2.260   2.938  0.00  0.00    +0.000 A 
ATOM     18  C   UNL     1       3.150   3.655   2.932  0.00  0.00    +0.000 A 
ATOM     19  C   UNL     1       3.957   4.386   3.804  0.00  0.00    +0.000 A 
ATOM     20  C   UNL     1       4.819   3.749   4.713  0.00  0.00    +0.000 A 
ATOM     21  C   UNL     1       4.890   2.353   4.676  0.00  0.00    +0.000 A 
ATOM     22  C   UNL     1       4.086   1.615   3.797  0.00  0.00    +0.000 A 
BRANCH  20  23
ATOM     23  C   UNL     1       5.689   4.525   5.693  0.00  0.00    +0.000 C 
BRANCH  23  24
ATOM     24  C   UNL     1       5.035   5.833   6.138  0.00  0.00    +0.000 C 
BRANCH  24  25
ATOM     25  C   UNL     1       5.870   6.717   7.068  0.00  0.00    +0.000 C 
BRANCH  25  26
ATOM     26  N   UNL     1       5.091   7.917   7.423  0.00  0.00    +0.000 NA
ATOM     27  C   UNL     1       4.779   8.805   6.294  0.00  0.00    +0.000 C 
ATOM     28  C   UNL     1       5.802   9.913   6.349  0.00  0.00    +0.000 C 
ATOM     29  C   UNL     1       5.996  10.115   7.833  0.00  0.00    +0.000 C 
ATOM     30  C   UNL     1       5.748   8.742   8.448  0.00  0.00    +0.000 C 
ENDBRANCH  25  26
ENDBRANCH  24  25
ENDBRANCH  23  24
ENDBRANCH  20  23
ENDBRANCH  16  17
ENDBRANCH   3  16
TORSDOF 7
