REMARK  Name = 
REMARK  9 active torsions:
REMARK  status: ('A' for Active; 'I' for Inactive)
REMARK    1  A    between atoms: C_1  and  O_2
REMARK    2  A    between atoms: O_2  and  C_3
REMARK    3  A    between atoms: C_10  and  C_11
REMARK    4  A    between atoms: N_13  and  C_14
REMARK    5  A    between atoms: C_14  and  C_15
REMARK    6  A    between atoms: C_18  and  C_19
REMARK    7  A    between atoms: C_19  and  O_20
REMARK    8  A    between atoms: O_20  and  C_21
REMARK    9  A    between atoms: C_21  and  C_22
REMARK                            x       y       z     vdW  Elec       q    Type
REMARK                         _______ _______ _______ _____ _____    ______ ____
ROOT
ATOM      1  C   UNL     1       3.238  -3.018   1.427  0.00  0.00    +0.000 C 
ENDROOT
BRANCH   1   2
ATOM      2  C   UNL     1       2.251  -2.498   2.448  0.00  0.00    +0.000 A 
ATOM      3  C   UNL     1       1.347  -3.366   3.076  0.00  0.00    +0.000 A 
ATOM      4  C   UNL     1       0.416  -2.883   4.006  0.00  0.00    +0.000 A 
ATOM      5  C   UNL     1       0.351  -1.518   4.316  0.00  0.00    +0.000 A 
ATOM      6  C   UNL     1       1.255  -0.650   3.688  0.00  0.00    +0.000 A 
ATOM      7  C   UNL     1       2.192  -1.134   2.766  0.00  0.00    +0.000 A 
BRANCH   5   8
ATOM      8  C   UNL     1      -0.672  -0.988   5.293  0.00  0.00    +0.000 C 
BRANCH   8   9
ATOM      9  O   UNL     1      -0.465  -1.601   6.559  0.00  0.00    +0.000 OA
BRANCH   9  10
ATOM     10  C   UNL     1      -1.375  -1.115   7.549  0.00  0.00    +0.000 C 
BRANCH  10  11
ATOM     11  C   UNL     1      -1.090  -1.787   8.866  0.00  0.00    +0.000 A 
ATOM     12  C   UNL     1       0.206  -2.190   9.219  0.00  0.00    +0.000 A 
ATOM     13  C   UNL     1       0.460  -2.765  10.466  0.00  0.00    +0.000 A 
ATOM     14  C   UNL     1      -0.576  -2.932  11.383  0.00  0.00    +0.000 A 
ATOM     15  C   UNL     1      -1.869  -2.531  11.049  0.00  0.00    +0.000 A 
ATOM     16  C   UNL     1      -2.114  -1.961   9.801  0.00  0.00    +0.000 A 
ATOM     17  F   UNL     1      -3.364  -1.575   9.504  0.00  0.00    +0.000 F 
ENDBRANCH  10  11
ENDBRANCH   9  10
ENDBRANCH   8   9
ENDBRANCH   5   8
ENDBRANCH   1   2
BRANCH   1  20
ATOM     18  C   UNL     1       3.356  -3.435  -1.010  0.00  0.00    +0.000 C 
ATOM     19  O   UNL     1       4.501  -3.877  -0.929  0.00  0.00    +0.000 OA
ATOM     20  N   UNL     1       2.677  -3.005   0.096  0.00  0.00    +0.000 N 
ATOM     21  H   UNL     1       1.734  -2.655   0.003  0.00  0.00    +0.000 HD
BRANCH  18  29
ATOM     22  C   UNL     1       0.203  -2.405  -1.929  0.00  0.00    +0.000 A 
ATOM     23  N   UNL     1      -0.922  -2.004  -2.552  0.00  0.00    +0.000 NA
ATOM     24  C   UNL     1      -0.962  -2.085  -3.885  0.00  0.00    +0.000 A 
ATOM     25  N   UNL     1      -0.004  -2.539  -4.688  0.00  0.00    +0.000 NA
ATOM     26  C   UNL     1       1.103  -2.918  -4.026  0.00  0.00    +0.000 A 
ATOM     27  S   UNL     1       2.428  -3.533  -4.890  0.00  0.00    +0.000 S 
ATOM     28  C   UNL     1       3.330  -3.736  -3.463  0.00  0.00    +0.000 A 
ATOM     29  C   UNL     1       2.661  -3.336  -2.310  0.00  0.00    +0.000 A 
ATOM     30  C   UNL     1       1.315  -2.873  -2.651  0.00  0.00    +0.000 A 
BRANCH  22  32
ATOM     31  C   UNL     1      -1.035  -2.366   0.053  0.00  0.00    +0.000 C 
ATOM     32  O   UNL     1       0.250  -2.301  -0.556  0.00  0.00    +0.000 OA
ENDBRANCH  22  32
ENDBRANCH  18  29
ENDBRANCH   1  20
TORSDOF 8
