REMARK  Name = 
REMARK  7 active torsions:
REMARK  status: ('A' for Active; 'I' for Inactive)
REMARK    1  A    between atoms: C_2  and  C_20
REMARK    2  A    between atoms: N_3  and  C_4
REMARK    3  A    between atoms: C_4  and  C_5
REMARK    4  A    between atoms: C_8  and  C_9
REMARK    5  A    between atoms: C_9  and  O_10
REMARK    6  A    between atoms: O_10  and  C_11
REMARK    7  A    between atoms: C_11  and  C_12
REMARK                            x       y       z     vdW  Elec       q    Type
REMARK                         _______ _______ _______ _____ _____    ______ ____
ROOT
ATOM      1  C   UNL     1       2.339  -2.061  -1.232  0.00  0.00    +0.000 C 
ENDROOT
BRANCH   1   2
ATOM      2  C   UNL     1       3.294  -3.103  -1.771  0.00  0.00    +0.000 A 
ATOM      3  C   UNL     1       4.453  -2.725  -2.446  0.00  0.00    +0.000 A 
ATOM      4  C   UNL     1       5.286  -3.715  -2.973  0.00  0.00    +0.000 A 
ATOM      5  C   UNL     1       4.950  -5.062  -2.824  0.00  0.00    +0.000 A 
ATOM      6  C   UNL     1       3.781  -5.344  -2.126  0.00  0.00    +0.000 A 
ATOM      7  N   UNL     1       2.963  -4.406  -1.589  0.00  0.00    +0.000 NA
BRANCH   5   8
ATOM      8  C   UNL     1       5.798  -6.170  -3.379  0.00  0.00    +0.000 C 
BRANCH   8   9
ATOM      9  O   UNL     1       5.013  -6.928  -4.291  0.00  0.00    +0.000 OA
BRANCH   9  10
ATOM     10  C   UNL     1       5.733  -8.012  -4.877  0.00  0.00    +0.000 C 
BRANCH  10  11
ATOM     11  C   UNL     1       4.847  -8.774  -5.826  0.00  0.00    +0.000 A 
ATOM     12  C   UNL     1       3.518  -8.418  -6.078  0.00  0.00    +0.000 A 
ATOM     13  C   UNL     1       2.751  -9.163  -6.968  0.00  0.00    +0.000 A 
ATOM     14  C   UNL     1       3.341 -10.252  -7.585  0.00  0.00    +0.000 A 
ATOM     15  N   UNL     1       4.619 -10.634  -7.371  0.00  0.00    +0.000 NA
ATOM     16  C   UNL     1       5.338  -9.889  -6.500  0.00  0.00    +0.000 A 
ENDBRANCH  10  11
ENDBRANCH   9  10
ENDBRANCH   8   9
ENDBRANCH   5   8
ENDBRANCH   1   2
BRANCH   1  19
ATOM     17  O   UNL     1       0.929  -0.132   0.184  0.00  0.00    +0.000 OA
ATOM     18  C   UNL     1       1.881  -0.685   0.735  0.00  0.00    +0.000 C 
ATOM     19  N   UNL     1       2.675  -1.604   0.094  0.00  0.00    +0.000 N 
ATOM     20  H   UNL     1       3.197  -2.266   0.660  0.00  0.00    +0.000 HD
BRANCH  18  21
ATOM     21  C   UNL     1       2.261  -0.363   2.108  0.00  0.00    +0.000 A 
ATOM     22  C   UNL     1       2.016   0.886   2.662  0.00  0.00    +0.000 A 
ATOM     23  S   UNL     1       2.565   1.025   4.278  0.00  0.00    +0.000 S 
ATOM     24  C   UNL     1       3.110  -0.586   4.289  0.00  0.00    +0.000 A 
ATOM     25  N   UNL     1       3.690  -1.135   5.391  0.00  0.00    +0.000 NA
ATOM     26  C   UNL     1       4.029  -2.374   5.254  0.00  0.00    +0.000 A 
ATOM     27  N   UNL     1       3.849  -3.118   4.122  0.00  0.00    +0.000 N 
ATOM     28  C   UNL     1       3.326  -2.593   2.970  0.00  0.00    +0.000 A 
ATOM     29  O   UNL     1       3.289  -3.261   1.947  0.00  0.00    +0.000 OA
ATOM     30  C   UNL     1       2.900  -1.214   3.078  0.00  0.00    +0.000 A 
ATOM     31  H   UNL     1       4.163  -4.073   4.057  0.00  0.00    +0.000 HD
ENDBRANCH  18  21
ENDBRANCH   1  19
TORSDOF 7
