REMARK  Name = 
REMARK  5 active torsions:
REMARK  status: ('A' for Active; 'I' for Inactive)
REMARK    1  A    between atoms: N_1  and  C_2
REMARK    2  A    between atoms: C_2  and  C_3
REMARK    3  A    between atoms: C_6  and  O_7
REMARK    4  A    between atoms: O_7  and  C_8
REMARK    5  A    between atoms: C_8  and  C_9
REMARK                            x       y       z     vdW  Elec       q    Type
REMARK                         _______ _______ _______ _____ _____    ______ ____
ROOT
ATOM      1  C   UNL     1       2.951   0.578   1.269  0.00  0.00    +0.000 A 
ATOM      2  C   UNL     1       2.811   1.966   1.390  0.00  0.00    +0.000 A 
ATOM      3  C   UNL     1       3.152   2.614   2.577  0.00  0.00    +0.000 A 
ATOM      4  C   UNL     1       3.607   1.879   3.674  0.00  0.00    +0.000 A 
ATOM      5  C   UNL     1       3.801   0.504   3.548  0.00  0.00    +0.000 A 
ATOM      6  C   UNL     1       3.466  -0.134   2.356  0.00  0.00    +0.000 A 
ATOM      7  F   UNL     1       3.629  -1.462   2.268  0.00  0.00    +0.000 F 
ENDROOT
BRANCH   1   8
ATOM      8  C   UNL     1       2.520  -0.119   0.011  0.00  0.00    +0.000 C 
BRANCH   8   9
ATOM      9  N   UNL     1       3.189   0.432  -1.165  0.00  0.00    +0.000 NA
ATOM     10  H   UNL     1       2.899  -0.096  -1.986  0.00  0.00    +0.000 HD
ATOM     11  H   UNL     1       4.192   0.276  -1.069  0.00  0.00    +0.000 HD
ENDBRANCH   8   9
ENDBRANCH   1   8
BRANCH   4  12
ATOM     12  O   UNL     1       3.876   2.413   4.908  0.00  0.00    +0.000 OA
BRANCH  12  13
ATOM     13  C   UNL     1       3.184   3.633   5.186  0.00  0.00    +0.000 C 
BRANCH  13  14
ATOM     14  C   UNL     1       3.112   3.853   6.673  0.00  0.00    +0.000 A 
ATOM     15  C   UNL     1       4.272   4.058   7.425  0.00  0.00    +0.000 A 
ATOM     16  C   UNL     1       4.145   4.289   8.785  0.00  0.00    +0.000 A 
ATOM     17  N   UNL     1       2.961   4.330   9.435  0.00  0.00    +0.000 NA
ATOM     18  C   UNL     1       1.855   4.120   8.692  0.00  0.00    +0.000 A 
ATOM     19  C   UNL     1       1.878   3.881   7.328  0.00  0.00    +0.000 A 
ENDBRANCH  13  14
ENDBRANCH  12  13
ENDBRANCH   4  12
TORSDOF 5
