REMARK  Name = 
REMARK  7 active torsions:
REMARK  status: ('A' for Active; 'I' for Inactive)
REMARK    1  A    between atoms: C_1  and  C_2
REMARK    2  A    between atoms: C_2  and  C_3
REMARK    3  A    between atoms: C_2  and  C_14
REMARK    4  A    between atoms: C_3  and  N_4
REMARK    5  A    between atoms: N_4  and  C_5
REMARK    6  A    between atoms: C_8  and  C_9
REMARK    7  A    between atoms: C_18  and  C_19
REMARK                            x       y       z     vdW  Elec       q    Type
REMARK                         _______ _______ _______ _____ _____    ______ ____
ROOT
ATOM      1  N   UNL     1       2.541   1.347   2.190  0.00  0.00    +0.000 N 
ATOM      2  H   UNL     1       1.874   1.913   1.677  0.00  0.00    +0.000 HD
ENDROOT
BRANCH   1   3
ATOM      3  C   UNL     1       2.983   1.789   3.426  0.00  0.00    +0.000 A 
ATOM      4  C   UNL     1       3.985   1.144   4.159  0.00  0.00    +0.000 A 
ATOM      5  C   UNL     1       4.381   1.624   5.407  0.00  0.00    +0.000 A 
ATOM      6  C   UNL     1       3.753   2.752   5.910  0.00  0.00    +0.000 A 
ATOM      7  N   UNL     1       2.761   3.415   5.258  0.00  0.00    +0.000 NA
ATOM      8  C   UNL     1       2.411   2.909   4.046  0.00  0.00    +0.000 A 
BRANCH   6   9
ATOM      9  C   UNL     1       4.185   3.295   7.237  0.00  0.00    +0.000 C 
ATOM     10  N   UNL     1       3.525   4.411   7.672  0.00  0.00    +0.000 N 
ATOM     11  O   UNL     1       5.079   2.781   7.899  0.00  0.00    +0.000 OA
ATOM     12  H   UNL     1       2.793   4.819   7.103  0.00  0.00    +0.000 HD
ATOM     13  H   UNL     1       3.787   4.826   8.554  0.00  0.00    +0.000 HD
ENDBRANCH   6   9
ENDBRANCH   1   3
BRANCH   1  14
ATOM     14  C   UNL     1       3.058   0.142   1.574  0.00  0.00    +0.000 C 
BRANCH  14  16
ATOM     15  C   UNL     1       0.915  -0.319   0.173  0.00  0.00    +0.000 C 
ATOM     16  C   UNL     1       2.401  -0.154   0.250  0.00  0.00    +0.000 C 
BRANCH  16  17
ATOM     17  C   UNL     1       3.193  -1.029  -0.640  0.00  0.00    +0.000 A 
ATOM     18  C   UNL     1       2.758  -2.321  -0.972  0.00  0.00    +0.000 A 
ATOM     19  C   UNL     1       3.554  -3.166  -1.745  0.00  0.00    +0.000 A 
ATOM     20  C   UNL     1       4.791  -2.725  -2.205  0.00  0.00    +0.000 A 
ATOM     21  C   UNL     1       5.227  -1.432  -1.902  0.00  0.00    +0.000 A 
ATOM     22  C   UNL     1       4.430  -0.590  -1.122  0.00  0.00    +0.000 A 
BRANCH  21  23
ATOM     23  C   UNL     1       6.495  -0.956  -2.370  0.00  0.00    +0.000 C 
ATOM     24  N   UNL     1       7.512  -0.544  -2.729  0.00  0.00    +0.000 NA
ENDBRANCH  21  23
ENDBRANCH  16  17
ENDBRANCH  14  16
ENDBRANCH   1  14
TORSDOF 6
