REMARK  Name = 
REMARK  7 active torsions:
REMARK  status: ('A' for Active; 'I' for Inactive)
REMARK    1  A    between atoms: C_2  and  C_3
REMARK    2  A    between atoms: C_6  and  N_7
REMARK    3  A    between atoms: N_7  and  C_8
REMARK    4  A    between atoms: C_8  and  C_9
REMARK    5  A    between atoms: C_9  and  C_12
REMARK    6  A    between atoms: C_16  and  C_17
REMARK    7  A    between atoms: C_17  and  C_18
REMARK                            x       y       z     vdW  Elec       q    Type
REMARK                         _______ _______ _______ _____ _____    ______ ____
ROOT
ATOM      1  C   UNL     1       5.975  -0.951   0.210  0.00  0.00    +0.000 C 
ATOM      2  F   UNL     1       5.016  -1.084  -0.752  0.00  0.00    +0.000 F 
ATOM      3  F   UNL     1       6.760   0.093  -0.206  0.00  0.00    +0.000 F 
ENDROOT
BRANCH   1   4
ATOM      4  C   UNL     1       6.774  -2.224   0.411  0.00  0.00    +0.000 A 
ATOM      5  C   UNL     1       8.125  -2.140   0.773  0.00  0.00    +0.000 A 
ATOM      6  C   UNL     1       8.857  -3.296   1.026  0.00  0.00    +0.000 A 
ATOM      7  C   UNL     1       8.243  -4.551   0.944  0.00  0.00    +0.000 A 
ATOM      8  C   UNL     1       6.891  -4.667   0.585  0.00  0.00    +0.000 A 
ATOM      9  C   UNL     1       6.173  -3.493   0.300  0.00  0.00    +0.000 A 
BRANCH   8  10
ATOM     10  C   UNL     1       6.212  -6.021   0.494  0.00  0.00    +0.000 C 
BRANCH  10  11
ATOM     11  C   UNL     1       5.454  -6.364   1.773  0.00  0.00    +0.000 C 
ATOM     12  C   UNL     1       6.224  -6.654   3.069  0.00  0.00    +0.000 C 
ATOM     13  O   UNL     1       5.572  -7.935   3.228  0.00  0.00    +0.000 OA
ATOM     14  C   UNL     1       4.975  -7.823   1.916  0.00  0.00    +0.000 C 
ENDBRANCH  10  11
ENDBRANCH   8  10
ENDBRANCH   1   4
BRANCH   1  15
ATOM     15  C   UNL     1       5.303  -0.535   1.543  0.00  0.00    +0.000 C 
BRANCH  15  16
ATOM     16  N   UNL     1       4.576   0.739   1.449  0.00  0.00    +0.000 N 
ATOM     17  H   UNL     1       4.949   1.402   0.771  0.00  0.00    +0.000 HD
BRANCH  16  21
ATOM     18  C   UNL     1       2.467   2.411   4.684  0.00  0.00    +0.000 A 
ATOM     19  C   UNL     1       3.167   1.219   4.867  0.00  0.00    +0.000 A 
ATOM     20  C   UNL     1       3.895   0.669   3.807  0.00  0.00    +0.000 A 
ATOM     21  C   UNL     1       3.962   1.305   2.561  0.00  0.00    +0.000 A 
ATOM     22  C   UNL     1       3.246   2.495   2.395  0.00  0.00    +0.000 A 
ATOM     23  C   UNL     1       2.503   3.049   3.444  0.00  0.00    +0.000 A 
BRANCH  18  25
ATOM     24  N   UNL     1       1.085   3.414   6.635  0.00  0.00    +0.000 NA
ATOM     25  C   UNL     1       1.703   2.963   5.756  0.00  0.00    +0.000 C 
ENDBRANCH  18  25
ENDBRANCH  16  21
ENDBRANCH  15  16
ENDBRANCH   1  15
TORSDOF 7
