REMARK  Name = 
REMARK  9 active torsions:
REMARK  status: ('A' for Active; 'I' for Inactive)
REMARK    1  A    between atoms: C_1  and  C_2
REMARK    2  A    between atoms: C_2  and  C_3
REMARK    3  A    between atoms: C_2  and  C_4
REMARK    4  A    between atoms: C_2  and  C_5
REMARK    5  A    between atoms: N_7  and  C_8
REMARK    6  A    between atoms: C_8  and  C_9
REMARK    7  A    between atoms: C_12  and  C_13
REMARK    8  A    between atoms: C_13  and  C_14
REMARK    9  A    between atoms: C_14  and  N_15
REMARK                            x       y       z     vdW  Elec       q    Type
REMARK                         _______ _______ _______ _____ _____    ______ ____
ROOT
ATOM      1  C   UNL     1       1.720   5.281   1.304  0.00  0.00    +0.000 A 
ATOM      2  C   UNL     1       2.159   5.764   2.537  0.00  0.00    +0.000 A 
ATOM      3  C   UNL     1       1.266   5.932   3.592  0.00  0.00    +0.000 A 
ATOM      4  C   UNL     1      -0.102   5.660   3.439  0.00  0.00    +0.000 A 
ATOM      5  C   UNL     1      -0.551   5.224   2.185  0.00  0.00    +0.000 A 
ATOM      6  C   UNL     1       0.351   5.035   1.128  0.00  0.00    +0.000 A 
ENDROOT
BRANCH   1   7
ATOM      7  C   UNL     1       2.732   4.918   0.246  0.00  0.00    +0.000 C 
BRANCH   7  10
ATOM      8  C   UNL     1       3.065   1.289   0.276  0.00  0.00    +0.000 A 
ATOM      9  C   UNL     1       2.497   2.474  -0.157  0.00  0.00    +0.000 A 
ATOM     10  N   UNL     1       3.155   3.531   0.413  0.00  0.00    +0.000 N 
ATOM     11  C   UNL     1       4.210   3.072   1.172  0.00  0.00    +0.000 A 
ATOM     12  C   UNL     1       5.185   3.762   1.918  0.00  0.00    +0.000 A 
ATOM     13  C   UNL     1       6.133   3.022   2.628  0.00  0.00    +0.000 A 
ATOM     14  C   UNL     1       6.117   1.634   2.596  0.00  0.00    +0.000 A 
ATOM     15  C   UNL     1       5.146   0.955   1.853  0.00  0.00    +0.000 A 
ATOM     16  C   UNL     1       4.171   1.674   1.121  0.00  0.00    +0.000 A 
BRANCH   8  18
ATOM     17  C   UNL     1       1.368  -0.068  -1.039  0.00  0.00    +0.000 C 
ATOM     18  C   UNL     1       2.587  -0.114  -0.086  0.00  0.00    +0.000 C 
ATOM     19  C   UNL     1       2.145  -0.881   1.178  0.00  0.00    +0.000 C 
ATOM     20  C   UNL     1       3.700  -0.901  -0.805  0.00  0.00    +0.000 C 
ENDBRANCH   8  18
ENDBRANCH   7  10
ENDBRANCH   1   7
BRANCH   4  21
ATOM     21  C   UNL     1      -1.070   5.747   4.606  0.00  0.00    +0.000 C 
BRANCH  21  22
ATOM     22  C   UNL     1      -0.636   6.754   5.675  0.00  0.00    +0.000 C 
BRANCH  22  23
ATOM     23  N   UNL     1      -1.585   6.897   6.770  0.00  0.00    +0.000 N 
ATOM     24  C   UNL     1      -1.250   7.606   7.879  0.00  0.00    +0.000 C 
ATOM     25  N   UNL     1      -0.290   8.444   8.024  0.00  0.00    +0.000 NA
ATOM     26  N   UNL     1      -2.050   7.338   8.924  0.00  0.00    +0.000 N 
ATOM     27  H   UNL     1      -2.087   6.043   6.989  0.00  0.00    +0.000 HD
ATOM     28  H   UNL     1       0.225   8.530   7.149  0.00  0.00    +0.000 HD
ATOM     29  H   UNL     1      -3.030   7.249   8.695  0.00  0.00    +0.000 HD
ATOM     30  H   UNL     1      -1.902   8.044   9.642  0.00  0.00    +0.000 HD
ENDBRANCH  22  23
ENDBRANCH  21  22
ENDBRANCH   4  21
TORSDOF 6
