REMARK  Name = 
REMARK  9 active torsions:
REMARK  status: ('A' for Active; 'I' for Inactive)
REMARK    1  A    between atoms: C_1  and  C_2
REMARK    2  A    between atoms: N_4  and  C_5
REMARK    3  A    between atoms: C_9  and  C_10
REMARK    4  A    between atoms: C_10  and  C_11
REMARK    5  A    between atoms: C_10  and  C_12
REMARK    6  A    between atoms: C_10  and  C_13
REMARK    7  A    between atoms: C_13  and  N_14
REMARK    8  A    between atoms: C_18  and  C_19
REMARK    9  A    between atoms: C_26  and  C_27
REMARK                            x       y       z     vdW  Elec       q    Type
REMARK                         _______ _______ _______ _____ _____    ______ ____
ROOT
ATOM      1  C   UNL     1      -1.421   1.128  -5.348  0.00  0.00    +0.000 C 
ATOM      2  C   UNL     1      -2.089   2.081  -6.369  0.00  0.00    +0.000 C 
ATOM      3  C   UNL     1      -0.960  -0.134  -6.118  0.00  0.00    +0.000 C 
ENDROOT
BRANCH   1   8
ATOM      4  C   UNL     1       1.827   1.514  -3.248  0.00  0.00    +0.000 A 
ATOM      5  C   UNL     1       2.211   2.811  -3.604  0.00  0.00    +0.000 A 
ATOM      6  C   UNL     1       1.434   3.591  -4.457  0.00  0.00    +0.000 A 
ATOM      7  C   UNL     1       0.256   3.077  -4.997  0.00  0.00    +0.000 A 
ATOM      8  C   UNL     1      -0.176   1.779  -4.690  0.00  0.00    +0.000 A 
ATOM      9  C   UNL     1       0.613   1.040  -3.780  0.00  0.00    +0.000 A 
BRANCH   4  13
ATOM     10  C   UNL     1       1.904  -2.241  -3.196  0.00  0.00    +0.000 C 
ATOM     11  C   UNL     1       2.594  -1.691  -1.949  0.00  0.00    +0.000 C 
ATOM     12  C   UNL     1       2.089  -0.295  -1.532  0.00  0.00    +0.000 C 
ATOM     13  N   UNL     1       2.619   0.755  -2.409  0.00  0.00    +0.000 N 
ATOM     14  C   UNL     1       4.079   0.703  -2.603  0.00  0.00    +0.000 C 
ATOM     15  C   UNL     1       4.520  -0.723  -3.005  0.00  0.00    +0.000 C 
ATOM     16  C   UNL     1       6.040  -0.832  -3.019  0.00  0.00    +0.000 C 
ATOM     17  O   UNL     1       4.027  -1.718  -2.088  0.00  0.00    +0.000 OA
ENDBRANCH   4  13
ENDBRANCH   1   8
BRANCH   1  18
ATOM     18  C   UNL     1      -2.468   0.742  -4.254  0.00  0.00    +0.000 C 
BRANCH  18  19
ATOM     19  N   UNL     1      -3.679   0.122  -4.805  0.00  0.00    +0.000 N 
ATOM     20  C   UNL     1      -4.711  -0.254  -3.966  0.00  0.00    +0.000 A 
ATOM     21  C   UNL     1      -5.052   0.413  -2.786  0.00  0.00    +0.000 A 
ATOM     22  N   UNL     1      -6.104   0.076  -1.988  0.00  0.00    +0.000 NA
ATOM     23  C   UNL     1      -6.843  -0.966  -2.447  0.00  0.00    +0.000 A 
ATOM     24  C   UNL     1      -6.531  -1.635  -3.620  0.00  0.00    +0.000 A 
ATOM     25  N   UNL     1      -5.460  -1.299  -4.393  0.00  0.00    +0.000 NA
ATOM     26  H   UNL     1      -3.549  -0.622  -5.485  0.00  0.00    +0.000 HD
BRANCH  23  27
ATOM     27  C   UNL     1      -8.028  -1.372  -1.646  0.00  0.00    +0.000 C 
ATOM     28  N   UNL     1      -8.252  -0.647  -0.502  0.00  0.00    +0.000 N 
ATOM     29  O   UNL     1      -8.761  -2.290  -1.978  0.00  0.00    +0.000 OA
ATOM     30  H   UNL     1      -7.631   0.113  -0.252  0.00  0.00    +0.000 HD
ATOM     31  H   UNL     1      -9.048  -0.867   0.079  0.00  0.00    +0.000 HD
ENDBRANCH  23  27
ENDBRANCH  18  19
ENDBRANCH   1  18
TORSDOF 5
