REMARK  Name = 
REMARK  5 active torsions:
REMARK  status: ('A' for Active; 'I' for Inactive)
REMARK    1  A    between atoms: N_1  and  C_2
REMARK    2  A    between atoms: C_2  and  C_3
REMARK    3  A    between atoms: N_6  and  C_7
REMARK    4  A    between atoms: C_7  and  N_8
REMARK    5  A    between atoms: C_13  and  C_14
REMARK                            x       y       z     vdW  Elec       q    Type
REMARK                         _______ _______ _______ _____ _____    ______ ____
ROOT
ATOM      1  N   UNL     1       5.337  -2.585  -3.833  0.00  0.00    +0.000 N 
ATOM      2  C   UNL     1       5.665  -1.558  -4.689  0.00  0.00    +0.000 A 
ATOM      3  C   UNL     1       6.984  -1.703  -5.046  0.00  0.00    +0.000 A 
ATOM      4  C   UNL     1       7.476  -2.870  -4.406  0.00  0.00    +0.000 A 
ATOM      5  C   UNL     1       8.728  -3.494  -4.373  0.00  0.00    +0.000 A 
ATOM      6  C   UNL     1       8.816  -4.653  -3.615  0.00  0.00    +0.000 A 
ATOM      7  N   UNL     1       7.779  -5.229  -2.943  0.00  0.00    +0.000 NA
ATOM      8  C   UNL     1       6.568  -4.623  -2.976  0.00  0.00    +0.000 A 
ATOM      9  C   UNL     1       6.417  -3.435  -3.687  0.00  0.00    +0.000 A 
ENDROOT
BRANCH   6  10
ATOM     10  C   UNL     1      10.151  -5.324  -3.479  0.00  0.00    +0.000 C 
ATOM     11  N   UNL     1      10.172  -6.437  -2.683  0.00  0.00    +0.000 N 
ATOM     12  O   UNL     1      11.165  -4.907  -4.026  0.00  0.00    +0.000 OA
ATOM     13  H   UNL     1       9.322  -6.726  -2.217  0.00  0.00    +0.000 HD
ATOM     14  H   UNL     1      11.048  -6.909  -2.507  0.00  0.00    +0.000 HD
ENDBRANCH   6  10
BRANCH   1  15
ATOM     15  C   UNL     1       4.009  -2.741  -3.233  0.00  0.00    +0.000 C 
BRANCH  15  19
ATOM     16  C   UNL     1       3.066  -1.119   0.641  0.00  0.00    +0.000 C 
ATOM     17  C   UNL     1       4.512  -1.013   0.142  0.00  0.00    +0.000 C 
ATOM     18  C   UNL     1       4.628  -1.285  -1.363  0.00  0.00    +0.000 C 
ATOM     19  N   UNL     1       4.063  -2.587  -1.762  0.00  0.00    +0.000 NA
ATOM     20  C   UNL     1       2.692  -2.781  -1.243  0.00  0.00    +0.000 C 
ATOM     21  C   UNL     1       2.553  -2.512   0.257  0.00  0.00    +0.000 C 
BRANCH  16  22
ATOM     22  C   UNL     1       2.210   0.041   0.091  0.00  0.00    +0.000 C 
BRANCH  22  23
ATOM     23  N   UNL     1       0.828  -0.017   0.554  0.00  0.00    +0.000 NA
ATOM     24  H   UNL     1       0.318   0.788   0.190  0.00  0.00    +0.000 HD
ATOM     25  H   UNL     1       0.804   0.074   1.570  0.00  0.00    +0.000 HD
ENDBRANCH  22  23
ENDBRANCH  16  22
ENDBRANCH  15  19
ENDBRANCH   1  15
TORSDOF 5
