REMARK  Name = 
REMARK  5 active torsions:
REMARK  status: ('A' for Active; 'I' for Inactive)
REMARK    1  A    between atoms: C_2  and  C_4
REMARK    2  A    between atoms: C_7  and  N_8
REMARK    3  A    between atoms: N_8  and  C_9
REMARK    4  A    between atoms: C_9  and  C_10
REMARK    5  A    between atoms: C_14  and  C_15
REMARK                            x       y       z     vdW  Elec       q    Type
REMARK                         _______ _______ _______ _____ _____    ______ ____
ROOT
ATOM      1  N   UNL     1       5.386   3.022   3.475  0.00  0.00    +0.000 N 
ATOM      2  H   UNL     1       4.578   2.748   2.925  0.00  0.00    +0.000 HD
ENDROOT
BRANCH   1   6
ATOM      3  C   UNL     1       8.601   0.289   3.095  0.00  0.00    +0.000 A 
ATOM      4  C   UNL     1       7.531   0.267   2.196  0.00  0.00    +0.000 A 
ATOM      5  C   UNL     1       6.481   1.184   2.330  0.00  0.00    +0.000 A 
ATOM      6  C   UNL     1       6.465   2.118   3.375  0.00  0.00    +0.000 A 
ATOM      7  C   UNL     1       7.565   2.153   4.240  0.00  0.00    +0.000 A 
ATOM      8  C   UNL     1       8.617   1.242   4.114  0.00  0.00    +0.000 A 
BRANCH   3  10
ATOM      9  N   UNL     1       9.973  -1.263   1.814  0.00  0.00    +0.000 N 
ATOM     10  C   UNL     1       9.719  -0.683   3.028  0.00  0.00    +0.000 C 
ATOM     11  O   UNL     1      10.407  -0.952   4.003  0.00  0.00    +0.000 OA
ATOM     12  H   UNL     1      10.804  -1.840   1.764  0.00  0.00    +0.000 HD
ATOM     13  H   UNL     1       9.624  -0.873   0.950  0.00  0.00    +0.000 HD
ENDBRANCH   3  10
ENDBRANCH   1   6
BRANCH   1  14
ATOM     14  C   UNL     1       5.111   3.764   4.730  0.00  0.00    +0.000 C 
ATOM     15  C   UNL     1       4.733   2.941   5.951  0.00  0.00    +0.000 C 
ATOM     16  C   UNL     1       3.693   3.771   5.276  0.00  0.00    +0.000 C 
BRANCH  14  17
ATOM     17  C   UNL     1       5.905   5.070   4.842  0.00  0.00    +0.000 A 
ATOM     18  C   UNL     1       6.700   5.390   5.956  0.00  0.00    +0.000 A 
ATOM     19  C   UNL     1       7.527   6.516   5.971  0.00  0.00    +0.000 A 
ATOM     20  C   UNL     1       7.587   7.353   4.861  0.00  0.00    +0.000 A 
ATOM     21  C   UNL     1       6.802   7.085   3.735  0.00  0.00    +0.000 A 
ATOM     22  C   UNL     1       5.951   5.965   3.753  0.00  0.00    +0.000 A 
BRANCH  21  23
ATOM     23  C   UNL     1       6.887   7.943   2.498  0.00  0.00    +0.000 C 
ATOM     24  F   UNL     1       7.850   8.906   2.569  0.00  0.00    +0.000 F 
ATOM     25  F   UNL     1       7.171   7.221   1.378  0.00  0.00    +0.000 F 
ATOM     26  F   UNL     1       5.724   8.600   2.233  0.00  0.00    +0.000 F 
ENDBRANCH  21  23
ENDBRANCH  14  17
ENDBRANCH   1  14
TORSDOF 5
