REMARK  Name = 
REMARK  7 active torsions:
REMARK  status: ('A' for Active; 'I' for Inactive)
REMARK    1  A    between atoms: C_2  and  C_19
REMARK    2  A    between atoms: N_3  and  C_4
REMARK    3  A    between atoms: C_4  and  C_5
REMARK    4  A    between atoms: C_8  and  C_9
REMARK    5  A    between atoms: C_9  and  C_10
REMARK    6  A    between atoms: C_10  and  N_11
REMARK    7  A    between atoms: N_11  and  C_12
REMARK                            x       y       z     vdW  Elec       q    Type
REMARK                         _______ _______ _______ _____ _____    ______ ____
ROOT
ATOM      1  C   UNL     1       2.297   1.066   2.202  0.00  0.00    +0.000 C 
ENDROOT
BRANCH   1   2
ATOM      2  C   UNL     1       3.202   1.501   3.323  0.00  0.00    +0.000 A 
ATOM      3  C   UNL     1       3.332   2.860   3.632  0.00  0.00    +0.000 A 
ATOM      4  C   UNL     1       4.128   3.280   4.702  0.00  0.00    +0.000 A 
ATOM      5  C   UNL     1       4.822   2.355   5.487  0.00  0.00    +0.000 A 
ATOM      6  C   UNL     1       4.732   0.995   5.137  0.00  0.00    +0.000 A 
ATOM      7  C   UNL     1       3.936   0.573   4.067  0.00  0.00    +0.000 A 
BRANCH   5   8
ATOM      8  C   UNL     1       5.711   2.752   6.644  0.00  0.00    +0.000 C 
BRANCH   8   9
ATOM      9  C   UNL     1       5.605   4.175   7.230  0.00  0.00    +0.000 C 
BRANCH   9  10
ATOM     10  N   UNL     1       4.312   4.530   7.839  0.00  0.00    +0.000 NA
ATOM     11  H   UNL     1       4.075   3.855   8.567  0.00  0.00    +0.000 HD
BRANCH  10  12
ATOM     12  C   UNL     1       4.350   5.894   8.407  0.00  0.00    +0.000 C 
ATOM     13  C   UNL     1       3.049   6.303   9.104  0.00  0.00    +0.000 C 
ATOM     14  C   UNL     1       2.337   7.161   8.077  0.00  0.00    +0.000 C 
ATOM     15  N   UNL     1       3.421   7.960   7.495  0.00  0.00    +0.000 NA
ATOM     16  C   UNL     1       4.524   6.998   7.334  0.00  0.00    +0.000 C 
ATOM     17  H   UNL     1       3.703   8.672   8.168  0.00  0.00    +0.000 HD
ENDBRANCH  10  12
ENDBRANCH   9  10
ENDBRANCH   8   9
ENDBRANCH   5   8
ENDBRANCH   1   2
BRANCH   1  20
ATOM     18  O   UNL     1       2.167   3.109   0.280  0.00  0.00    +0.000 OA
ATOM     19  C   UNL     1       2.878   2.132   0.058  0.00  0.00    +0.000 C 
ATOM     20  N   UNL     1       2.972   1.080   0.930  0.00  0.00    +0.000 N 
ATOM     21  H   UNL     1       3.685   0.372   0.789  0.00  0.00    +0.000 HD
BRANCH  19  22
ATOM     22  C   UNL     1       3.630   2.012  -1.198  0.00  0.00    +0.000 A 
ATOM     23  C   UNL     1       3.250   2.770  -2.297  0.00  0.00    +0.000 A 
ATOM     24  S   UNL     1       4.222   2.517  -3.674  0.00  0.00    +0.000 S 
ATOM     25  C   UNL     1       5.216   1.418  -2.838  0.00  0.00    +0.000 A 
ATOM     26  N   UNL     1       6.293   0.850  -3.442  0.00  0.00    +0.000 NA
ATOM     27  C   UNL     1       6.979   0.065  -2.679  0.00  0.00    +0.000 A 
ATOM     28  N   UNL     1       6.679  -0.215  -1.373  0.00  0.00    +0.000 N 
ATOM     29  C   UNL     1       5.554   0.269  -0.750  0.00  0.00    +0.000 A 
ATOM     30  O   UNL     1       5.236  -0.121   0.370  0.00  0.00    +0.000 OA
ATOM     31  C   UNL     1       4.783   1.210  -1.539  0.00  0.00    +0.000 A 
ATOM     32  H   UNL     1       7.234  -0.871  -0.848  0.00  0.00    +0.000 HD
ENDBRANCH  19  22
ENDBRANCH   1  20
TORSDOF 7
