REMARK  Name = 
REMARK  9 active torsions:
REMARK  status: ('A' for Active; 'I' for Inactive)
REMARK    1  A    between atoms: C_1  and  O_2
REMARK    2  A    between atoms: O_2  and  C_3
REMARK    3  A    between atoms: C_10  and  C_11
REMARK    4  A    between atoms: N_13  and  C_14
REMARK    5  A    between atoms: C_14  and  C_15
REMARK    6  A    between atoms: C_18  and  N_19
REMARK    7  A    between atoms: N_19  and  C_20
REMARK    8  A    between atoms: C_20  and  C_21
REMARK    9  A    between atoms: N_25  and  C_26
REMARK                            x       y       z     vdW  Elec       q    Type
REMARK                         _______ _______ _______ _____ _____    ______ ____
ROOT
ATOM      1  C   UNL     1       2.879   1.844  -2.739  0.00  0.00    +0.000 C 
ENDROOT
BRANCH   1   2
ATOM      2  C   UNL     1       1.752   0.884  -3.016  0.00  0.00    +0.000 A 
ATOM      3  C   UNL     1       1.988  -0.493  -3.054  0.00  0.00    +0.000 A 
ATOM      4  C   UNL     1       0.937  -1.393  -3.270  0.00  0.00    +0.000 A 
ATOM      5  C   UNL     1      -0.370  -0.951  -3.499  0.00  0.00    +0.000 A 
ATOM      6  C   UNL     1      -0.591   0.434  -3.494  0.00  0.00    +0.000 A 
ATOM      7  C   UNL     1       0.453   1.341  -3.264  0.00  0.00    +0.000 A 
BRANCH   5   8
ATOM      8  N   UNL     1      -1.469  -1.806  -3.598  0.00  0.00    +0.000 N 
ATOM      9  H   UNL     1      -2.163  -1.496  -4.274  0.00  0.00    +0.000 HD
BRANCH   8  10
ATOM     10  C   UNL     1      -1.301  -3.250  -3.484  0.00  0.00    +0.000 C 
BRANCH  10  11
ATOM     11  C   UNL     1      -2.648  -3.990  -3.554  0.00  0.00    +0.000 C 
ATOM     12  C   UNL     1      -3.605  -3.555  -2.434  0.00  0.00    +0.000 C 
ATOM     13  C   UNL     1      -4.875  -4.401  -2.461  0.00  0.00    +0.000 C 
ATOM     14  C   UNL     1      -4.552  -5.893  -2.416  0.00  0.00    +0.000 C 
ATOM     15  N   UNL     1      -3.654  -6.274  -3.516  0.00  0.00    +0.000 NA
ATOM     16  C   UNL     1      -3.383  -7.712  -3.470  0.00  0.00    +0.000 C 
ATOM     17  C   UNL     1      -2.399  -5.510  -3.469  0.00  0.00    +0.000 C 
ENDBRANCH  10  11
ENDBRANCH   8  10
ENDBRANCH   5   8
ENDBRANCH   1   2
BRANCH   1  20
ATOM     18  C   UNL     1       4.647   3.028  -3.974  0.00  0.00    +0.000 C 
ATOM     19  O   UNL     1       5.130   3.475  -2.934  0.00  0.00    +0.000 OA
ATOM     20  N   UNL     1       3.546   2.223  -3.960  0.00  0.00    +0.000 N 
ATOM     21  H   UNL     1       3.131   1.911  -4.826  0.00  0.00    +0.000 HD
BRANCH  18  29
ATOM     22  C   UNL     1       3.920   2.020  -7.185  0.00  0.00    +0.000 A 
ATOM     23  N   UNL     1       3.860   1.790  -8.512  0.00  0.00    +0.000 NA
ATOM     24  C   UNL     1       4.758   2.394  -9.294  0.00  0.00    +0.000 A 
ATOM     25  N   UNL     1       5.728   3.220  -8.911  0.00  0.00    +0.000 NA
ATOM     26  C   UNL     1       5.748   3.427  -7.583  0.00  0.00    +0.000 A 
ATOM     27  S   UNL     1       6.922   4.455  -6.915  0.00  0.00    +0.000 S 
ATOM     28  C   UNL     1       6.325   4.199  -5.345  0.00  0.00    +0.000 A 
ATOM     29  C   UNL     1       5.235   3.338  -5.290  0.00  0.00    +0.000 A 
ATOM     30  C   UNL     1       4.888   2.880  -6.636  0.00  0.00    +0.000 A 
BRANCH  22  32
ATOM     31  C   UNL     1       2.416   0.241  -6.947  0.00  0.00    +0.000 C 
ATOM     32  O   UNL     1       2.967   1.429  -6.384  0.00  0.00    +0.000 OA
ENDBRANCH  22  32
ENDBRANCH  18  29
ENDBRANCH   1  20
TORSDOF 7
