REMARK  Name = 
REMARK  7 active torsions:
REMARK  status: ('A' for Active; 'I' for Inactive)
REMARK    1  A    between atoms: C_2  and  C_20
REMARK    2  A    between atoms: N_3  and  C_4
REMARK    3  A    between atoms: C_4  and  C_5
REMARK    4  A    between atoms: C_8  and  C_9
REMARK    5  A    between atoms: C_9  and  N_10
REMARK    6  A    between atoms: N_10  and  C_11
REMARK    7  A    between atoms: C_11  and  C_12
REMARK                            x       y       z     vdW  Elec       q    Type
REMARK                         _______ _______ _______ _____ _____    ______ ____
ROOT
ATOM      1  C   UNL     1       3.193  -2.239  -2.870  0.00  0.00    +0.000 A 
ATOM      2  C   UNL     1       4.157  -1.539  -3.600  0.00  0.00    +0.000 A 
ATOM      3  C   UNL     1       5.018  -2.214  -4.467  0.00  0.00    +0.000 A 
ATOM      4  C   UNL     1       4.951  -3.608  -4.612  0.00  0.00    +0.000 A 
ATOM      5  C   UNL     1       3.957  -4.302  -3.907  0.00  0.00    +0.000 A 
ATOM      6  C   UNL     1       3.084  -3.624  -3.048  0.00  0.00    +0.000 A 
ENDROOT
BRANCH   1   7
ATOM      7  C   UNL     1       2.252  -1.493  -1.960  0.00  0.00    +0.000 C 
BRANCH   7  10
ATOM      8  O   UNL     1       1.780   1.024  -3.142  0.00  0.00    +0.000 OA
ATOM      9  C   UNL     1       0.947   0.132  -3.279  0.00  0.00    +0.000 C 
ATOM     10  N   UNL     1       1.064  -1.089  -2.668  0.00  0.00    +0.000 N 
ATOM     11  H   UNL     1       0.455  -1.843  -2.962  0.00  0.00    +0.000 HD
BRANCH   9  12
ATOM     12  C   UNL     1      -0.271   0.340  -4.074  0.00  0.00    +0.000 A 
ATOM     13  C   UNL     1      -0.725   1.630  -4.317  0.00  0.00    +0.000 A 
ATOM     14  S   UNL     1      -2.156   1.688  -5.241  0.00  0.00    +0.000 S 
ATOM     15  C   UNL     1      -2.195  -0.007  -5.390  0.00  0.00    +0.000 A 
ATOM     16  N   UNL     1      -3.173  -0.624  -6.106  0.00  0.00    +0.000 NA
ATOM     17  C   UNL     1      -3.056  -1.908  -6.174  0.00  0.00    +0.000 A 
ATOM     18  N   UNL     1      -2.057  -2.633  -5.579  0.00  0.00    +0.000 N 
ATOM     19  C   UNL     1      -1.099  -2.061  -4.777  0.00  0.00    +0.000 A 
ATOM     20  O   UNL     1      -0.313  -2.756  -4.140  0.00  0.00    +0.000 OA
ATOM     21  C   UNL     1      -1.149  -0.612  -4.715  0.00  0.00    +0.000 A 
ATOM     22  H   UNL     1      -2.042  -3.640  -5.640  0.00  0.00    +0.000 HD
ENDBRANCH   9  12
ENDBRANCH   7  10
ENDBRANCH   1   7
BRANCH   4  23
ATOM     23  C   UNL     1       5.873  -4.351  -5.561  0.00  0.00    +0.000 C 
BRANCH  23  24
ATOM     24  N   UNL     1       7.195  -3.729  -5.621  0.00  0.00    +0.000 NA
ATOM     25  H   UNL     1       7.596  -3.717  -4.685  0.00  0.00    +0.000 HD
BRANCH  24  26
ATOM     26  C   UNL     1       8.106  -4.402  -6.549  0.00  0.00    +0.000 C 
BRANCH  26  27
ATOM     27  C   UNL     1       9.446  -3.630  -6.603  0.00  0.00    +0.000 C 
ATOM     28  C   UNL     1       9.284  -2.192  -7.129  0.00  0.00    +0.000 C 
ATOM     29  C   UNL     1       9.015  -2.174  -8.631  0.00  0.00    +0.000 C 
ATOM     30  C   UNL     1      10.079  -2.965  -9.388  0.00  0.00    +0.000 C 
ATOM     31  N   UNL     1      10.201  -4.337  -8.889  0.00  0.00    +0.000 NA
ATOM     32  C   UNL     1      10.498  -4.363  -7.455  0.00  0.00    +0.000 C 
ATOM     33  H   UNL     1      10.957  -4.801  -9.393  0.00  0.00    +0.000 HD
ENDBRANCH  26  27
ENDBRANCH  24  26
ENDBRANCH  23  24
ENDBRANCH   4  23
TORSDOF 7
