REMARK  Name = 
REMARK  7 active torsions:
REMARK  status: ('A' for Active; 'I' for Inactive)
REMARK    1  A    between atoms: C_1  and  C_2
REMARK    2  A    between atoms: C_2  and  C_3
REMARK    3  A    between atoms: C_2  and  C_4
REMARK    4  A    between atoms: C_2  and  C_5
REMARK    5  A    between atoms: N_7  and  C_8
REMARK    6  A    between atoms: C_8  and  C_9
REMARK    7  A    between atoms: C_18  and  C_19
REMARK                            x       y       z     vdW  Elec       q    Type
REMARK                         _______ _______ _______ _____ _____    ______ ____
ROOT
ATOM      1  C   UNL     1       2.852  -1.213   0.703  0.00  0.00    +0.000 A 
ATOM      2  C   UNL     1       2.486  -2.504   0.370  0.00  0.00    +0.000 A 
ATOM      3  N   UNL     1       3.090  -3.389   1.225  0.00  0.00    +0.000 N 
ATOM      4  C   UNL     1       3.906  -2.706   2.103  0.00  0.00    +0.000 A 
ATOM      5  C   UNL     1       4.758  -3.168   3.120  0.00  0.00    +0.000 A 
ATOM      6  C   UNL     1       5.427  -2.229   3.909  0.00  0.00    +0.000 A 
ATOM      7  C   UNL     1       5.256  -0.861   3.693  0.00  0.00    +0.000 A 
ATOM      8  C   UNL     1       4.431  -0.412   2.652  0.00  0.00    +0.000 A 
ATOM      9  C   UNL     1       3.744  -1.338   1.830  0.00  0.00    +0.000 A 
ENDROOT
BRANCH   1  11
ATOM     10  C   UNL     1       1.432  -0.281  -1.188  0.00  0.00    +0.000 C 
ATOM     11  C   UNL     1       2.386   0.059  -0.016  0.00  0.00    +0.000 C 
ATOM     12  C   UNL     1       3.588   0.821  -0.608  0.00  0.00    +0.000 C 
ATOM     13  C   UNL     1       1.614   0.988   0.939  0.00  0.00    +0.000 C 
ENDBRANCH   1  11
BRANCH   7  14
ATOM     14  C   UNL     1       5.919   0.087   4.541  0.00  0.00    +0.000 C 
ATOM     15  N   UNL     1       6.449   0.852   5.239  0.00  0.00    +0.000 NA
ENDBRANCH   7  14
BRANCH   3  16
ATOM     16  C   UNL     1       2.770  -4.813   1.251  0.00  0.00    +0.000 C 
BRANCH  16  17
ATOM     17  C   UNL     1       3.606  -5.606   0.282  0.00  0.00    +0.000 A 
ATOM     18  C   UNL     1       4.778  -6.240   0.703  0.00  0.00    +0.000 A 
ATOM     19  C   UNL     1       5.537  -6.929  -0.230  0.00  0.00    +0.000 A 
ATOM     20  N   UNL     1       5.207  -7.039  -1.533  0.00  0.00    +0.000 NA
ATOM     21  C   UNL     1       4.067  -6.431  -1.922  0.00  0.00    +0.000 A 
ATOM     22  C   UNL     1       3.243  -5.717  -1.066  0.00  0.00    +0.000 A 
ENDBRANCH  16  17
ENDBRANCH   3  16
TORSDOF 4
