REMARK  Name = 
REMARK  4 active torsions:
REMARK  status: ('A' for Active; 'I' for Inactive)
REMARK    1  A    between atoms: C_2  and  C_4
REMARK    2  A    between atoms: C_7  and  N_8
REMARK    3  A    between atoms: N_8  and  C_9
REMARK    4  A    between atoms: C_9  and  C_10
REMARK                            x       y       z     vdW  Elec       q    Type
REMARK                         _______ _______ _______ _____ _____    ______ ____
ROOT
ATOM      1  C   UNL     1       2.738  -1.563  -0.030  0.00  0.00    +0.000 A 
ATOM      2  C   UNL     1       4.111  -1.416   0.052  0.00  0.00    +0.000 A 
ATOM      3  N   UNL     1       4.965  -2.448  -0.176  0.00  0.00    +0.000 NA
ATOM      4  C   UNL     1       4.417  -3.630  -0.534  0.00  0.00    +0.000 A 
ATOM      5  C   UNL     1       3.022  -3.758  -0.584  0.00  0.00    +0.000 A 
ATOM      6  N   UNL     1       2.148  -2.750  -0.341  0.00  0.00    +0.000 NA
ENDROOT
BRANCH   1   8
ATOM      7  N   UNL     1       0.499  -0.689   0.208  0.00  0.00    +0.000 N 
ATOM      8  C   UNL     1       1.839  -0.411   0.252  0.00  0.00    +0.000 C 
ATOM      9  O   UNL     1       2.263   0.702   0.518  0.00  0.00    +0.000 OA
ATOM     10  H   UNL     1      -0.166   0.035   0.438  0.00  0.00    +0.000 HD
ATOM     11  H   UNL     1       0.185  -1.637   0.027  0.00  0.00    +0.000 HD
ENDBRANCH   1   8
BRANCH   4  12
ATOM     12  N   UNL     1       5.306  -4.671  -0.757  0.00  0.00    +0.000 N 
ATOM     13  H   UNL     1       5.626  -5.030   0.141  0.00  0.00    +0.000 HD
BRANCH  12  14
ATOM     14  C   UNL     1       4.884  -5.742  -1.647  0.00  0.00    +0.000 C 
BRANCH  14  15
ATOM     15  C   UNL     1       6.090  -6.444  -2.217  0.00  0.00    +0.000 A 
ATOM     16  C   UNL     1       6.251  -7.829  -2.080  0.00  0.00    +0.000 A 
ATOM     17  C   UNL     1       7.339  -8.474  -2.672  0.00  0.00    +0.000 A 
ATOM     18  C   UNL     1       8.273  -7.744  -3.406  0.00  0.00    +0.000 A 
ATOM     19  C   UNL     1       8.126  -6.366  -3.546  0.00  0.00    +0.000 A 
ATOM     20  C   UNL     1       7.040  -5.719  -2.956  0.00  0.00    +0.000 A 
ENDBRANCH  14  15
ENDBRANCH  12  14
ENDBRANCH   4  12
TORSDOF 4
