REMARK  Name = 
REMARK  5 active torsions:
REMARK  status: ('A' for Active; 'I' for Inactive)
REMARK    1  A    between atoms: C_2  and  C_4
REMARK    2  A    between atoms: C_7  and  N_8
REMARK    3  A    between atoms: N_8  and  C_9
REMARK    4  A    between atoms: C_9  and  C_10
REMARK    5  A    between atoms: C_12  and  N_13
REMARK                            x       y       z     vdW  Elec       q    Type
REMARK                         _______ _______ _______ _____ _____    ______ ____
ROOT
ATOM      1  C   UNL     1       4.916   5.399   3.150  0.00  0.00    +0.000 C 
ENDROOT
BRANCH   1   2
ATOM      2  C   UNL     1       5.847   6.572   3.388  0.00  0.00    +0.000 A 
ATOM      3  C   UNL     1       5.363   7.870   3.233  0.00  0.00    +0.000 A 
ATOM      4  C   UNL     1       6.187   8.978   3.459  0.00  0.00    +0.000 A 
ATOM      5  C   UNL     1       7.481   8.714   3.897  0.00  0.00    +0.000 A 
ATOM      6  C   UNL     1       7.895   7.394   4.033  0.00  0.00    +0.000 A 
ATOM      7  N   UNL     1       7.116   6.320   3.783  0.00  0.00    +0.000 NA
BRANCH   4   8
ATOM      8  N   UNL     1       5.680  10.251   3.273  0.00  0.00    +0.000 N 
ATOM      9  C   UNL     1       6.225  11.435   3.948  0.00  0.00    +0.000 C 
ATOM     10  C   UNL     1       5.096  12.493   4.098  0.00  0.00    +0.000 C 
ATOM     11  N   UNL     1       4.396  12.830   2.835  0.00  0.00    +0.000 NA
ATOM     12  C   UNL     1       3.916  11.581   2.203  0.00  0.00    +0.000 C 
ATOM     13  C   UNL     1       5.041  10.549   1.977  0.00  0.00    +0.000 C 
ATOM     14  H   UNL     1       5.072  13.259   2.205  0.00  0.00    +0.000 HD
ENDBRANCH   4   8
ENDBRANCH   1   2
BRANCH   1  15
ATOM     15  N   UNL     1       4.375   5.442   1.788  0.00  0.00    +0.000 N 
ATOM     16  H   UNL     1       5.097   5.230   1.102  0.00  0.00    +0.000 HD
BRANCH  15  20
ATOM     17  C   UNL     1       0.557   4.014   0.696  0.00  0.00    +0.000 A 
ATOM     18  C   UNL     1       0.802   4.392   2.016  0.00  0.00    +0.000 A 
ATOM     19  C   UNL     1       2.077   4.828   2.395  0.00  0.00    +0.000 A 
ATOM     20  C   UNL     1       3.136   4.880   1.484  0.00  0.00    +0.000 A 
ATOM     21  C   UNL     1       2.870   4.491   0.159  0.00  0.00    +0.000 A 
ATOM     22  C   UNL     1       1.600   4.044  -0.230  0.00  0.00    +0.000 A 
BRANCH  17  24
ATOM     23  N   UNL     1      -1.864   4.113   0.927  0.00  0.00    +0.000 N 
ATOM     24  C   UNL     1      -0.799   3.593   0.248  0.00  0.00    +0.000 C 
ATOM     25  O   UNL     1      -0.955   2.853  -0.711  0.00  0.00    +0.000 OA
ATOM     26  H   UNL     1      -2.776   3.910   0.543  0.00  0.00    +0.000 HD
ATOM     27  H   UNL     1      -1.777   4.922   1.523  0.00  0.00    +0.000 HD
ENDBRANCH  17  24
ENDBRANCH  15  20
ENDBRANCH   1  15
TORSDOF 5
