REMARK  Name = 
REMARK  7 active torsions:
REMARK  status: ('A' for Active; 'I' for Inactive)
REMARK    1  A    between atoms: C_1  and  C_2
REMARK    2  A    between atoms: C_4  and  C_5
REMARK    3  A    between atoms: C_5  and  N_6
REMARK    4  A    between atoms: C_7  and  C_9
REMARK    5  A    between atoms: C_16  and  C_17
REMARK    6  A    between atoms: C_17  and  N_18
REMARK    7  A    between atoms: C_19  and  C_21
REMARK                            x       y       z     vdW  Elec       q    Type
REMARK                         _______ _______ _______ _____ _____    ______ ____
ROOT
ATOM      1  C   UNL     1       2.619   0.186  -0.011  0.00  0.00    +0.000 C 
ATOM      2  C   UNL     1       1.118   0.072  -0.032  0.00  0.00    +0.000 A 
ATOM      3  C   UNL     1       0.358   1.261  -0.010  0.00  0.00    +0.000 A 
ATOM      4  C   UNL     1      -1.043   1.240  -0.032  0.00  0.00    +0.000 A 
ATOM      5  C   UNL     1      -1.690   0.002  -0.020  0.00  0.00    +0.000 A 
ATOM      6  C   UNL     1      -0.951  -1.186  -0.042  0.00  0.00    +0.000 A 
ATOM      7  C   UNL     1       0.455  -1.174  -0.079  0.00  0.00    +0.000 A 
ENDROOT
BRANCH   4   8
ATOM      8  C   UNL     1      -1.831   2.526  -0.043  0.00  0.00    +0.000 C 
BRANCH   8   9
ATOM      9  N   UNL     1      -2.142   2.963   1.292  0.00  0.00    +0.000 N 
ATOM     10  C   UNL     1      -2.787   4.151   1.550  0.00  0.00    +0.000 C 
ATOM     11  O   UNL     1      -3.124   4.918   0.649  0.00  0.00    +0.000 OA
ATOM     12  H   UNL     1      -1.940   2.349   2.070  0.00  0.00    +0.000 HD
BRANCH  10  13
ATOM     13  C   UNL     1      -3.038   4.437   2.962  0.00  0.00    +0.000 A 
ATOM     14  C   UNL     1      -3.713   5.523   3.495  0.00  0.00    +0.000 A 
ATOM     15  C   UNL     1      -3.771   5.493   4.923  0.00  0.00    +0.000 A 
ATOM     16  C   UNL     1      -3.136   4.390   5.437  0.00  0.00    +0.000 A 
ATOM     17  S   UNL     1      -2.483   3.395   4.211  0.00  0.00    +0.000 S 
ENDBRANCH  10  13
ENDBRANCH   8   9
ENDBRANCH   4   8
BRANCH   7  18
ATOM     18  C   UNL     1       1.177  -2.507  -0.115  0.00  0.00    +0.000 C 
BRANCH  18  19
ATOM     19  N   UNL     1       1.316  -3.048   1.212  0.00  0.00    +0.000 N 
ATOM     20  C   UNL     1       1.844  -4.286   1.468  0.00  0.00    +0.000 C 
ATOM     21  O   UNL     1       2.085  -5.097   0.578  0.00  0.00    +0.000 OA
ATOM     22  H   UNL     1       1.246  -2.374   1.969  0.00  0.00    +0.000 HD
BRANCH  20  23
ATOM     23  C   UNL     1       2.115  -4.593   2.884  0.00  0.00    +0.000 A 
ATOM     24  C   UNL     1       2.188  -5.909   3.323  0.00  0.00    +0.000 A 
ATOM     25  S   UNL     1       2.592  -6.056   4.976  0.00  0.00    +0.000 S 
ATOM     26  C   UNL     1       2.743  -4.370   5.148  0.00  0.00    +0.000 A 
ATOM     27  N   UNL     1       3.175  -3.815   6.313  0.00  0.00    +0.000 NA
ATOM     28  C   UNL     1       3.265  -2.526   6.290  0.00  0.00    +0.000 A 
ATOM     29  N   UNL     1       2.926  -1.739   5.222  0.00  0.00    +0.000 N 
ATOM     30  C   UNL     1       2.415  -2.251   4.057  0.00  0.00    +0.000 A 
ATOM     31  O   UNL     1       1.983  -1.510   3.180  0.00  0.00    +0.000 OA
ATOM     32  C   UNL     1       2.390  -3.700   3.990  0.00  0.00    +0.000 A 
ATOM     33  H   UNL     1       2.950  -0.733   5.287  0.00  0.00    +0.000 HD
ENDBRANCH  20  23
ENDBRANCH  18  19
ENDBRANCH   7  18
TORSDOF 6
