REMARK  Name = 
REMARK  8 active torsions:
REMARK  status: ('A' for Active; 'I' for Inactive)
REMARK    1  A    between atoms: C_1  and  C_2
REMARK    2  A    between atoms: C_2  and  N_3
REMARK    3  A    between atoms: C_2  and  C_16
REMARK    4  A    between atoms: C_4  and  C_6
REMARK    5  A    between atoms: C_19  and  C_20
REMARK    6  A    between atoms: C_20  and  N_21
REMARK    7  A    between atoms: C_22  and  C_24
REMARK    8  A    between atoms: C_25  and  C_26
REMARK                            x       y       z     vdW  Elec       q    Type
REMARK                         _______ _______ _______ _____ _____    ______ ____
ROOT
ATOM      1  C   UNL     1       2.973   1.367  -0.559  0.00  0.00    +0.000 A 
ATOM      2  C   UNL     1       2.315   2.555  -0.205  0.00  0.00    +0.000 A 
ATOM      3  C   UNL     1       2.695   3.785  -0.755  0.00  0.00    +0.000 A 
ATOM      4  C   UNL     1       3.745   3.863  -1.677  0.00  0.00    +0.000 A 
ATOM      5  C   UNL     1       4.454   2.692  -1.978  0.00  0.00    +0.000 A 
ATOM      6  C   UNL     1       4.071   1.458  -1.429  0.00  0.00    +0.000 A 
ENDROOT
BRANCH   1   8
ATOM      7  C   UNL     1       2.033  -0.914  -1.138  0.00  0.00    +0.000 C 
ATOM      8  C   UNL     1       2.457   0.041  -0.017  0.00  0.00    +0.000 C 
BRANCH   8   9
ATOM      9  N   UNL     1       3.427  -0.592   0.855  0.00  0.00    +0.000 N 
ATOM     10  C   UNL     1       3.053  -1.432   1.874  0.00  0.00    +0.000 C 
ATOM     11  O   UNL     1       1.874  -1.660   2.136  0.00  0.00    +0.000 OA
ATOM     12  H   UNL     1       4.406  -0.375   0.706  0.00  0.00    +0.000 HD
BRANCH  10  13
ATOM     13  C   UNL     1       4.134  -2.096   2.612  0.00  0.00    +0.000 A 
ATOM     14  C   UNL     1       3.875  -3.270   3.309  0.00  0.00    +0.000 A 
ATOM     15  S   UNL     1       5.245  -3.918   4.090  0.00  0.00    +0.000 S 
ATOM     16  C   UNL     1       6.221  -2.625   3.568  0.00  0.00    +0.000 A 
ATOM     17  N   UNL     1       7.531  -2.549   3.927  0.00  0.00    +0.000 NA
ATOM     18  C   UNL     1       8.139  -1.492   3.501  0.00  0.00    +0.000 A 
ATOM     19  N   UNL     1       7.559  -0.511   2.740  0.00  0.00    +0.000 N 
ATOM     20  C   UNL     1       6.263  -0.585   2.291  0.00  0.00    +0.000 A 
ATOM     21  O   UNL     1       5.820   0.244   1.505  0.00  0.00    +0.000 OA
ATOM     22  C   UNL     1       5.519  -1.728   2.783  0.00  0.00    +0.000 A 
ATOM     23  H   UNL     1       8.098   0.276   2.412  0.00  0.00    +0.000 HD
ENDBRANCH  10  13
ENDBRANCH   8   9
ENDBRANCH   1   8
BRANCH   4  24
ATOM     24  C   UNL     1       4.080   5.172  -2.347  0.00  0.00    +0.000 C 
BRANCH  24  25
ATOM     25  N   UNL     1       5.065   5.933  -1.617  0.00  0.00    +0.000 N 
ATOM     26  C   UNL     1       5.504   7.146  -2.090  0.00  0.00    +0.000 C 
ATOM     27  O   UNL     1       5.106   7.675  -3.121  0.00  0.00    +0.000 OA
ATOM     28  H   UNL     1       5.419   5.551  -0.752  0.00  0.00    +0.000 HD
BRANCH  26  29
ATOM     29  C   UNL     1       6.540   7.765  -1.223  0.00  0.00    +0.000 C 
ATOM     30  C   UNL     1       7.104   8.941  -1.550  0.00  0.00    +0.000 C 
BRANCH  30  31
ATOM     31  C   UNL     1       8.116   9.506  -0.737  0.00  0.00    +0.000 A 
ATOM     32  C   UNL     1       8.775   9.143   0.421  0.00  0.00    +0.000 A 
ATOM     33  C   UNL     1       9.695  10.177   0.665  0.00  0.00    +0.000 A 
ATOM     34  N   UNL     1       9.633  11.137  -0.259  0.00  0.00    +0.000 NA
ATOM     35  N   UNL     1       8.670  10.710  -1.097  0.00  0.00    +0.000 N 
ATOM     36  H   UNL     1       8.444  11.293  -1.896  0.00  0.00    +0.000 HD
ENDBRANCH  30  31
ENDBRANCH  26  29
ENDBRANCH  24  25
ENDBRANCH   4  24
TORSDOF 7
