REMARK  Name = 
REMARK  8 active torsions:
REMARK  status: ('A' for Active; 'I' for Inactive)
REMARK    1  A    between atoms: C_1  and  C_2
REMARK    2  A    between atoms: C_4  and  C_5
REMARK    3  A    between atoms: C_5  and  N_6
REMARK    4  A    between atoms: N_6  and  C_7
REMARK    5  A    between atoms: C_7  and  C_8
REMARK    6  A    between atoms: C_16  and  C_17
REMARK    7  A    between atoms: C_17  and  N_18
REMARK    8  A    between atoms: C_19  and  C_21
REMARK                            x       y       z     vdW  Elec       q    Type
REMARK                         _______ _______ _______ _____ _____    ______ ____
ROOT
ATOM      1  C   UNL     1       2.527   0.219  -0.109  0.00  0.00    +0.000 C 
ATOM      2  C   UNL     1       1.031   0.072  -0.072  0.00  0.00    +0.000 A 
ATOM      3  C   UNL     1       0.254   1.245  -0.033  0.00  0.00    +0.000 A 
ATOM      4  C   UNL     1      -1.149   1.207  -0.023  0.00  0.00    +0.000 A 
ATOM      5  C   UNL     1      -1.780  -0.038  -0.004  0.00  0.00    +0.000 A 
ATOM      6  C   UNL     1      -1.022  -1.213  -0.013  0.00  0.00    +0.000 A 
ATOM      7  C   UNL     1       0.385  -1.181  -0.063  0.00  0.00    +0.000 A 
ENDROOT
BRANCH   4   8
ATOM      8  C   UNL     1      -1.940   2.495  -0.048  0.00  0.00    +0.000 C 
BRANCH   8   9
ATOM      9  N   UNL     1      -1.591   3.274  -1.235  0.00  0.00    +0.000 NA
ATOM     10  H   UNL     1      -1.835   2.726  -2.062  0.00  0.00    +0.000 HD
BRANCH   9  11
ATOM     11  C   UNL     1      -2.306   4.550  -1.291  0.00  0.00    +0.000 C 
BRANCH  11  12
ATOM     12  C   UNL     1      -1.952   5.334  -2.536  0.00  0.00    +0.000 A 
ATOM     13  C   UNL     1      -0.638   5.739  -2.767  0.00  0.00    +0.000 A 
ATOM     14  N   UNL     1      -0.261   6.432  -3.870  0.00  0.00    +0.000 NA
ATOM     15  C   UNL     1      -1.253   6.701  -4.745  0.00  0.00    +0.000 A 
ATOM     16  C   UNL     1      -2.562   6.300  -4.528  0.00  0.00    +0.000 A 
ATOM     17  N   UNL     1      -2.940   5.612  -3.425  0.00  0.00    +0.000 NA
ENDBRANCH  11  12
ENDBRANCH   9  11
ENDBRANCH   8   9
ENDBRANCH   4   8
BRANCH   7  18
ATOM     18  C   UNL     1       1.128  -2.499  -0.057  0.00  0.00    +0.000 C 
BRANCH  18  19
ATOM     19  N   UNL     1       1.373  -2.946   1.292  0.00  0.00    +0.000 N 
ATOM     20  C   UNL     1       2.077  -4.093   1.559  0.00  0.00    +0.000 C 
ATOM     21  O   UNL     1       2.551  -4.792   0.668  0.00  0.00    +0.000 OA
ATOM     22  H   UNL     1       0.768  -2.562   2.010  0.00  0.00    +0.000 HD
BRANCH  20  23
ATOM     23  C   UNL     1       2.308  -4.395   2.979  0.00  0.00    +0.000 A 
ATOM     24  C   UNL     1       3.364  -5.217   3.352  0.00  0.00    +0.000 A 
ATOM     25  S   UNL     1       3.568  -5.343   5.041  0.00  0.00    +0.000 S 
ATOM     26  C   UNL     1       2.219  -4.348   5.334  0.00  0.00    +0.000 A 
ATOM     27  N   UNL     1       1.844  -4.026   6.601  0.00  0.00    +0.000 NA
ATOM     28  C   UNL     1       0.791  -3.282   6.673  0.00  0.00    +0.000 A 
ATOM     29  N   UNL     1       0.068  -2.845   5.594  0.00  0.00    +0.000 N 
ATOM     30  C   UNL     1       0.402  -3.156   4.298  0.00  0.00    +0.000 A 
ATOM     31  O   UNL     1      -0.284  -2.779   3.354  0.00  0.00    +0.000 OA
ATOM     32  C   UNL     1       1.607  -3.949   4.159  0.00  0.00    +0.000 A 
ATOM     33  H   UNL     1      -0.763  -2.286   5.718  0.00  0.00    +0.000 HD
ENDBRANCH  20  23
ENDBRANCH  18  19
ENDBRANCH   7  18
TORSDOF 7
