REMARK  Name = 
REMARK  9 active torsions:
REMARK  status: ('A' for Active; 'I' for Inactive)
REMARK    1  A    between atoms: C_1  and  O_2
REMARK    2  A    between atoms: O_2  and  C_3
REMARK    3  A    between atoms: C_10  and  C_11
REMARK    4  A    between atoms: N_13  and  C_14
REMARK    5  A    between atoms: C_14  and  C_15
REMARK    6  A    between atoms: C_18  and  C_19
REMARK    7  A    between atoms: C_19  and  C_20
REMARK    8  A    between atoms: C_20  and  C_21
REMARK    9  A    between atoms: C_21  and  C_22
REMARK                            x       y       z     vdW  Elec       q    Type
REMARK                         _______ _______ _______ _____ _____    ______ ____
ROOT
ATOM      1  C   UNL     1       2.920   3.346   0.642  0.00  0.00    +0.000 C 
ENDROOT
BRANCH   1   2
ATOM      2  C   UNL     1       1.753   3.398  -0.323  0.00  0.00    +0.000 A 
ATOM      3  C   UNL     1       1.355   2.246  -1.019  0.00  0.00    +0.000 A 
ATOM      4  C   UNL     1       0.171   2.230  -1.771  0.00  0.00    +0.000 A 
ATOM      5  C   UNL     1      -0.609   3.384  -1.910  0.00  0.00    +0.000 A 
ATOM      6  C   UNL     1      -0.157   4.563  -1.303  0.00  0.00    +0.000 A 
ATOM      7  C   UNL     1       1.003   4.568  -0.510  0.00  0.00    +0.000 A 
BRANCH   5   8
ATOM      8  C   UNL     1      -1.902   3.355  -2.697  0.00  0.00    +0.000 C 
BRANCH   8   9
ATOM      9  C   UNL     1      -3.150   2.918  -1.910  0.00  0.00    +0.000 C 
BRANCH   9  10
ATOM     10  C   UNL     1      -3.532   3.842  -0.748  0.00  0.00    +0.000 C 
BRANCH  10  11
ATOM     11  C   UNL     1      -4.786   3.372  -0.045  0.00  0.00    +0.000 A 
ATOM     12  C   UNL     1      -4.719   2.492   1.034  0.00  0.00    +0.000 A 
ATOM     13  C   UNL     1      -5.903   2.084   1.649  0.00  0.00    +0.000 A 
ATOM     14  C   UNL     1      -7.116   2.559   1.173  0.00  0.00    +0.000 A 
ATOM     15  C   UNL     1      -7.097   3.427   0.096  0.00  0.00    +0.000 A 
ATOM     16  N   UNL     1      -5.967   3.838  -0.523  0.00  0.00    +0.000 NA
ENDBRANCH  10  11
ENDBRANCH   9  10
ENDBRANCH   8   9
ENDBRANCH   5   8
ENDBRANCH   1   2
BRANCH   1  19
ATOM     17  C   UNL     1       5.372   3.694   0.730  0.00  0.00    +0.000 C 
ATOM     18  O   UNL     1       5.408   3.404   1.928  0.00  0.00    +0.000 OA
ATOM     19  N   UNL     1       4.182   3.692   0.036  0.00  0.00    +0.000 N 
ATOM     20  H   UNL     1       4.189   3.837  -0.963  0.00  0.00    +0.000 HD
BRANCH  17  28
ATOM     21  C   UNL     1       5.984   4.501  -2.553  0.00  0.00    +0.000 A 
ATOM     22  N   UNL     1       6.458   4.965  -3.725  0.00  0.00    +0.000 NA
ATOM     23  C   UNL     1       7.736   5.344  -3.782  0.00  0.00    +0.000 A 
ATOM     24  N   UNL     1       8.627   5.301  -2.795  0.00  0.00    +0.000 NA
ATOM     25  C   UNL     1       8.108   4.850  -1.639  0.00  0.00    +0.000 A 
ATOM     26  S   UNL     1       9.101   4.712  -0.270  0.00  0.00    +0.000 S 
ATOM     27  C   UNL     1       7.799   4.157   0.679  0.00  0.00    +0.000 A 
ATOM     28  C   UNL     1       6.592   4.082  -0.005  0.00  0.00    +0.000 A 
ATOM     29  C   UNL     1       6.792   4.450  -1.406  0.00  0.00    +0.000 A 
BRANCH  21  31
ATOM     30  C   UNL     1       3.983   4.157  -3.738  0.00  0.00    +0.000 C 
ATOM     31  O   UNL     1       4.687   4.036  -2.506  0.00  0.00    +0.000 OA
ENDBRANCH  21  31
ENDBRANCH  17  28
ENDBRANCH   1  19
TORSDOF 8
