REMARK  Name = 
REMARK  8 active torsions:
REMARK  status: ('A' for Active; 'I' for Inactive)
REMARK    1  A    between atoms: C_1  and  C_2
REMARK    2  A    between atoms: C_7  and  C_8
REMARK    3  A    between atoms: C_8  and  N_9
REMARK    4  A    between atoms: N_9  and  C_10
REMARK    5  A    between atoms: C_10  and  C_11
REMARK    6  A    between atoms: C_14  and  C_15
REMARK    7  A    between atoms: C_15  and  N_16
REMARK    8  A    between atoms: C_17  and  C_19
REMARK                            x       y       z     vdW  Elec       q    Type
REMARK                         _______ _______ _______ _____ _____    ______ ____
ROOT
ATOM      1  C   UNL     1       4.728  -3.363  -0.026  0.00  0.00    +0.000 A 
ATOM      2  C   UNL     1       5.163  -2.038  -0.034  0.00  0.00    +0.000 A 
ATOM      3  C   UNL     1       6.532  -1.773  -0.040  0.00  0.00    +0.000 A 
ATOM      4  C   UNL     1       7.443  -2.830  -0.042  0.00  0.00    +0.000 A 
ATOM      5  C   UNL     1       6.919  -4.117   0.000  0.00  0.00    +0.000 A 
ATOM      6  N   UNL     1       5.595  -4.406   0.002  0.00  0.00    +0.000 NA
ENDROOT
BRANCH   1   7
ATOM      7  C   UNL     1       3.246  -3.689  -0.057  0.00  0.00    +0.000 C 
BRANCH   7   8
ATOM      8  N   UNL     1       2.510  -3.127  -1.199  0.00  0.00    +0.000 NA
ATOM      9  H   UNL     1       1.519  -3.336  -1.084  0.00  0.00    +0.000 HD
BRANCH   8  10
ATOM     10  C   UNL     1       2.939  -3.697  -2.483  0.00  0.00    +0.000 C 
BRANCH  10  17
ATOM     11  C   UNL     1       1.229  -5.230  -4.524  0.00  0.00    +0.000 C 
ATOM     12  C   UNL     1       1.410  -3.739  -4.571  0.00  0.00    +0.000 A 
ATOM     13  C   UNL     1       0.781  -3.027  -5.611  0.00  0.00    +0.000 A 
ATOM     14  C   UNL     1       0.911  -1.643  -5.721  0.00  0.00    +0.000 A 
ATOM     15  C   UNL     1       1.680  -0.947  -4.798  0.00  0.00    +0.000 A 
ATOM     16  C   UNL     1       2.318  -1.637  -3.769  0.00  0.00    +0.000 A 
ATOM     17  C   UNL     1       2.194  -3.034  -3.631  0.00  0.00    +0.000 A 
ENDBRANCH  10  17
ENDBRANCH   8  10
ENDBRANCH   7   8
ENDBRANCH   1   7
BRANCH   4  18
ATOM     18  C   UNL     1       8.926  -2.602  -0.064  0.00  0.00    +0.000 C 
BRANCH  18  19
ATOM     19  N   UNL     1       9.466  -2.489   1.268  0.00  0.00    +0.000 N 
ATOM     20  C   UNL     1      10.788  -2.187   1.475  0.00  0.00    +0.000 C 
ATOM     21  O   UNL     1      11.556  -1.952   0.545  0.00  0.00    +0.000 OA
ATOM     22  H   UNL     1       8.928  -2.899   2.025  0.00  0.00    +0.000 HD
BRANCH  20  23
ATOM     23  C   UNL     1      11.230  -2.097   2.873  0.00  0.00    +0.000 A 
ATOM     24  C   UNL     1      12.345  -1.338   3.197  0.00  0.00    +0.000 A 
ATOM     25  S   UNL     1      12.689  -1.304   4.868  0.00  0.00    +0.000 S 
ATOM     26  C   UNL     1      11.392  -2.351   5.212  0.00  0.00    +0.000 A 
ATOM     27  N   UNL     1      11.139  -2.759   6.483  0.00  0.00    +0.000 NA
ATOM     28  C   UNL     1      10.146  -3.578   6.594  0.00  0.00    +0.000 A 
ATOM     29  N   UNL     1       9.378  -4.020   5.547  0.00  0.00    +0.000 N 
ATOM     30  C   UNL     1       9.575  -3.606   4.251  0.00  0.00    +0.000 A 
ATOM     31  O   UNL     1       8.837  -3.977   3.344  0.00  0.00    +0.000 OA
ATOM     32  C   UNL     1      10.690  -2.700   4.071  0.00  0.00    +0.000 A 
ATOM     33  H   UNL     1       8.608  -4.654   5.701  0.00  0.00    +0.000 HD
ENDBRANCH  20  23
ENDBRANCH  18  19
ENDBRANCH   4  18
TORSDOF 7
