REMARK  Name = 
REMARK  4 active torsions:
REMARK  status: ('A' for Active; 'I' for Inactive)
REMARK    1  A    between atoms: C_2  and  C_4
REMARK    2  A    between atoms: N_8  and  C_9
REMARK    3  A    between atoms: C_9  and  C_10
REMARK    4  A    between atoms: C_14  and  C_15
REMARK                            x       y       z     vdW  Elec       q    Type
REMARK                         _______ _______ _______ _____ _____    ______ ____
ROOT
ATOM      1  C   UNL     1       5.530  -4.909   2.832  0.00  0.00    +0.000 C 
ENDROOT
BRANCH   1   6
ATOM      2  C   UNL     1       7.764  -1.059   0.279  0.00  0.00    +0.000 A 
ATOM      3  C   UNL     1       7.328  -2.288  -0.205  0.00  0.00    +0.000 A 
ATOM      4  C   UNL     1       6.595  -3.127   0.635  0.00  0.00    +0.000 A 
ATOM      5  C   UNL     1       6.322  -2.733   1.942  0.00  0.00    +0.000 A 
ATOM      6  N   UNL     1       5.553  -3.463   2.815  0.00  0.00    +0.000 N 
ATOM      7  N   UNL     1       6.749  -1.548   2.421  0.00  0.00    +0.000 NA
ATOM      8  C   UNL     1       7.464  -0.743   1.594  0.00  0.00    +0.000 A 
ATOM      9  H   UNL     1       5.556  -3.014   3.726  0.00  0.00    +0.000 HD
BRANCH   2  11
ATOM     10  N   UNL     1       8.368  -0.144  -1.889  0.00  0.00    +0.000 N 
ATOM     11  C   UNL     1       8.539  -0.102  -0.533  0.00  0.00    +0.000 C 
ATOM     12  O   UNL     1       9.285   0.721  -0.013  0.00  0.00    +0.000 OA
ATOM     13  H   UNL     1       8.828   0.585  -2.420  0.00  0.00    +0.000 HD
ATOM     14  H   UNL     1       7.589  -0.617  -2.324  0.00  0.00    +0.000 HD
ENDBRANCH   2  11
ENDBRANCH   1   6
BRANCH   1  15
ATOM     15  C   UNL     1       6.591  -5.567   3.690  0.00  0.00    +0.000 A 
ATOM     16  C   UNL     1       7.591  -4.879   4.383  0.00  0.00    +0.000 A 
ATOM     17  C   UNL     1       8.494  -5.574   5.186  0.00  0.00    +0.000 A 
ATOM     18  C   UNL     1       8.394  -6.960   5.328  0.00  0.00    +0.000 A 
ATOM     19  C   UNL     1       7.379  -7.687   4.685  0.00  0.00    +0.000 A 
ATOM     20  C   UNL     1       6.517  -6.968   3.837  0.00  0.00    +0.000 A 
BRANCH  19  21
ATOM     21  C   UNL     1       7.137  -9.120   4.979  0.00  0.00    +0.000 A 
ATOM     22  C   UNL     1       7.344  -9.626   6.279  0.00  0.00    +0.000 A 
ATOM     23  C   UNL     1       7.010 -10.940   6.621  0.00  0.00    +0.000 A 
ATOM     24  C   UNL     1       6.455 -11.782   5.667  0.00  0.00    +0.000 A 
ATOM     25  C   UNL     1       6.260 -11.308   4.377  0.00  0.00    +0.000 A 
ATOM     26  F   UNL     1       5.708 -12.114   3.457  0.00  0.00    +0.000 F 
ATOM     27  C   UNL     1       6.605 -10.004   4.024  0.00  0.00    +0.000 A 
ENDBRANCH  19  21
ENDBRANCH   1  15
TORSDOF 4
