REMARK  Name = 
REMARK  4 active torsions:
REMARK  status: ('A' for Active; 'I' for Inactive)
REMARK    1  A    between atoms: C_3  and  C_4
REMARK    2  A    between atoms: C_4  and  N_5
REMARK    3  A    between atoms: N_5  and  C_6
REMARK    4  A    between atoms: C_13  and  C_14
REMARK                            x       y       z     vdW  Elec       q    Type
REMARK                         _______ _______ _______ _____ _____    ______ ____
ROOT
ATOM      1  C   UNL     1       1.424  -0.161  -0.106  0.00  0.00    +0.000 A 
ATOM      2  C   UNL     1       0.603  -1.287  -0.144  0.00  0.00    +0.000 A 
ATOM      3  C   UNL     1      -0.786  -1.148  -0.045  0.00  0.00    +0.000 A 
ATOM      4  C   UNL     1      -1.332   0.143   0.068  0.00  0.00    +0.000 A 
ATOM      5  C   UNL     1      -0.524   1.294   0.133  0.00  0.00    +0.000 A 
ATOM      6  C   UNL     1       0.866   1.113   0.036  0.00  0.00    +0.000 A 
ENDROOT
BRANCH   5   7
ATOM      7  C   UNL     1      -1.125   2.625   0.345  0.00  0.00    +0.000 A 
ATOM      8  C   UNL     1      -0.572   3.809  -0.142  0.00  0.00    +0.000 A 
ATOM      9  N   UNL     1      -1.100   5.038   0.090  0.00  0.00    +0.000 NA
ATOM     10  C   UNL     1      -2.224   5.046   0.837  0.00  0.00    +0.000 A 
ATOM     11  C   UNL     1      -2.794   3.884   1.323  0.00  0.00    +0.000 A 
ATOM     12  N   UNL     1      -2.266   2.660   1.088  0.00  0.00    +0.000 NA
ENDBRANCH   5   7
BRANCH   3  13
ATOM     13  C   UNL     1      -1.695  -2.355  -0.020  0.00  0.00    +0.000 C 
BRANCH  13  14
ATOM     14  N   UNL     1      -2.084  -2.735  -1.372  0.00  0.00    +0.000 N 
ATOM     15  H   UNL     1      -1.281  -2.794  -1.995  0.00  0.00    +0.000 HD
BRANCH  14  16
ATOM     16  C   UNL     1      -2.958  -3.822  -1.531  0.00  0.00    +0.000 A 
ATOM     17  C   UNL     1      -3.941  -4.162  -0.596  0.00  0.00    +0.000 A 
ATOM     18  C   UNL     1      -4.811  -5.208  -0.872  0.00  0.00    +0.000 A 
ATOM     19  N   UNL     1      -4.791  -5.924  -2.011  0.00  0.00    +0.000 NA
ATOM     20  C   UNL     1      -3.873  -5.556  -2.926  0.00  0.00    +0.000 A 
ATOM     21  C   UNL     1      -2.965  -4.522  -2.740  0.00  0.00    +0.000 A 
ENDBRANCH  14  16
ENDBRANCH  13  14
ENDBRANCH   3  13
TORSDOF 4
