REMARK  Name = 
REMARK  7 active torsions:
REMARK  status: ('A' for Active; 'I' for Inactive)
REMARK    1  A    between atoms: C_1  and  N_2
REMARK    2  A    between atoms: N_2  and  C_3
REMARK    3  A    between atoms: C_3  and  C_4
REMARK    4  A    between atoms: C_7  and  C_8
REMARK    5  A    between atoms: C_8  and  N_9
REMARK    6  A    between atoms: C_10  and  C_12
REMARK    7  A    between atoms: C_19  and  C_21
REMARK                            x       y       z     vdW  Elec       q    Type
REMARK                         _______ _______ _______ _____ _____    ______ ____
ROOT
ATOM      1  C   UNL     1       2.064  -2.289   0.715  0.00  0.00    +0.000 A 
ATOM      2  C   UNL     1       2.510  -3.552   0.300  0.00  0.00    +0.000 A 
ATOM      3  C   UNL     1       1.723  -4.686   0.510  0.00  0.00    +0.000 A 
ATOM      4  C   UNL     1       0.472  -4.576   1.124  0.00  0.00    +0.000 A 
ATOM      5  C   UNL     1       0.051  -3.316   1.575  0.00  0.00    +0.000 A 
ATOM      6  C   UNL     1       0.834  -2.183   1.372  0.00  0.00    +0.000 A 
ENDROOT
BRANCH   1   7
ATOM      7  C   UNL     1       2.925  -1.069   0.526  0.00  0.00    +0.000 C 
BRANCH   7   9
ATOM      8  C   UNL     1       1.860  -0.708  -1.740  0.00  0.00    +0.000 C 
ATOM      9  N   UNL     1       2.762  -0.259  -0.685  0.00  0.00    +0.000 N 
ATOM     10  C   UNL     1       3.244   1.061  -0.789  0.00  0.00    +0.000 C 
ATOM     11  O   UNL     1       2.930   1.786  -1.728  0.00  0.00    +0.000 OA
BRANCH  10  12
ATOM     12  C   UNL     1       4.179   1.561   0.233  0.00  0.00    +0.000 A 
ATOM     13  C   UNL     1       5.236   0.828   0.752  0.00  0.00    +0.000 A 
ATOM     14  S   UNL     1       6.161   1.671   1.909  0.00  0.00    +0.000 S 
ATOM     15  C   UNL     1       5.285   3.099   1.630  0.00  0.00    +0.000 A 
ATOM     16  N   UNL     1       5.650   4.259   2.244  0.00  0.00    +0.000 NA
ATOM     17  C   UNL     1       4.935   5.278   1.895  0.00  0.00    +0.000 A 
ATOM     18  N   UNL     1       3.879   5.237   1.022  0.00  0.00    +0.000 N 
ATOM     19  C   UNL     1       3.395   4.063   0.484  0.00  0.00    +0.000 A 
ATOM     20  O   UNL     1       2.313   4.035  -0.091  0.00  0.00    +0.000 OA
ATOM     21  C   UNL     1       4.236   2.908   0.749  0.00  0.00    +0.000 A 
ATOM     22  H   UNL     1       3.321   6.060   0.851  0.00  0.00    +0.000 HD
ENDBRANCH  10  12
ENDBRANCH   7   9
ENDBRANCH   1   7
BRANCH   4  23
ATOM     23  C   UNL     1      -0.446  -5.762   1.243  0.00  0.00    +0.000 C 
BRANCH  23  24
ATOM     24  N   UNL     1      -0.295  -6.508   2.461  0.00  0.00    +0.000 N 
ATOM     25  C   UNL     1      -1.117  -7.588   2.704  0.00  0.00    +0.000 C 
ATOM     26  O   UNL     1      -2.008  -7.937   1.938  0.00  0.00    +0.000 OA
ATOM     27  H   UNL     1       0.427  -6.299   3.145  0.00  0.00    +0.000 HD
BRANCH  25  28
ATOM     28  C   UNL     1      -0.833  -8.288   3.956  0.00  0.00    +0.000 A 
ATOM     29  C   UNL     1      -1.503  -9.392   4.439  0.00  0.00    +0.000 A 
ATOM     30  N   UNL     1      -0.897  -9.703   5.624  0.00  0.00    +0.000 N 
ATOM     31  C   UNL     1       0.104  -8.792   5.818  0.00  0.00    +0.000 A 
ATOM     32  N   UNL     1       0.175  -7.924   4.836  0.00  0.00    +0.000 NA
ATOM     33  H   UNL     1      -1.139 -10.465   6.241  0.00  0.00    +0.000 HD
ENDBRANCH  25  28
ENDBRANCH  23  24
ENDBRANCH   4  23
TORSDOF 6
