REMARK  Name = 
REMARK  8 active torsions:
REMARK  status: ('A' for Active; 'I' for Inactive)
REMARK    1  A    between atoms: C_2  and  C_3
REMARK    2  A    between atoms: C_6  and  C_7
REMARK    3  A    between atoms: C_7  and  O_8
REMARK    4  A    between atoms: O_8  and  C_9
REMARK    5  A    between atoms: C_9  and  C_10
REMARK    6  A    between atoms: C_13  and  C_14
REMARK    7  A    between atoms: C_14  and  N_15
REMARK    8  A    between atoms: C_16  and  C_18
REMARK                            x       y       z     vdW  Elec       q    Type
REMARK                         _______ _______ _______ _____ _____    ______ ____
ROOT
ATOM      1  C   UNL     1      -6.066   2.899  -0.211  0.00  0.00    +0.000 A 
ATOM      2  C   UNL     1      -7.386   3.177   0.171  0.00  0.00    +0.000 A 
ATOM      3  C   UNL     1      -7.854   4.494   0.223  0.00  0.00    +0.000 A 
ATOM      4  C   UNL     1      -7.013   5.561  -0.116  0.00  0.00    +0.000 A 
ATOM      5  C   UNL     1      -5.684   5.285  -0.466  0.00  0.00    +0.000 A 
ATOM      6  C   UNL     1      -5.217   3.968  -0.520  0.00  0.00    +0.000 A 
ENDROOT
BRANCH   1   7
ATOM      7  C   UNL     1      -5.581   1.474  -0.285  0.00  0.00    +0.000 C 
BRANCH   7   8
ATOM      8  O   UNL     1      -6.385   0.783  -1.234  0.00  0.00    +0.000 OA
BRANCH   8   9
ATOM      9  C   UNL     1      -6.011  -0.589  -1.360  0.00  0.00    +0.000 C 
BRANCH   9  13
ATOM     10  C   UNL     1      -8.510  -2.624  -4.162  0.00  0.00    +0.000 A 
ATOM     11  C   UNL     1      -8.247  -1.271  -4.361  0.00  0.00    +0.000 A 
ATOM     12  C   UNL     1      -7.428  -0.596  -3.457  0.00  0.00    +0.000 A 
ATOM     13  C   UNL     1      -6.900  -1.288  -2.366  0.00  0.00    +0.000 A 
ATOM     14  N   UNL     1      -7.128  -2.614  -2.175  0.00  0.00    +0.000 NA
ATOM     15  C   UNL     1      -7.928  -3.246  -3.070  0.00  0.00    +0.000 A 
BRANCH  10  17
ATOM     16  N   UNL     1     -10.048  -3.948  -5.766  0.00  0.00    +0.000 NA
ATOM     17  C   UNL     1      -9.358  -3.355  -5.050  0.00  0.00    +0.000 C 
ENDBRANCH  10  17
ENDBRANCH   9  13
ENDBRANCH   8   9
ENDBRANCH   7   8
ENDBRANCH   1   7
BRANCH   4  18
ATOM     18  C   UNL     1      -7.509   6.984  -0.082  0.00  0.00    +0.000 C 
BRANCH  18  19
ATOM     19  N   UNL     1      -7.292   7.580   1.211  0.00  0.00    +0.000 N 
ATOM     20  C   UNL     1      -7.714   8.854   1.494  0.00  0.00    +0.000 C 
ATOM     21  O   UNL     1      -8.323   9.538   0.676  0.00  0.00    +0.000 OA
ATOM     22  H   UNL     1      -6.593   7.144   1.804  0.00  0.00    +0.000 HD
BRANCH  20  23
ATOM     23  C   UNL     1      -7.456   9.335   2.856  0.00  0.00    +0.000 A 
ATOM     24  C   UNL     1      -8.257  10.329   3.404  0.00  0.00    +0.000 A 
ATOM     25  S   UNL     1      -7.845  10.731   5.010  0.00  0.00    +0.000 S 
ATOM     26  C   UNL     1      -6.550   9.627   5.013  0.00  0.00    +0.000 A 
ATOM     27  N   UNL     1      -5.747   9.492   6.102  0.00  0.00    +0.000 NA
ATOM     28  C   UNL     1      -4.787   8.641   5.954  0.00  0.00    +0.000 A 
ATOM     29  N   UNL     1      -4.561   7.908   4.819  0.00  0.00    +0.000 N 
ATOM     30  C   UNL     1      -5.365   7.986   3.708  0.00  0.00    +0.000 A 
ATOM     31  O   UNL     1      -5.166   7.275   2.729  0.00  0.00    +0.000 OA
ATOM     32  C   UNL     1      -6.448   8.944   3.814  0.00  0.00    +0.000 A 
ATOM     33  H   UNL     1      -3.800   7.246   4.771  0.00  0.00    +0.000 HD
ENDBRANCH  20  23
ENDBRANCH  18  19
ENDBRANCH   4  18
TORSDOF 8
