REMARK  Name = 
REMARK  8 active torsions:
REMARK  status: ('A' for Active; 'I' for Inactive)
REMARK    1  A    between atoms: C_1  and  C_2
REMARK    2  A    between atoms: C_2  and  N_3
REMARK    3  A    between atoms: C_2  and  C_25
REMARK    4  A    between atoms: N_3  and  C_4
REMARK    5  A    between atoms: C_4  and  C_5
REMARK    6  A    between atoms: C_8  and  C_9
REMARK    7  A    between atoms: C_9  and  N_10
REMARK    8  A    between atoms: C_11  and  C_13
REMARK                            x       y       z     vdW  Elec       q    Type
REMARK                         _______ _______ _______ _____ _____    ______ ____
ROOT
ATOM      1  C   UNL     1      -0.912  -0.374  -1.296  0.00  0.00    +0.000 A 
ATOM      2  C   UNL     1      -1.518  -1.248  -0.395  0.00  0.00    +0.000 A 
ATOM      3  C   UNL     1      -2.902  -1.414  -0.442  0.00  0.00    +0.000 A 
ATOM      4  C   UNL     1      -3.655  -0.712  -1.385  0.00  0.00    +0.000 A 
ATOM      5  C   UNL     1      -2.970   0.158  -2.223  0.00  0.00    +0.000 A 
ATOM      6  N   UNL     1      -1.630   0.330  -2.207  0.00  0.00    +0.000 NA
ENDROOT
BRANCH   1   7
ATOM      7  C   UNL     1       0.601  -0.227  -1.332  0.00  0.00    +0.000 C 
BRANCH   7   8
ATOM      8  N   UNL     1       1.048   1.142  -1.063  0.00  0.00    +0.000 NA
ATOM      9  H   UNL     1       0.668   1.455  -0.173  0.00  0.00    +0.000 HD
BRANCH   8  11
ATOM     10  C   UNL     1       3.160   0.883  -2.384  0.00  0.00    +0.000 C 
ATOM     11  C   UNL     1       2.505   1.309  -1.061  0.00  0.00    +0.000 C 
BRANCH  11  12
ATOM     12  C   UNL     1       2.850   2.763  -0.763  0.00  0.00    +0.000 A 
ATOM     13  C   UNL     1       3.604   3.100   0.372  0.00  0.00    +0.000 A 
ATOM     14  C   UNL     1       3.944   4.431   0.630  0.00  0.00    +0.000 A 
ATOM     15  C   UNL     1       3.536   5.441  -0.240  0.00  0.00    +0.000 A 
ATOM     16  C   UNL     1       2.779   5.124  -1.365  0.00  0.00    +0.000 A 
ATOM     17  C   UNL     1       2.433   3.796  -1.621  0.00  0.00    +0.000 A 
ENDBRANCH  11  12
ENDBRANCH   8  11
ENDBRANCH   7   8
ENDBRANCH   1   7
BRANCH   4  18
ATOM     18  C   UNL     1      -5.142  -0.861  -1.491  0.00  0.00    +0.000 C 
BRANCH  18  19
ATOM     19  N   UNL     1      -5.833   0.072  -0.637  0.00  0.00    +0.000 N 
ATOM     20  C   UNL     1      -7.200   0.041  -0.529  0.00  0.00    +0.000 C 
ATOM     21  O   UNL     1      -7.877  -0.801  -1.113  0.00  0.00    +0.000 OA
ATOM     22  H   UNL     1      -5.327   0.901  -0.337  0.00  0.00    +0.000 HD
BRANCH  20  23
ATOM     23  C   UNL     1      -7.814   1.025   0.370  0.00  0.00    +0.000 A 
ATOM     24  C   UNL     1      -9.063   0.766   0.918  0.00  0.00    +0.000 A 
ATOM     25  S   UNL     1      -9.622   1.991   1.963  0.00  0.00    +0.000 S 
ATOM     26  C   UNL     1      -8.235   2.937   1.682  0.00  0.00    +0.000 A 
ATOM     27  N   UNL     1      -8.094   4.158   2.262  0.00  0.00    +0.000 NA
ATOM     28  C   UNL     1      -7.009   4.780   1.938  0.00  0.00    +0.000 A 
ATOM     29  N   UNL     1      -6.047   4.285   1.095  0.00  0.00    +0.000 N 
ATOM     30  C   UNL     1      -6.131   3.041   0.517  0.00  0.00    +0.000 A 
ATOM     31  O   UNL     1      -5.226   2.598  -0.187  0.00  0.00    +0.000 OA
ATOM     32  C   UNL     1      -7.344   2.312   0.826  0.00  0.00    +0.000 A 
ATOM     33  H   UNL     1      -5.212   4.816   0.895  0.00  0.00    +0.000 HD
ENDBRANCH  20  23
ENDBRANCH  18  19
ENDBRANCH   4  18
TORSDOF 7
