REMARK  Name = 
REMARK  7 active torsions:
REMARK  status: ('A' for Active; 'I' for Inactive)
REMARK    1  A    between atoms: N_1  and  C_2
REMARK    2  A    between atoms: C_2  and  C_3
REMARK    3  A    between atoms: C_6  and  C_7
REMARK    4  A    between atoms: C_7  and  N_8
REMARK    5  A    between atoms: N_8  and  C_9
REMARK    6  A    between atoms: CA_13  and  C_14
REMARK    7  A    between atoms: C_14  and  OXT_16
REMARK                            x       y       z     vdW  Elec       q    Type
REMARK                         _______ _______ _______ _____ _____    ______ ____
ROOT
ATOM      1  N   UNL     1       4.238  -2.943   5.481  0.00  0.00    +0.000 N 
ATOM      2  H   UNL     1       3.658  -2.135   5.707  0.00  0.00    +0.000 HD
ENDROOT
BRANCH   1   3
ATOM      3  C   UNL     1       4.508  -3.748   6.600  0.00  0.00    +0.000 A 
ATOM      4  C   UNL     1       4.985  -5.059   6.489  0.00  0.00    +0.000 A 
ATOM      5  C   UNL     1       5.292  -5.785   7.633  0.00  0.00    +0.000 A 
ATOM      6  N   UNL     1       5.184  -5.307   8.891  0.00  0.00    +0.000 NA
ATOM      7  CA  UNL     1       4.762  -4.014   8.983  0.00  0.00    +0.000 A 
ATOM      8  C   UNL     1       4.439  -3.208   7.889  0.00  0.00    +0.000 A 
BRANCH   7   9
ATOM      9  C   UNL     1       4.654  -3.482  10.380  0.00  0.00    +0.000 C 
ATOM     10  O   UNL     1       4.281  -2.350  10.646  0.00  0.00    +0.000 OA
BRANCH   9  11
ATOM     11  OXT UNL     1       4.994  -4.403  11.307  0.00  0.00    +0.000 OA
ATOM     12  HXT UNL     1       5.257  -5.238  10.862  0.00  0.00    +0.000 HD
ENDBRANCH   9  11
ENDBRANCH   7   9
ENDBRANCH   1   3
BRANCH   1  13
ATOM     13  C   UNL     1       3.787  -3.603   4.253  0.00  0.00    +0.000 C 
BRANCH  13  17
ATOM     14  C   UNL     1       2.923  -0.725   1.126  0.00  0.00    +0.000 A 
ATOM     15  C   UNL     1       4.194  -1.308   1.222  0.00  0.00    +0.000 A 
ATOM     16  C   UNL     1       4.479  -2.236   2.229  0.00  0.00    +0.000 A 
ATOM     17  C   UNL     1       3.497  -2.600   3.161  0.00  0.00    +0.000 A 
ATOM     18  C   UNL     1       2.223  -2.027   3.055  0.00  0.00    +0.000 A 
ATOM     19  C   UNL     1       1.938  -1.102   2.046  0.00  0.00    +0.000 A 
BRANCH  14  20
ATOM     20  C   UNL     1       2.632   0.321   0.079  0.00  0.00    +0.000 C 
BRANCH  20  21
ATOM     21  N   UNL     1       2.863  -0.184  -1.270  0.00  0.00    +0.000 NA
ATOM     22  H   UNL     1       2.515   0.496  -1.942  0.00  0.00    +0.000 HD
ATOM     23  H   UNL     1       2.311  -1.029  -1.401  0.00  0.00    +0.000 HD
ENDBRANCH  20  21
ENDBRANCH  14  20
ENDBRANCH  13  17
ENDBRANCH   1  13
TORSDOF 7
