REMARK  Name = 
REMARK  6 active torsions:
REMARK  status: ('A' for Active; 'I' for Inactive)
REMARK    1  A    between atoms: C_1  and  C_2
REMARK    2  A    between atoms: C_4  and  C_5
REMARK    3  A    between atoms: C_10  and  N_11
REMARK    4  A    between atoms: N_11  and  C_12
REMARK    5  A    between atoms: C_12  and  C_13
REMARK    6  A    between atoms: C_17  and  C_18
REMARK                            x       y       z     vdW  Elec       q    Type
REMARK                         _______ _______ _______ _____ _____    ______ ____
ROOT
ATOM      1  N   UNL     1       0.830  -2.453  -0.186  0.00  0.00    +0.000 N 
ATOM      2  H   UNL     1       0.382  -2.666   0.699  0.00  0.00    +0.000 HD
ENDROOT
BRANCH   1   9
ATOM      3  C   UNL     1      -2.036  -1.859  -0.113  0.00  0.00    +0.000 C 
ATOM      4  C   UNL     1      -1.009  -0.955  -0.729  0.00  0.00    +0.000 A 
ATOM      5  C   UNL     1      -1.441   0.221  -1.369  0.00  0.00    +0.000 A 
ATOM      6  C   UNL     1      -0.524   1.080  -1.973  0.00  0.00    +0.000 A 
ATOM      7  C   UNL     1       0.805   0.724  -1.891  0.00  0.00    +0.000 A 
ATOM      8  N   UNL     1       1.258  -0.398  -1.279  0.00  0.00    +0.000 NA
ATOM      9  C   UNL     1       0.366  -1.236  -0.706  0.00  0.00    +0.000 A 
BRANCH   6  10
ATOM     10  C   UNL     1      -1.018   2.300  -2.656  0.00  0.00    +0.000 C 
ATOM     11  N   UNL     1      -0.122   3.130  -3.269  0.00  0.00    +0.000 N 
ATOM     12  O   UNL     1      -2.212   2.569  -2.681  0.00  0.00    +0.000 OA
ATOM     13  H   UNL     1       0.872   2.993  -3.336  0.00  0.00    +0.000 HD
ATOM     14  H   UNL     1      -0.513   3.943  -3.734  0.00  0.00    +0.000 HD
ENDBRANCH   6  10
ENDBRANCH   1   9
BRANCH   1  15
ATOM     15  C   UNL     1       2.286  -2.566  -0.084  0.00  0.00    +0.000 C 
BRANCH  15  16
ATOM     16  C   UNL     1       2.720  -4.005   0.117  0.00  0.00    +0.000 A 
ATOM     17  C   UNL     1       3.948  -4.285   0.730  0.00  0.00    +0.000 A 
ATOM     18  C   UNL     1       4.392  -5.600   0.852  0.00  0.00    +0.000 A 
ATOM     19  C   UNL     1       3.610  -6.651   0.367  0.00  0.00    +0.000 A 
ATOM     20  C   UNL     1       2.369  -6.418  -0.250  0.00  0.00    +0.000 A 
ATOM     21  C   UNL     1       1.962  -5.077  -0.386  0.00  0.00    +0.000 A 
BRANCH  20  22
ATOM     22  C   UNL     1       1.508  -7.529  -0.714  0.00  0.00    +0.000 A 
ATOM     23  C   UNL     1       0.682  -7.405  -1.850  0.00  0.00    +0.000 A 
ATOM     24  C   UNL     1      -0.161  -8.444  -2.264  0.00  0.00    +0.000 A 
ATOM     25  C   UNL     1      -0.184  -9.639  -1.555  0.00  0.00    +0.000 A 
ATOM     26  C   UNL     1       0.625  -9.779  -0.439  0.00  0.00    +0.000 A 
ATOM     27  F   UNL     1       0.605 -10.929   0.250  0.00  0.00    +0.000 F 
ATOM     28  C   UNL     1       1.455  -8.748  -0.013  0.00  0.00    +0.000 A 
ENDBRANCH  20  22
ENDBRANCH  15  16
ENDBRANCH   1  15
TORSDOF 5
