REMARK  Name = 
REMARK  3 active torsions:
REMARK  status: ('A' for Active; 'I' for Inactive)
REMARK    1  A    between atoms: C_2  and  C_4
REMARK    2  A    between atoms: N_8  and  C_9
REMARK    3  A    between atoms: C_9  and  C_10
REMARK                            x       y       z     vdW  Elec       q    Type
REMARK                         _______ _______ _______ _____ _____    ______ ____
ROOT
ATOM      1  C   UNL     1       3.275  -0.316  -1.291  0.00  0.00    +0.000 A 
ATOM      2  C   UNL     1       3.618  -1.627  -0.976  0.00  0.00    +0.000 A 
ATOM      3  C   UNL     1       4.220  -2.418  -1.952  0.00  0.00    +0.000 A 
ATOM      4  C   UNL     1       4.438  -1.903  -3.229  0.00  0.00    +0.000 A 
ATOM      5  N   UNL     1       4.978  -2.768  -4.180  0.00  0.00    +0.000 N 
ATOM      6  N   UNL     1       4.096  -0.641  -3.551  0.00  0.00    +0.000 NA
ATOM      7  C   UNL     1       3.526   0.125  -2.582  0.00  0.00    +0.000 A 
ATOM      8  H   UNL     1       5.904  -3.073  -3.901  0.00  0.00    +0.000 HD
ENDROOT
BRANCH   1  10
ATOM      9  N   UNL     1       2.837   0.351   1.006  0.00  0.00    +0.000 N 
ATOM     10  C   UNL     1       2.637   0.600  -0.324  0.00  0.00    +0.000 C 
ATOM     11  O   UNL     1       1.983   1.566  -0.693  0.00  0.00    +0.000 OA
ATOM     12  H   UNL     1       2.478   1.041   1.650  0.00  0.00    +0.000 HD
ATOM     13  H   UNL     1       3.542  -0.287   1.348  0.00  0.00    +0.000 HD
ENDBRANCH   1  10
BRANCH   5  14
ATOM     14  C   UNL     1       4.926  -2.331  -5.566  0.00  0.00    +0.000 C 
BRANCH  14  15
ATOM     15  C   UNL     1       5.144  -3.543  -6.444  0.00  0.00    +0.000 A 
ATOM     16  C   UNL     1       4.370  -4.697  -6.258  0.00  0.00    +0.000 A 
ATOM     17  C   UNL     1       4.585  -5.790  -7.080  0.00  0.00    +0.000 A 
ATOM     18  N   UNL     1       5.499  -5.811  -8.072  0.00  0.00    +0.000 NA
ATOM     19  C   UNL     1       6.225  -4.686  -8.247  0.00  0.00    +0.000 A 
ATOM     20  C   UNL     1       6.088  -3.542  -7.473  0.00  0.00    +0.000 A 
ENDBRANCH  14  15
ENDBRANCH   5  14
TORSDOF 3
