REMARK  Name = 
REMARK  4 active torsions:
REMARK  status: ('A' for Active; 'I' for Inactive)
REMARK    1  A    between atoms: C_2  and  C_4
REMARK    2  A    between atoms: N_8  and  C_9
REMARK    3  A    between atoms: C_9  and  C_10
REMARK    4  A    between atoms: C_15  and  C_16
REMARK                            x       y       z     vdW  Elec       q    Type
REMARK                         _______ _______ _______ _____ _____    ______ ____
ROOT
ATOM      1  C   UNL     1       5.031   2.454   5.517  0.00  0.00    +0.000 C 
ENDROOT
BRANCH   1   6
ATOM      2  C   UNL     1       7.555   1.126   1.256  0.00  0.00    +0.000 A 
ATOM      3  C   UNL     1       7.136   0.329   2.316  0.00  0.00    +0.000 A 
ATOM      4  C   UNL     1       6.311   0.880   3.296  0.00  0.00    +0.000 A 
ATOM      5  C   UNL     1       5.935   2.217   3.221  0.00  0.00    +0.000 A 
ATOM      6  N   UNL     1       5.068   2.811   4.114  0.00  0.00    +0.000 N 
ATOM      7  N   UNL     1       6.341   2.998   2.201  0.00  0.00    +0.000 NA
ATOM      8  C   UNL     1       7.146   2.449   1.249  0.00  0.00    +0.000 A 
ATOM      9  H   UNL     1       5.021   3.802   3.900  0.00  0.00    +0.000 HD
BRANCH   2  11
ATOM     10  N   UNL     1       8.347  -0.725  -0.101  0.00  0.00    +0.000 N 
ATOM     11  C   UNL     1       8.416   0.615   0.170  0.00  0.00    +0.000 C 
ATOM     12  O   UNL     1       9.138   1.361  -0.478  0.00  0.00    +0.000 OA
ATOM     13  H   UNL     1       8.876  -1.053  -0.903  0.00  0.00    +0.000 HD
ATOM     14  H   UNL     1       7.595  -1.309   0.229  0.00  0.00    +0.000 HD
ENDBRANCH   2  11
ENDBRANCH   1   6
BRANCH   1  15
ATOM     15  C   UNL     1       6.052   3.200   6.346  0.00  0.00    +0.000 A 
ATOM     16  C   UNL     1       5.998   4.593   6.464  0.00  0.00    +0.000 A 
ATOM     17  C   UNL     1       6.887   5.257   7.304  0.00  0.00    +0.000 A 
ATOM     18  C   UNL     1       7.838   4.538   8.029  0.00  0.00    +0.000 A 
ATOM     19  F   UNL     1       8.664   5.242   8.818  0.00  0.00    +0.000 F 
ATOM     20  C   UNL     1       7.941   3.139   7.945  0.00  0.00    +0.000 A 
ATOM     21  C   UNL     1       7.025   2.493   7.084  0.00  0.00    +0.000 A 
BRANCH  20  22
ATOM     22  C   UNL     1       8.941   2.361   8.724  0.00  0.00    +0.000 A 
ATOM     23  C   UNL     1       9.365   2.764  10.008  0.00  0.00    +0.000 A 
ATOM     24  C   UNL     1      10.308   2.031  10.741  0.00  0.00    +0.000 A 
ATOM     25  C   UNL     1      10.839   0.860  10.214  0.00  0.00    +0.000 A 
ATOM     26  C   UNL     1      10.428   0.441   8.958  0.00  0.00    +0.000 A 
ATOM     27  F   UNL     1      10.929  -0.691   8.445  0.00  0.00    +0.000 F 
ATOM     28  C   UNL     1       9.504   1.175   8.217  0.00  0.00    +0.000 A 
ENDBRANCH  20  22
ENDBRANCH   1  15
TORSDOF 4
