REMARK  Name = 
REMARK  3 active torsions:
REMARK  status: ('A' for Active; 'I' for Inactive)
REMARK    1  A    between atoms: C_2  and  C_4
REMARK    2  A    between atoms: C_7  and  C_8
REMARK    3  A    between atoms: C_8  and  N_9
REMARK                            x       y       z     vdW  Elec       q    Type
REMARK                         _______ _______ _______ _____ _____    ______ ____
ROOT
ATOM      1  C   UNL     1       2.929   0.076   1.309  0.00  0.00    +0.000 A 
ATOM      2  C   UNL     1       2.742   1.138   2.201  0.00  0.00    +0.000 A 
ATOM      3  C   UNL     1       3.522   1.228   3.358  0.00  0.00    +0.000 A 
ATOM      4  C   UNL     1       4.498   0.260   3.641  0.00  0.00    +0.000 A 
ATOM      5  C   UNL     1       4.670  -0.808   2.748  0.00  0.00    +0.000 A 
ATOM      6  C   UNL     1       3.888  -0.901   1.593  0.00  0.00    +0.000 A 
ENDROOT
BRANCH   1   8
ATOM      7  N   UNL     1       1.601   1.073  -0.477  0.00  0.00    +0.000 N 
ATOM      8  C   UNL     1       2.116  -0.068   0.073  0.00  0.00    +0.000 C 
ATOM      9  O   UNL     1       1.942  -1.156  -0.459  0.00  0.00    +0.000 OA
ATOM     10  H   UNL     1       1.140   0.966  -1.372  0.00  0.00    +0.000 HD
ATOM     11  H   UNL     1       1.927   1.994  -0.224  0.00  0.00    +0.000 HD
ENDBRANCH   1   8
BRANCH   4  12
ATOM     12  C   UNL     1       5.351   0.361   4.881  0.00  0.00    +0.000 C 
BRANCH  12  13
ATOM     13  N   UNL     1       4.772  -0.335   6.024  0.00  0.00    +0.000 N 
ATOM     14  C   UNL     1       4.986  -1.666   6.304  0.00  0.00    +0.000 A 
ATOM     15  C   UNL     1       4.437  -1.938   7.538  0.00  0.00    +0.000 A 
ATOM     16  C   UNL     1       3.874  -0.737   8.023  0.00  0.00    +0.000 A 
ATOM     17  N   UNL     1       3.253  -0.515   9.208  0.00  0.00    +0.000 NA
ATOM     18  C   UNL     1       2.823   0.749   9.393  0.00  0.00    +0.000 A 
ATOM     19  C   UNL     1       2.957   1.788   8.484  0.00  0.00    +0.000 A 
ATOM     20  C   UNL     1       3.598   1.553   7.270  0.00  0.00    +0.000 A 
ATOM     21  C   UNL     1       4.070   0.252   7.059  0.00  0.00    +0.000 A 
ENDBRANCH  12  13
ENDBRANCH   4  12
TORSDOF 3
