REMARK  Name = 
REMARK  5 active torsions:
REMARK  status: ('A' for Active; 'I' for Inactive)
REMARK    1  A    between atoms: C_2  and  C_4
REMARK    2  A    between atoms: C_9  and  N_10
REMARK    3  A    between atoms: N_10  and  C_11
REMARK    4  A    between atoms: C_11  and  C_12
REMARK    5  A    between atoms: C_16  and  C_17
REMARK                            x       y       z     vdW  Elec       q    Type
REMARK                         _______ _______ _______ _____ _____    ______ ____
ROOT
ATOM      1  C   UNL     1       3.638   1.851   0.671  0.00  0.00    +0.000 C 
ATOM      2  C   UNL     1       3.810   0.430   0.140  0.00  0.00    +0.000 C 
ATOM      3  C   UNL     1       3.617   0.654   1.601  0.00  0.00    +0.000 C 
ENDROOT
BRANCH   1   4
ATOM      4  C   UNL     1       4.877   2.737   0.755  0.00  0.00    +0.000 A 
ATOM      5  C   UNL     1       5.152   3.482   1.912  0.00  0.00    +0.000 A 
ATOM      6  C   UNL     1       6.362   4.158   2.060  0.00  0.00    +0.000 A 
ATOM      7  C   UNL     1       7.324   4.102   1.051  0.00  0.00    +0.000 A 
ATOM      8  C   UNL     1       7.078   3.419  -0.149  0.00  0.00    +0.000 A 
ATOM      9  C   UNL     1       5.838   2.759  -0.271  0.00  0.00    +0.000 A 
BRANCH   8  10
ATOM     10  C   UNL     1       8.105   3.241  -1.273  0.00  0.00    +0.000 C 
ATOM     11  F   UNL     1       8.313   1.890  -1.455  0.00  0.00    +0.000 F 
ATOM     12  C   UNL     1       9.494   3.837  -1.005  0.00  0.00    +0.000 C 
ATOM     13  C   UNL     1       9.504   5.351  -1.166  0.00  0.00    +0.000 C 
ATOM     14  O   UNL     1       9.014   5.729  -2.450  0.00  0.00    +0.000 OA
ATOM     15  C   UNL     1       7.675   5.290  -2.676  0.00  0.00    +0.000 C 
ATOM     16  C   UNL     1       7.605   3.775  -2.626  0.00  0.00    +0.000 C 
ENDBRANCH   8  10
ENDBRANCH   1   4
BRANCH   1  17
ATOM     17  N   UNL     1       2.431   2.531   0.186  0.00  0.00    +0.000 N 
ATOM     18  H   UNL     1       2.466   2.890  -0.770  0.00  0.00    +0.000 HD
BRANCH  17  24
ATOM     19  C   UNL     1       0.917   4.439   0.481  0.00  0.00    +0.000 A 
ATOM     20  C   UNL     1       0.020   5.146   1.297  0.00  0.00    +0.000 A 
ATOM     21  C   UNL     1      -0.196   4.723   2.601  0.00  0.00    +0.000 A 
ATOM     22  C   UNL     1       0.504   3.618   3.046  0.00  0.00    +0.000 A 
ATOM     23  N   UNL     1       1.395   2.931   2.294  0.00  0.00    +0.000 NA
ATOM     24  C   UNL     1       1.592   3.315   1.007  0.00  0.00    +0.000 A 
BRANCH  19  26
ATOM     25  N   UNL     1       0.879   6.171  -1.249  0.00  0.00    +0.000 N 
ATOM     26  C   UNL     1       1.130   4.865  -0.929  0.00  0.00    +0.000 C 
ATOM     27  O   UNL     1       1.541   4.093  -1.785  0.00  0.00    +0.000 OA
ATOM     28  H   UNL     1       1.103   6.452  -2.198  0.00  0.00    +0.000 HD
ATOM     29  H   UNL     1       0.809   6.905  -0.557  0.00  0.00    +0.000 HD
ENDBRANCH  19  26
ENDBRANCH  17  24
ENDBRANCH   1  17
TORSDOF 5
