REMARK  Name = 
REMARK  7 active torsions:
REMARK  status: ('A' for Active; 'I' for Inactive)
REMARK    1  A    between atoms: C_2  and  C_4
REMARK    2  A    between atoms: C_7  and  N_8
REMARK    3  A    between atoms: N_8  and  C_9
REMARK    4  A    between atoms: C_9  and  C_10
REMARK    5  A    between atoms: C_14  and  C_15
REMARK    6  A    between atoms: C_19  and  O_20
REMARK    7  A    between atoms: O_20  and  C_21
REMARK                            x       y       z     vdW  Elec       q    Type
REMARK                         _______ _______ _______ _____ _____    ______ ____
ROOT
ATOM      1  C   UNL     1       4.778  -5.947   1.117  0.00  0.00    +0.000 C 
ATOM      2  C   UNL     1       3.598  -4.985   1.229  0.00  0.00    +0.000 C 
ATOM      3  C   UNL     1       4.946  -4.449   0.902  0.00  0.00    +0.000 C 
ENDROOT
BRANCH   1   4
ATOM      4  C   UNL     1       5.404  -6.483   2.405  0.00  0.00    +0.000 A 
ATOM      5  C   UNL     1       6.798  -6.576   2.553  0.00  0.00    +0.000 A 
ATOM      6  C   UNL     1       7.377  -6.851   3.789  0.00  0.00    +0.000 A 
ATOM      7  C   UNL     1       6.569  -7.033   4.910  0.00  0.00    +0.000 A 
ATOM      8  C   UNL     1       5.169  -6.991   4.811  0.00  0.00    +0.000 A 
ATOM      9  C   UNL     1       4.615  -6.768   3.537  0.00  0.00    +0.000 A 
BRANCH   8  10
ATOM     10  C   UNL     1       4.305  -7.059   6.005  0.00  0.00    +0.000 A 
ATOM     11  C   UNL     1       4.647  -6.381   7.180  0.00  0.00    +0.000 A 
ATOM     12  N   UNL     1       3.902  -6.356   8.309  0.00  0.00    +0.000 NA
ATOM     13  C   UNL     1       2.734  -7.029   8.269  0.00  0.00    +0.000 A 
ATOM     14  C   UNL     1       2.261  -7.708   7.154  0.00  0.00    +0.000 A 
ATOM     15  C   UNL     1       3.074  -7.741   6.018  0.00  0.00    +0.000 A 
BRANCH  14  16
ATOM     16  O   UNL     1       1.045  -8.309   7.289  0.00  0.00    +0.000 OA
BRANCH  16  17
ATOM     17  C   UNL     1       0.289  -8.439   6.098  0.00  0.00    +0.000 C 
ATOM     18  F   UNL     1       0.672  -9.571   5.459  0.00  0.00    +0.000 F 
ATOM     19  F   UNL     1      -1.006  -8.612   6.461  0.00  0.00    +0.000 F 
ENDBRANCH  16  17
ENDBRANCH  14  16
ENDBRANCH   8  10
ENDBRANCH   1   4
BRANCH   1  20
ATOM     20  N   UNL     1       4.715  -6.907   0.002  0.00  0.00    +0.000 N 
ATOM     21  H   UNL     1       4.240  -7.789   0.170  0.00  0.00    +0.000 HD
BRANCH  20  25
ATOM     22  C   UNL     1       7.895  -7.751  -2.454  0.00  0.00    +0.000 A 
ATOM     23  C   UNL     1       6.935  -8.702  -2.152  0.00  0.00    +0.000 A 
ATOM     24  N   UNL     1       5.876  -8.434  -1.339  0.00  0.00    +0.000 NA
ATOM     25  C   UNL     1       5.804  -7.182  -0.833  0.00  0.00    +0.000 A 
ATOM     26  C   UNL     1       6.771  -6.233  -1.178  0.00  0.00    +0.000 A 
ATOM     27  N   UNL     1       7.839  -6.481  -1.975  0.00  0.00    +0.000 NA
BRANCH  22  29
ATOM     28  N   UNL     1       9.976  -7.080  -3.465  0.00  0.00    +0.000 N 
ATOM     29  C   UNL     1       9.063  -8.088  -3.308  0.00  0.00    +0.000 C 
ATOM     30  O   UNL     1       9.209  -9.193  -3.821  0.00  0.00    +0.000 OA
ATOM     31  H   UNL     1      10.807  -7.234  -4.018  0.00  0.00    +0.000 HD
ATOM     32  H   UNL     1       9.818  -6.185  -3.014  0.00  0.00    +0.000 HD
ENDBRANCH  22  29
ENDBRANCH  20  25
ENDBRANCH   1  20
TORSDOF 7
