REMARK  Name = 
REMARK  4 active torsions:
REMARK  status: ('A' for Active; 'I' for Inactive)
REMARK    1  A    between atoms: C_2  and  C_4
REMARK    2  A    between atoms: C_7  and  N_8
REMARK    3  A    between atoms: N_8  and  C_9
REMARK    4  A    between atoms: C_9  and  C_10
REMARK                            x       y       z     vdW  Elec       q    Type
REMARK                         _______ _______ _______ _____ _____    ______ ____
ROOT
ATOM      1  C   UNL     1       8.475  -0.246   3.114  0.00  0.00    +0.000 A 
ATOM      2  C   UNL     1       7.403  -0.145   2.222  0.00  0.00    +0.000 A 
ATOM      3  C   UNL     1       6.378   0.780   2.464  0.00  0.00    +0.000 A 
ATOM      4  C   UNL     1       6.392   1.595   3.606  0.00  0.00    +0.000 A 
ATOM      5  C   UNL     1       7.495   1.510   4.464  0.00  0.00    +0.000 A 
ATOM      6  C   UNL     1       8.520   0.586   4.234  0.00  0.00    +0.000 A 
ENDROOT
BRANCH   1   8
ATOM      7  N   UNL     1       9.822  -1.654   1.650  0.00  0.00    +0.000 N 
ATOM      8  C   UNL     1       9.564  -1.240   2.927  0.00  0.00    +0.000 C 
ATOM      9  O   UNL     1      10.227  -1.655   3.868  0.00  0.00    +0.000 OA
ATOM     10  H   UNL     1      10.630  -2.252   1.531  0.00  0.00    +0.000 HD
ATOM     11  H   UNL     1       9.491  -1.147   0.843  0.00  0.00    +0.000 HD
ENDBRANCH   1   8
BRANCH   4  12
ATOM     12  N   UNL     1       5.337   2.513   3.815  0.00  0.00    +0.000 N 
ATOM     13  H   UNL     1       4.527   2.305   3.238  0.00  0.00    +0.000 HD
BRANCH  12  14
ATOM     14  C   UNL     1       5.032   3.030   5.173  0.00  0.00    +0.000 C 
ATOM     15  C   UNL     1       4.677   2.015   6.248  0.00  0.00    +0.000 C 
ATOM     16  C   UNL     1       3.605   2.891   5.695  0.00  0.00    +0.000 C 
BRANCH  14  17
ATOM     17  C   UNL     1       5.684   4.377   5.502  0.00  0.00    +0.000 A 
ATOM     18  C   UNL     1       5.544   5.473   4.628  0.00  0.00    +0.000 A 
ATOM     19  C   UNL     1       6.063   6.734   4.935  0.00  0.00    +0.000 A 
ATOM     20  C   UNL     1       6.740   6.932   6.134  0.00  0.00    +0.000 A 
ATOM     21  C   UNL     1       6.917   5.865   7.008  0.00  0.00    +0.000 A 
ATOM     22  C   UNL     1       6.405   4.604   6.688  0.00  0.00    +0.000 A 
ENDBRANCH  14  17
ENDBRANCH  12  14
ENDBRANCH   4  12
TORSDOF 4
