REMARK  Name = 
REMARK  6 active torsions:
REMARK  status: ('A' for Active; 'I' for Inactive)
REMARK    1  A    between atoms: C_2  and  C_19
REMARK    2  A    between atoms: N_3  and  C_4
REMARK    3  A    between atoms: C_4  and  C_5
REMARK    4  A    between atoms: C_8  and  O_9
REMARK    5  A    between atoms: O_9  and  C_10
REMARK    6  A    between atoms: C_10  and  C_11
REMARK                            x       y       z     vdW  Elec       q    Type
REMARK                         _______ _______ _______ _____ _____    ______ ____
ROOT
ATOM      1  O   UNL     1       0.476  -2.526  -3.140  0.00  0.00    +0.000 OA
ATOM      2  C   UNL     1       0.211  -1.374  -3.456  0.00  0.00    +0.000 C 
ATOM      3  N   UNL     1       0.931  -0.264  -3.065  0.00  0.00    +0.000 N 
ATOM      4  H   UNL     1       0.752   0.597  -3.556  0.00  0.00    +0.000 HD
ENDROOT
BRANCH   2   5
ATOM      5  C   UNL     1      -0.778  -1.027  -4.469  0.00  0.00    +0.000 A 
ATOM      6  C   UNL     1      -0.962  -1.767  -5.624  0.00  0.00    +0.000 A 
ATOM      7  S   UNL     1      -1.753  -0.849  -6.842  0.00  0.00    +0.000 S 
ATOM      8  C   UNL     1      -1.966   0.476  -5.787  0.00  0.00    +0.000 A 
ATOM      9  N   UNL     1      -2.444   1.677  -6.205  0.00  0.00    +0.000 NA
ATOM     10  C   UNL     1      -2.586   2.549  -5.259  0.00  0.00    +0.000 A 
ATOM     11  N   UNL     1      -2.342   2.315  -3.928  0.00  0.00    +0.000 N 
ATOM     12  C   UNL     1      -1.871   1.116  -3.457  0.00  0.00    +0.000 A 
ATOM     13  O   UNL     1      -1.723   0.897  -2.261  0.00  0.00    +0.000 OA
ATOM     14  C   UNL     1      -1.577   0.159  -4.504  0.00  0.00    +0.000 A 
ATOM     15  H   UNL     1      -2.556   3.010  -3.228  0.00  0.00    +0.000 HD
ENDBRANCH   2   5
BRANCH   3  16
ATOM     16  C   UNL     1       2.244  -0.357  -2.489  0.00  0.00    +0.000 C 
BRANCH  16  17
ATOM     17  C   UNL     1       3.278  -0.315  -3.587  0.00  0.00    +0.000 A 
ATOM     18  C   UNL     1       3.776   0.898  -4.089  0.00  0.00    +0.000 A 
ATOM     19  C   UNL     1       4.748   0.898  -5.096  0.00  0.00    +0.000 A 
ATOM     20  C   UNL     1       5.226  -0.307  -5.610  0.00  0.00    +0.000 A 
ATOM     21  C   UNL     1       4.660  -1.509  -5.183  0.00  0.00    +0.000 A 
ATOM     22  C   UNL     1       3.701  -1.511  -4.173  0.00  0.00    +0.000 A 
BRANCH  20  23
ATOM     23  O   UNL     1       6.253  -0.216  -6.514  0.00  0.00    +0.000 OA
BRANCH  23  24
ATOM     24  C   UNL     1       7.070  -1.384  -6.584  0.00  0.00    +0.000 C 
BRANCH  24  25
ATOM     25  C   UNL     1       8.423  -1.087  -7.144  0.00  0.00    +0.000 A 
ATOM     26  C   UNL     1       9.052   0.136  -7.023  0.00  0.00    +0.000 A 
ATOM     27  N   UNL     1      10.309   0.379  -7.454  0.00  0.00    +0.000 NA
ATOM     28  C   UNL     1      10.942  -0.660  -8.017  0.00  0.00    +0.000 A 
ATOM     29  N   UNL     1      10.444  -1.895  -8.176  0.00  0.00    +0.000 NA
ATOM     30  C   UNL     1       9.191  -2.079  -7.721  0.00  0.00    +0.000 A 
ENDBRANCH  24  25
ENDBRANCH  23  24
ENDBRANCH  20  23
ENDBRANCH  16  17
ENDBRANCH   3  16
TORSDOF 6
