REMARK  Name = 
REMARK  5 active torsions:
REMARK  status: ('A' for Active; 'I' for Inactive)
REMARK    1  A    between atoms: C_2  and  C_18
REMARK    2  A    between atoms: N_3  and  C_4
REMARK    3  A    between atoms: C_4  and  C_5
REMARK    4  A    between atoms: C_8  and  O_9
REMARK    5  A    between atoms: O_9  and  C_10
REMARK                            x       y       z     vdW  Elec       q    Type
REMARK                         _______ _______ _______ _____ _____    ______ ____
ROOT
ATOM      1  O   UNL     1       0.922  -0.551   0.582  0.00  0.00    +0.000 OA
ATOM      2  C   UNL     1       2.139  -0.600   0.502  0.00  0.00    +0.000 C 
ATOM      3  N   UNL     1       2.835  -1.400  -0.378  0.00  0.00    +0.000 N 
ATOM      4  H   UNL     1       3.783  -1.138  -0.589  0.00  0.00    +0.000 HD
ENDROOT
BRANCH   2   5
ATOM      5  C   UNL     1       3.034   0.355   1.143  0.00  0.00    +0.000 A 
ATOM      6  C   UNL     1       2.723   1.699   1.247  0.00  0.00    +0.000 A 
ATOM      7  S   UNL     1       4.145   2.649   1.389  0.00  0.00    +0.000 S 
ATOM      8  C   UNL     1       5.132   1.261   1.495  0.00  0.00    +0.000 A 
ATOM      9  N   UNL     1       6.488   1.324   1.476  0.00  0.00    +0.000 NA
ATOM     10  C   UNL     1       7.073   0.182   1.642  0.00  0.00    +0.000 A 
ATOM     11  N   UNL     1       6.428  -1.009   1.876  0.00  0.00    +0.000 N 
ATOM     12  C   UNL     1       5.054  -1.127   1.900  0.00  0.00    +0.000 A 
ATOM     13  O   UNL     1       4.493  -2.174   2.182  0.00  0.00    +0.000 OA
ATOM     14  C   UNL     1       4.370   0.116   1.586  0.00  0.00    +0.000 A 
ATOM     15  H   UNL     1       6.949  -1.845   2.099  0.00  0.00    +0.000 HD
ENDBRANCH   2   5
BRANCH   3  16
ATOM     16  C   UNL     1       2.152  -2.134  -1.405  0.00  0.00    +0.000 C 
BRANCH  16  17
ATOM     17  C   UNL     1       3.126  -2.975  -2.187  0.00  0.00    +0.000 A 
ATOM     18  C   UNL     1       3.394  -4.292  -1.796  0.00  0.00    +0.000 A 
ATOM     19  C   UNL     1       4.262  -5.089  -2.544  0.00  0.00    +0.000 A 
ATOM     20  C   UNL     1       4.861  -4.586  -3.702  0.00  0.00    +0.000 A 
ATOM     21  C   UNL     1       4.660  -3.251  -4.054  0.00  0.00    +0.000 A 
ATOM     22  C   UNL     1       3.801  -2.448  -3.298  0.00  0.00    +0.000 A 
BRANCH  20  23
ATOM     23  O   UNL     1       5.716  -5.310  -4.503  0.00  0.00    +0.000 OA
BRANCH  23  24
ATOM     24  C   UNL     1       5.459  -6.664  -4.681  0.00  0.00    +0.000 A 
ATOM     25  N   UNL     1       4.194  -7.118  -4.605  0.00  0.00    +0.000 NA
ATOM     26  C   UNL     1       4.029  -8.446  -4.721  0.00  0.00    +0.000 A 
ATOM     27  C   UNL     1       5.065  -9.318  -4.949  0.00  0.00    +0.000 A 
ATOM     28  C   UNL     1       6.311  -8.744  -5.057  0.00  0.00    +0.000 A 
ATOM     29  N   UNL     1       6.539  -7.424  -4.927  0.00  0.00    +0.000 NA
ENDBRANCH  23  24
ENDBRANCH  20  23
ENDBRANCH  16  17
ENDBRANCH   3  16
TORSDOF 5
