REMARK  Name = 
REMARK  10 active torsions:
REMARK  status: ('A' for Active; 'I' for Inactive)
REMARK    1  A    between atoms: C_1  and  C_2
REMARK    2  A    between atoms: C_2  and  C_3
REMARK    3  A    between atoms: C_3  and  N_4
REMARK    4  A    between atoms: C_3  and  C_20
REMARK    5  A    between atoms: N_4  and  C_5
REMARK    6  A    between atoms: C_5  and  C_6
REMARK    7  A    between atoms: C_9  and  C_10
REMARK    8  A    between atoms: C_10  and  N_11
REMARK    9  A    between atoms: N_11  and  C_12
REMARK   10  A    between atoms: C_12  and  C_13
REMARK                            x       y       z     vdW  Elec       q    Type
REMARK                         _______ _______ _______ _____ _____    ______ ____
ROOT
ATOM      1  C   UNL     1       3.508  -1.020  -0.090  0.00  0.00    +0.000 C 
ENDROOT
BRANCH   1   2
ATOM      2  C   UNL     1       2.931  -2.198   0.676  0.00  0.00    +0.000 A 
ATOM      3  C   UNL     1       3.626  -2.759   1.743  0.00  0.00    +0.000 A 
ATOM      4  C   UNL     1       3.054  -3.829   2.429  0.00  0.00    +0.000 A 
ATOM      5  C   UNL     1       1.805  -4.318   2.039  0.00  0.00    +0.000 A 
ATOM      6  C   UNL     1       1.199  -3.711   0.947  0.00  0.00    +0.000 A 
ATOM      7  N   UNL     1       1.733  -2.681   0.260  0.00  0.00    +0.000 NA
BRANCH   5   8
ATOM      8  C   UNL     1       1.139  -5.464   2.747  0.00  0.00    +0.000 C 
BRANCH   8   9
ATOM      9  N   UNL     1       0.912  -5.163   4.157  0.00  0.00    +0.000 NA
ATOM     10  H   UNL     1       0.323  -4.331   4.237  0.00  0.00    +0.000 HD
BRANCH   9  11
ATOM     11  C   UNL     1       0.199  -6.265   4.806  0.00  0.00    +0.000 C 
BRANCH  11  12
ATOM     12  C   UNL     1      -0.027  -5.902   6.236  0.00  0.00    +0.000 A 
ATOM     13  C   UNL     1       0.795  -6.115   7.324  0.00  0.00    +0.000 A 
ATOM     14  N   UNL     1       0.129  -5.583   8.390  0.00  0.00    +0.000 N 
ATOM     15  C   UNL     1      -1.053  -5.077   7.928  0.00  0.00    +0.000 A 
ATOM     16  N   UNL     1      -1.178  -5.253   6.632  0.00  0.00    +0.000 NA
ATOM     17  H   UNL     1       0.448  -5.561   9.349  0.00  0.00    +0.000 HD
ENDBRANCH  11  12
ENDBRANCH   9  11
ENDBRANCH   8   9
ENDBRANCH   5   8
ENDBRANCH   1   2
BRANCH   1  18
ATOM     18  N   UNL     1       2.581   0.118  -0.136  0.00  0.00    +0.000 NA
ATOM     19  H   UNL     1       2.295   0.338   0.817  0.00  0.00    +0.000 HD
BRANCH  18  20
ATOM     20  C   UNL     1       3.142   1.313  -0.775  0.00  0.00    +0.000 C 
BRANCH  20  21
ATOM     21  C   UNL     1       2.108   2.415  -0.593  0.00  0.00    +0.000 A 
ATOM     22  C   UNL     1       0.797   2.340  -1.047  0.00  0.00    +0.000 A 
ATOM     23  S   UNL     1      -0.118   3.742  -0.717  0.00  0.00    +0.000 S 
ATOM     24  C   UNL     1       1.197   4.490   0.063  0.00  0.00    +0.000 A 
ATOM     25  N   UNL     1       1.082   5.735   0.599  0.00  0.00    +0.000 NA
ATOM     26  C   UNL     1       2.156   6.171   1.165  0.00  0.00    +0.000 A 
ATOM     27  N   UNL     1       3.339   5.478   1.240  0.00  0.00    +0.000 N 
ATOM     28  C   UNL     1       3.510   4.224   0.700  0.00  0.00    +0.000 A 
ATOM     29  O   UNL     1       4.590   3.645   0.770  0.00  0.00    +0.000 OA
ATOM     30  C   UNL     1       2.322   3.684   0.062  0.00  0.00    +0.000 A 
ATOM     31  H   UNL     1       4.146   5.879   1.693  0.00  0.00    +0.000 HD
ENDBRANCH  20  21
BRANCH  20  33
ATOM     32  C   UNL     1       4.103   2.263  -2.957  0.00  0.00    +0.000 C 
ATOM     33  C   UNL     1       3.465   1.066  -2.265  0.00  0.00    +0.000 C 
ENDBRANCH  20  33
ENDBRANCH  18  20
ENDBRANCH   1  18
TORSDOF 9
