REMARK  Name = 
REMARK  5 active torsions:
REMARK  status: ('A' for Active; 'I' for Inactive)
REMARK    1  A    between atoms: N_1  and  C_2
REMARK    2  A    between atoms: C_2  and  C_3
REMARK    3  A    between atoms: C_6  and  O_7
REMARK    4  A    between atoms: O_7  and  C_8
REMARK    5  A    between atoms: C_8  and  C_9
REMARK                            x       y       z     vdW  Elec       q    Type
REMARK                         _______ _______ _______ _____ _____    ______ ____
ROOT
ATOM      1  C   UNL     1       2.883  -1.259   0.658  0.00  0.00    +0.000 A 
ATOM      2  C   UNL     1       3.390  -1.209   1.965  0.00  0.00    +0.000 A 
ATOM      3  C   UNL     1       3.655  -2.386   2.671  0.00  0.00    +0.000 A 
ATOM      4  C   UNL     1       3.406  -3.627   2.085  0.00  0.00    +0.000 A 
ATOM      5  C   UNL     1       2.969  -3.685   0.760  0.00  0.00    +0.000 A 
ATOM      6  C   UNL     1       2.696  -2.512   0.058  0.00  0.00    +0.000 A 
ENDROOT
BRANCH   1   7
ATOM      7  C   UNL     1       2.514  -0.002  -0.083  0.00  0.00    +0.000 C 
BRANCH   7   8
ATOM      8  N   UNL     1       3.662   0.874  -0.271  0.00  0.00    +0.000 NA
ATOM      9  H   UNL     1       3.401   1.628  -0.904  0.00  0.00    +0.000 HD
ATOM     10  H   UNL     1       4.401   0.350  -0.736  0.00  0.00    +0.000 HD
ENDBRANCH   7   8
ENDBRANCH   1   7
BRANCH   4  11
ATOM     11  O   UNL     1       3.609  -4.720   2.887  0.00  0.00    +0.000 OA
BRANCH  11  12
ATOM     12  C   UNL     1       2.856  -5.876   2.512  0.00  0.00    +0.000 C 
BRANCH  12  13
ATOM     13  C   UNL     1       2.717  -6.801   3.691  0.00  0.00    +0.000 A 
ATOM     14  C   UNL     1       1.457  -7.088   4.223  0.00  0.00    +0.000 A 
ATOM     15  C   UNL     1       1.370  -7.972   5.286  0.00  0.00    +0.000 A 
ATOM     16  N   UNL     1       2.437  -8.579   5.845  0.00  0.00    +0.000 NA
ATOM     17  C   UNL     1       3.646  -8.281   5.323  0.00  0.00    +0.000 A 
ATOM     18  C   UNL     1       3.837  -7.411   4.261  0.00  0.00    +0.000 A 
ENDBRANCH  12  13
ENDBRANCH  11  12
ENDBRANCH   4  11
TORSDOF 5
