REMARK  Name = 
REMARK  4 active torsions:
REMARK  status: ('A' for Active; 'I' for Inactive)
REMARK    1  A    between atoms: C_2  and  C_4
REMARK    2  A    between atoms: C_7  and  O_8
REMARK    3  A    between atoms: O_8  and  C_9
REMARK    4  A    between atoms: C_9  and  C_10
REMARK                            x       y       z     vdW  Elec       q    Type
REMARK                         _______ _______ _______ _____ _____    ______ ____
ROOT
ATOM      1  C   UNL     1       3.444   0.252   2.177  0.00  0.00    +0.000 A 
ATOM      2  C   UNL     1       2.844   1.036   3.129  0.00  0.00    +0.000 A 
ATOM      3  N   UNL     1       3.296   2.260   3.463  0.00  0.00    +0.000 NA
ATOM      4  C   UNL     1       4.418   2.675   2.839  0.00  0.00    +0.000 A 
ATOM      5  N   UNL     1       5.128   1.951   1.961  0.00  0.00    +0.000 NA
ATOM      6  C   UNL     1       4.620   0.737   1.651  0.00  0.00    +0.000 A 
ENDROOT
BRANCH   1   8
ATOM      7  N   UNL     1       1.493  -1.074   1.645  0.00  0.00    +0.000 N 
ATOM      8  C   UNL     1       2.857  -0.995   1.663  0.00  0.00    +0.000 C 
ATOM      9  O   UNL     1       3.561  -1.884   1.196  0.00  0.00    +0.000 OA
ATOM     10  H   UNL     1       1.105  -1.863   1.131  0.00  0.00    +0.000 HD
ATOM     11  H   UNL     1       0.894  -0.273   1.761  0.00  0.00    +0.000 HD
ENDBRANCH   1   8
BRANCH   4  12
ATOM     12  O   UNL     1       4.571   4.039   2.818  0.00  0.00    +0.000 OA
BRANCH  12  13
ATOM     13  C   UNL     1       5.916   4.567   2.873  0.00  0.00    +0.000 C 
ATOM     14  C   UNL     1       6.022   5.710   1.866  0.00  0.00    +0.000 C 
ATOM     15  C   UNL     1       6.865   4.496   1.693  0.00  0.00    +0.000 C 
BRANCH  13  16
ATOM     16  C   UNL     1       6.442   4.773   4.275  0.00  0.00    +0.000 A 
ATOM     17  C   UNL     1       5.781   5.635   5.163  0.00  0.00    +0.000 A 
ATOM     18  C   UNL     1       6.139   5.690   6.506  0.00  0.00    +0.000 A 
ATOM     19  C   UNL     1       7.186   4.895   6.934  0.00  0.00    +0.000 A 
ATOM     20  N   UNL     1       7.894   4.090   6.116  0.00  0.00    +0.000 NA
ATOM     21  C   UNL     1       7.502   4.044   4.818  0.00  0.00    +0.000 A 
ENDBRANCH  13  16
ENDBRANCH  12  13
ENDBRANCH   4  12
TORSDOF 4
