REMARK  Name = 
REMARK  4 active torsions:
REMARK  status: ('A' for Active; 'I' for Inactive)
REMARK    1  A    between atoms: C_2  and  C_4
REMARK    2  A    between atoms: N_8  and  C_9
REMARK    3  A    between atoms: C_9  and  C_10
REMARK    4  A    between atoms: C_14  and  C_15
REMARK                            x       y       z     vdW  Elec       q    Type
REMARK                         _______ _______ _______ _____ _____    ______ ____
ROOT
ATOM      1  C   UNL     1       2.417   2.591   1.299  0.00  0.00    +0.000 A 
ATOM      2  C   UNL     1       2.092   2.908   2.611  0.00  0.00    +0.000 A 
ATOM      3  C   UNL     1       3.086   2.874   3.584  0.00  0.00    +0.000 A 
ATOM      4  C   UNL     1       4.383   2.497   3.243  0.00  0.00    +0.000 A 
ATOM      5  N   UNL     1       5.428   2.526   4.142  0.00  0.00    +0.000 N 
ATOM      6  N   UNL     1       4.706   2.171   1.977  0.00  0.00    +0.000 NA
ATOM      7  C   UNL     1       3.725   2.217   1.033  0.00  0.00    +0.000 A 
ATOM      8  H   UNL     1       6.248   2.119   3.698  0.00  0.00    +0.000 HD
ENDROOT
BRANCH   1  10
ATOM      9  N   UNL     1       0.374   3.496   0.358  0.00  0.00    +0.000 N 
ATOM     10  C   UNL     1       1.421   2.630   0.211  0.00  0.00    +0.000 C 
ATOM     11  O   UNL     1       1.544   1.942  -0.794  0.00  0.00    +0.000 OA
ATOM     12  H   UNL     1      -0.261   3.581  -0.425  0.00  0.00    +0.000 HD
ATOM     13  H   UNL     1       0.365   4.240   1.046  0.00  0.00    +0.000 HD
ENDBRANCH   1  10
BRANCH   5  14
ATOM     14  C   UNL     1       5.228   2.143   5.529  0.00  0.00    +0.000 C 
BRANCH  14  15
ATOM     15  C   UNL     1       6.242   2.811   6.420  0.00  0.00    +0.000 A 
ATOM     16  C   UNL     1       6.594   2.237   7.634  0.00  0.00    +0.000 A 
ATOM     17  N   UNL     1       7.417   2.818   8.530  0.00  0.00    +0.000 NA
ATOM     18  C   UNL     1       7.915   4.036   8.203  0.00  0.00    +0.000 A 
ATOM     19  C   UNL     1       7.634   4.733   7.025  0.00  0.00    +0.000 A 
ATOM     20  C   UNL     1       6.765   4.082   6.138  0.00  0.00    +0.000 A 
BRANCH  19  21
ATOM     21  C   UNL     1       8.194   6.066   6.733  0.00  0.00    +0.000 A 
ATOM     22  C   UNL     1       8.472   6.491   5.425  0.00  0.00    +0.000 A 
ATOM     23  C   UNL     1       8.995   7.761   5.182  0.00  0.00    +0.000 A 
ATOM     24  C   UNL     1       9.237   8.588   6.263  0.00  0.00    +0.000 A 
ATOM     25  N   UNL     1       8.990   8.234   7.540  0.00  0.00    +0.000 NA
ATOM     26  C   UNL     1       8.476   6.995   7.739  0.00  0.00    +0.000 A 
ENDBRANCH  19  21
ENDBRANCH  14  15
ENDBRANCH   5  14
TORSDOF 4
