REMARK  Name = 
REMARK  10 active torsions:
REMARK  status: ('A' for Active; 'I' for Inactive)
REMARK    1  A    between atoms: C_1  and  C_2
REMARK    2  A    between atoms: C_3  and  C_4
REMARK    3  A    between atoms: C_7  and  C_8
REMARK    4  A    between atoms: C_11  and  S_12
REMARK    5  A    between atoms: S_12  and  C_13
REMARK    6  A    between atoms: C_13  and  C_14
REMARK    7  A    between atoms: C_14  and  C_15
REMARK    8  A    between atoms: C_14  and  C_16
REMARK    9  A    between atoms: C_14  and  C_17
REMARK   10  A    between atoms: C_21  and  C_22
REMARK                            x       y       z     vdW  Elec       q    Type
REMARK                         _______ _______ _______ _____ _____    ______ ____
ROOT
ATOM      1  S   UNL     1       8.048   2.839   0.049  0.00  0.00    +0.000 S 
ENDROOT
BRANCH   1   6
ATOM      2  C   UNL     1       5.161   0.004  -0.055  0.00  0.00    +0.000 A 
ATOM      3  C   UNL     1       5.789  -1.217  -0.053  0.00  0.00    +0.000 A 
ATOM      4  N   UNL     1       7.111  -1.315  -0.020  0.00  0.00    +0.000 NA
ATOM      5  C   UNL     1       7.888  -0.153   0.028  0.00  0.00    +0.000 A 
ATOM      6  C   UNL     1       7.352   1.152   0.036  0.00  0.00    +0.000 A 
ATOM      7  C   UNL     1       5.942   1.184  -0.008  0.00  0.00    +0.000 A 
BRANCH   5   8
ATOM      8  C   UNL     1       9.320  -0.566   0.059  0.00  0.00    +0.000 C 
ATOM      9  N   UNL     1       9.511  -1.815  -0.501  0.00  0.00    +0.000 N 
ATOM     10  O   UNL     1      10.230   0.030   0.606  0.00  0.00    +0.000 OA
ATOM     11  H   UNL     1       8.655  -2.360  -0.615  0.00  0.00    +0.000 HD
ATOM     12  H   UNL     1      10.353  -2.317  -0.266  0.00  0.00    +0.000 HD
ENDBRANCH   5   8
BRANCH   2  15
ATOM     13  C   UNL     1       0.923   0.025  -0.197  0.00  0.00    +0.000 C 
ATOM     14  C   UNL     1       2.442   0.026  -0.152  0.00  0.00    +0.000 C 
ATOM     15  C   UNL     1       3.746   0.027  -0.112  0.00  0.00    +0.000 C 
ENDBRANCH   2  15
ENDBRANCH   1   6
BRANCH   1  16
ATOM     16  C   UNL     1       9.898   2.776   0.053  0.00  0.00    +0.000 C 
BRANCH  16  17
ATOM     17  C   UNL     1      10.735   4.125   0.053  0.00  0.00    +0.000 C 
ATOM     18  C   UNL     1      10.387   4.957  -1.203  0.00  0.00    +0.000 C 
ATOM     19  C   UNL     1      10.396   4.971   1.316  0.00  0.00    +0.000 C 
BRANCH  17  20
ATOM     20  C   UNL     1      12.264   3.785   0.098  0.00  0.00    +0.000 A 
ATOM     21  C   UNL     1      12.764   3.014   1.165  0.00  0.00    +0.000 A 
ATOM     22  C   UNL     1      14.129   2.732   1.291  0.00  0.00    +0.000 A 
ATOM     23  C   UNL     1      15.048   3.243   0.379  0.00  0.00    +0.000 A 
ATOM     24  C   UNL     1      14.599   4.009  -0.696  0.00  0.00    +0.000 A 
ATOM     25  C   UNL     1      13.209   4.228  -0.857  0.00  0.00    +0.000 A 
BRANCH  24  26
ATOM     26  C   UNL     1      15.545   4.665  -1.657  0.00  0.00    +0.000 C 
ATOM     27  N   UNL     1      16.885   4.550  -1.447  0.00  0.00    +0.000 N 
ATOM     28  O   UNL     1      15.134   5.327  -2.606  0.00  0.00    +0.000 OA
ATOM     29  H   UNL     1      17.330   4.097  -0.663  0.00  0.00    +0.000 HD
ATOM     30  H   UNL     1      17.489   5.081  -2.072  0.00  0.00    +0.000 HD
ENDBRANCH  24  26
ENDBRANCH  17  20
ENDBRANCH  16  17
ENDBRANCH   1  16
TORSDOF 7
