REMARK  Name = 
REMARK  7 active torsions:
REMARK  status: ('A' for Active; 'I' for Inactive)
REMARK    1  A    between atoms: C_2  and  C_3
REMARK    2  A    between atoms: C_6  and  N_7
REMARK    3  A    between atoms: N_7  and  C_8
REMARK    4  A    between atoms: C_8  and  C_9
REMARK    5  A    between atoms: C_9  and  C_12
REMARK    6  A    between atoms: C_16  and  N_17
REMARK    7  A    between atoms: N_17  and  C_18
REMARK                            x       y       z     vdW  Elec       q    Type
REMARK                         _______ _______ _______ _____ _____    ______ ____
ROOT
ATOM      1  C   UNL     1       5.957  -1.028   0.305  0.00  0.00    +0.000 C 
ATOM      2  F   UNL     1       6.371  -0.049   1.163  0.00  0.00    +0.000 F 
ATOM      3  F   UNL     1       4.633  -1.219   0.601  0.00  0.00    +0.000 F 
ENDROOT
BRANCH   1   4
ATOM      4  C   UNL     1       6.766  -2.298   0.479  0.00  0.00    +0.000 A 
ATOM      5  C   UNL     1       8.127  -2.246   0.805  0.00  0.00    +0.000 A 
ATOM      6  C   UNL     1       8.860  -3.423   0.960  0.00  0.00    +0.000 A 
ATOM      7  C   UNL     1       8.246  -4.666   0.782  0.00  0.00    +0.000 A 
ATOM      8  C   UNL     1       6.889  -4.743   0.465  0.00  0.00    +0.000 A 
ATOM      9  C   UNL     1       6.161  -3.554   0.314  0.00  0.00    +0.000 A 
BRANCH   8  10
ATOM     10  N   UNL     1       6.204  -5.961   0.276  0.00  0.00    +0.000 N 
ATOM     11  H   UNL     1       5.428  -6.014   0.937  0.00  0.00    +0.000 HD
BRANCH  10  12
ATOM     12  C   UNL     1       6.803  -7.246   0.032  0.00  0.00    +0.000 C 
ATOM     13  C   UNL     1       7.408  -7.401  -1.373  0.00  0.00    +0.000 C 
ATOM     14  O   UNL     1       6.593  -8.572  -1.639  0.00  0.00    +0.000 OA
ATOM     15  C   UNL     1       5.784  -8.284  -0.471  0.00  0.00    +0.000 C 
ENDBRANCH  10  12
ENDBRANCH   8  10
ENDBRANCH   1   4
BRANCH   1  16
ATOM     16  C   UNL     1       6.046  -0.491  -1.148  0.00  0.00    +0.000 C 
BRANCH  16  17
ATOM     17  N   UNL     1       5.277   0.753  -1.346  0.00  0.00    +0.000 N 
ATOM     18  H   UNL     1       4.426   0.811  -0.787  0.00  0.00    +0.000 HD
BRANCH  17  22
ATOM     19  C   UNL     1       5.109   2.840  -5.008  0.00  0.00    +0.000 A 
ATOM     20  C   UNL     1       5.851   1.663  -4.919  0.00  0.00    +0.000 A 
ATOM     21  C   UNL     1       5.899   0.947  -3.717  0.00  0.00    +0.000 A 
ATOM     22  C   UNL     1       5.186   1.368  -2.589  0.00  0.00    +0.000 A 
ATOM     23  C   UNL     1       4.452   2.560  -2.694  0.00  0.00    +0.000 A 
ATOM     24  C   UNL     1       4.408   3.291  -3.888  0.00  0.00    +0.000 A 
BRANCH  19  26
ATOM     25  N   UNL     1       5.064   4.194  -7.222  0.00  0.00    +0.000 NA
ATOM     26  C   UNL     1       5.083   3.589  -6.234  0.00  0.00    +0.000 C 
ENDBRANCH  19  26
ENDBRANCH  17  22
ENDBRANCH  16  17
ENDBRANCH   1  16
TORSDOF 7
