REMARK  Name = 
REMARK  6 active torsions:
REMARK  status: ('A' for Active; 'I' for Inactive)
REMARK    1  A    between atoms: C_1  and  C_2
REMARK    2  A    between atoms: C_2  and  C_3
REMARK    3  A    between atoms: C_7  and  C_8
REMARK    4  A    between atoms: C_8  and  C_9
REMARK    5  A    between atoms: C_9  and  N_10
REMARK    6  A    between atoms: C_14  and  C_15
REMARK                            x       y       z     vdW  Elec       q    Type
REMARK                         _______ _______ _______ _____ _____    ______ ____
ROOT
ATOM      1  C   UNL     1       3.252   3.578  -4.180  0.00  0.00    +0.000 C 
ENDROOT
BRANCH   1   2
ATOM      2  N   UNL     1       3.754   4.861  -4.690  0.00  0.00    +0.000 N 
ATOM      3  C   UNL     1       2.712   5.771  -4.965  0.00  0.00    +0.000 A 
ATOM      4  C   UNL     1       3.022   7.036  -5.455  0.00  0.00    +0.000 A 
ATOM      5  C   UNL     1       1.992   7.948  -5.714  0.00  0.00    +0.000 A 
ATOM      6  C   UNL     1       0.666   7.579  -5.476  0.00  0.00    +0.000 A 
ATOM      7  C   UNL     1       0.450   6.307  -4.982  0.00  0.00    +0.000 A 
ATOM      8  N   UNL     1       1.435   5.415  -4.721  0.00  0.00    +0.000 NA
ATOM      9  H   UNL     1       4.317   4.751  -5.532  0.00  0.00    +0.000 HD
BRANCH   6  10
ATOM     10  C   UNL     1      -0.429   8.537  -5.760  0.00  0.00    +0.000 C 
ATOM     11  N   UNL     1      -1.724   8.154  -5.539  0.00  0.00    +0.000 N 
ATOM     12  O   UNL     1      -0.191   9.660  -6.191  0.00  0.00    +0.000 OA
ATOM     13  H   UNL     1      -2.031   7.257  -5.186  0.00  0.00    +0.000 HD
ATOM     14  H   UNL     1      -2.438   8.838  -5.743  0.00  0.00    +0.000 HD
ENDBRANCH   6  10
ENDBRANCH   1   2
BRANCH   1  15
ATOM     15  C   UNL     1       4.395   2.599  -3.882  0.00  0.00    +0.000 C 
BRANCH  15  20
ATOM     16  C   UNL     1       2.971   0.019  -1.428  0.00  0.00    +0.000 A 
ATOM     17  C   UNL     1       2.665  -1.023  -2.326  0.00  0.00    +0.000 A 
ATOM     18  C   UNL     1       2.944  -0.917  -3.690  0.00  0.00    +0.000 A 
ATOM     19  C   UNL     1       3.527   0.242  -4.196  0.00  0.00    +0.000 A 
ATOM     20  C   UNL     1       3.856   1.293  -3.336  0.00  0.00    +0.000 A 
ATOM     21  C   UNL     1       3.594   1.162  -1.958  0.00  0.00    +0.000 A 
BRANCH  16  23
ATOM     22  C   UNL     1       0.994  -0.172   0.083  0.00  0.00    +0.000 C 
ATOM     23  C   UNL     1       2.532  -0.093   0.043  0.00  0.00    +0.000 C 
ATOM     24  C   UNL     1       3.187  -1.294   0.735  0.00  0.00    +0.000 C 
ATOM     25  C   UNL     1       4.412  -0.723   1.435  0.00  0.00    +0.000 C 
ATOM     26  O   UNL     1       4.326   0.705   1.384  0.00  0.00    +0.000 OA
ATOM     27  C   UNL     1       2.993   1.034   0.981  0.00  0.00    +0.000 C 
ENDBRANCH  16  23
ENDBRANCH  15  20
ENDBRANCH   1  15
TORSDOF 5
