REMARK  Name = 
REMARK  8 active torsions:
REMARK  status: ('A' for Active; 'I' for Inactive)
REMARK    1  A    between atoms: C_1  and  O_2
REMARK    2  A    between atoms: O_2  and  C_3
REMARK    3  A    between atoms: C_6  and  C_7
REMARK    4  A    between atoms: C_7  and  N_8
REMARK    5  A    between atoms: N_8  and  C_9
REMARK    6  A    between atoms: C_12  and  C_13
REMARK    7  A    between atoms: C_17  and  O_18
REMARK    8  A    between atoms: O_18  and  C_19
REMARK                            x       y       z     vdW  Elec       q    Type
REMARK                         _______ _______ _______ _____ _____    ______ ____
ROOT
ATOM      1  N   UNL     1       5.425   4.854   2.245  0.00  0.00    +0.000 N 
ATOM      2  H   UNL     1       4.996   5.760   2.380  0.00  0.00    +0.000 HD
ENDROOT
BRANCH   1   3
ATOM      3  C   UNL     1       6.661   4.964   1.581  0.00  0.00    +0.000 A 
ATOM      4  N   UNL     1       7.753   4.395   2.145  0.00  0.00    +0.000 NA
ATOM      5  C   UNL     1       8.940   4.536   1.514  0.00  0.00    +0.000 A 
ATOM      6  C   UNL     1       9.109   5.181   0.301  0.00  0.00    +0.000 A 
ATOM      7  C   UNL     1       7.967   5.738  -0.292  0.00  0.00    +0.000 A 
ATOM      8  C   UNL     1       6.728   5.655   0.351  0.00  0.00    +0.000 A 
BRANCH   6   9
ATOM      9  C   UNL     1      10.414   5.303  -0.388  0.00  0.00    +0.000 C 
ATOM     10  N   UNL     1      11.527   4.791   0.216  0.00  0.00    +0.000 N 
ATOM     11  O   UNL     1      10.506   5.857  -1.473  0.00  0.00    +0.000 OA
ATOM     12  H   UNL     1      11.568   4.328   1.109  0.00  0.00    +0.000 HD
ATOM     13  H   UNL     1      12.397   4.899  -0.292  0.00  0.00    +0.000 HD
ENDBRANCH   6   9
BRANCH   8  14
ATOM     14  O   UNL     1       5.557   6.178  -0.141  0.00  0.00    +0.000 OA
ATOM     15  C   UNL     1       5.615   6.839  -1.402  0.00  0.00    +0.000 C 
ENDBRANCH   8  14
ENDBRANCH   1   3
BRANCH   1  16
ATOM     16  C   UNL     1       5.123   3.746   3.162  0.00  0.00    +0.000 C 
ATOM     17  C   UNL     1       5.905   3.506   4.437  0.00  0.00    +0.000 C 
ATOM     18  C   UNL     1       4.543   4.111   4.521  0.00  0.00    +0.000 C 
BRANCH  16  22
ATOM     19  C   UNL     1       3.491   0.509   0.747  0.00  0.00    +0.000 A 
ATOM     20  C   UNL     1       4.846   0.524   1.074  0.00  0.00    +0.000 A 
ATOM     21  C   UNL     1       5.364   1.536   1.893  0.00  0.00    +0.000 A 
ATOM     22  C   UNL     1       4.542   2.550   2.417  0.00  0.00    +0.000 A 
ATOM     23  C   UNL     1       3.170   2.473   2.135  0.00  0.00    +0.000 A 
ATOM     24  C   UNL     1       2.655   1.471   1.314  0.00  0.00    +0.000 A 
ATOM     25  F   UNL     1       1.334   1.469   1.085  0.00  0.00    +0.000 F 
BRANCH  19  27
ATOM     26  C   UNL     1       2.033  -0.126  -0.990  0.00  0.00    +0.000 C 
ATOM     27  O   UNL     1       3.101  -0.483  -0.114  0.00  0.00    +0.000 OA
ENDBRANCH  19  27
ENDBRANCH  16  22
ENDBRANCH   1  16
TORSDOF 6
