REMARK  Name = 
REMARK  6 active torsions:
REMARK  status: ('A' for Active; 'I' for Inactive)
REMARK    1  A    between atoms: C_2  and  C_25
REMARK    2  A    between atoms: N_3  and  C_4
REMARK    3  A    between atoms: C_4  and  C_5
REMARK    4  A    between atoms: C_8  and  C_9
REMARK    5  A    between atoms: C_9  and  N_10
REMARK    6  A    between atoms: C_11  and  C_13
REMARK                            x       y       z     vdW  Elec       q    Type
REMARK                         _______ _______ _______ _____ _____    ______ ____
ROOT
ATOM      1  C   UNL     1       3.349   3.615   0.785  0.00  0.00    +0.000 A 
ATOM      2  C   UNL     1       2.861   4.915   0.674  0.00  0.00    +0.000 A 
ATOM      3  C   UNL     1       3.723   5.985   0.905  0.00  0.00    +0.000 A 
ATOM      4  C   UNL     1       5.053   5.741   1.249  0.00  0.00    +0.000 A 
ATOM      5  C   UNL     1       5.462   4.414   1.303  0.00  0.00    +0.000 A 
ATOM      6  N   UNL     1       4.648   3.354   1.081  0.00  0.00    +0.000 NA
ENDROOT
BRANCH   1   7
ATOM      7  C   UNL     1       2.429   2.434   0.574  0.00  0.00    +0.000 C 
BRANCH   7  10
ATOM      8  O   UNL     1       0.518   3.410  -1.279  0.00  0.00    +0.000 OA
ATOM      9  C   UNL     1       1.357   2.593  -1.646  0.00  0.00    +0.000 C 
ATOM     10  N   UNL     1       2.310   2.056  -0.816  0.00  0.00    +0.000 N 
ATOM     11  H   UNL     1       3.021   1.470  -1.239  0.00  0.00    +0.000 HD
BRANCH   9  12
ATOM     12  C   UNL     1       1.433   2.098  -3.024  0.00  0.00    +0.000 A 
ATOM     13  C   UNL     1       0.586   2.521  -4.034  0.00  0.00    +0.000 A 
ATOM     14  S   UNL     1       0.949   1.711  -5.498  0.00  0.00    +0.000 S 
ATOM     15  C   UNL     1       2.201   0.856  -4.693  0.00  0.00    +0.000 A 
ATOM     16  N   UNL     1       2.373   1.138  -3.420  0.00  0.00    +0.000 NA
ENDBRANCH   9  12
ENDBRANCH   7  10
ENDBRANCH   1   7
BRANCH   4  17
ATOM     17  C   UNL     1       6.012   6.864   1.516  0.00  0.00    +0.000 C 
BRANCH  17  18
ATOM     18  N   UNL     1       6.678   7.289   0.311  0.00  0.00    +0.000 N 
ATOM     19  C   UNL     1       7.695   8.209   0.354  0.00  0.00    +0.000 C 
ATOM     20  O   UNL     1       8.112   8.664   1.417  0.00  0.00    +0.000 OA
ATOM     21  H   UNL     1       6.203   7.116  -0.571  0.00  0.00    +0.000 HD
BRANCH  19  22
ATOM     22  C   UNL     1       8.308   8.579  -0.928  0.00  0.00    +0.000 A 
ATOM     23  C   UNL     1       9.596   9.098  -0.948  0.00  0.00    +0.000 A 
ATOM     24  S   UNL     1      10.179   9.428  -2.516  0.00  0.00    +0.000 S 
ATOM     25  C   UNL     1       8.711   8.936  -3.223  0.00  0.00    +0.000 A 
ATOM     26  N   UNL     1       8.531   8.993  -4.570  0.00  0.00    +0.000 NA
ATOM     27  C   UNL     1       7.360   8.622  -4.967  0.00  0.00    +0.000 A 
ATOM     28  N   UNL     1       6.355   8.194  -4.140  0.00  0.00    +0.000 N 
ATOM     29  C   UNL     1       6.501   8.089  -2.777  0.00  0.00    +0.000 A 
ATOM     30  O   UNL     1       5.597   7.661  -2.068  0.00  0.00    +0.000 OA
ATOM     31  C   UNL     1       7.796   8.508  -2.277  0.00  0.00    +0.000 A 
ATOM     32  H   UNL     1       5.462   7.909  -4.516  0.00  0.00    +0.000 HD
ENDBRANCH  19  22
ENDBRANCH  17  18
ENDBRANCH   4  17
TORSDOF 6
