REMARK  Name = 
REMARK  8 active torsions:
REMARK  status: ('A' for Active; 'I' for Inactive)
REMARK    1  A    between atoms: N_1  and  C_2
REMARK    2  A    between atoms: C_2  and  C_3
REMARK    3  A    between atoms: C_3  and  N_4
REMARK    4  A    between atoms: C_3  and  C_17
REMARK    5  A    between atoms: C_5  and  C_7
REMARK    6  A    between atoms: C_20  and  O_21
REMARK    7  A    between atoms: O_21  and  C_22
REMARK    8  A    between atoms: C_22  and  C_23
REMARK                            x       y       z     vdW  Elec       q    Type
REMARK                         _______ _______ _______ _____ _____    ______ ____
ROOT
ATOM      1  C   UNL     1       2.928   0.427  -1.185  0.00  0.00    +0.000 C 
ENDROOT
BRANCH   1   2
ATOM      2  C   UNL     1       4.450   0.559  -1.220  0.00  0.00    +0.000 A 
ATOM      3  C   UNL     1       5.227  -0.143  -2.152  0.00  0.00    +0.000 A 
ATOM      4  C   UNL     1       6.616   0.026  -2.183  0.00  0.00    +0.000 A 
ATOM      5  C   UNL     1       7.242   0.906  -1.297  0.00  0.00    +0.000 A 
ATOM      6  C   UNL     1       6.481   1.566  -0.334  0.00  0.00    +0.000 A 
ATOM      7  C   UNL     1       5.098   1.410  -0.309  0.00  0.00    +0.000 A 
BRANCH   5   8
ATOM      8  O   UNL     1       8.594   1.067  -1.457  0.00  0.00    +0.000 OA
BRANCH   8   9
ATOM      9  C   UNL     1       9.105   2.304  -0.939  0.00  0.00    +0.000 C 
BRANCH   9  10
ATOM     10  C   UNL     1      10.424   2.680  -1.569  0.00  0.00    +0.000 A 
ATOM     11  C   UNL     1      11.373   1.716  -1.896  0.00  0.00    +0.000 A 
ATOM     12  C   UNL     1      12.581   2.128  -2.453  0.00  0.00    +0.000 A 
ATOM     13  C   UNL     1      12.815   3.483  -2.655  0.00  0.00    +0.000 A 
ATOM     14  C   UNL     1      11.829   4.379  -2.283  0.00  0.00    +0.000 A 
ATOM     15  N   UNL     1      10.649   4.011  -1.743  0.00  0.00    +0.000 NA
ENDBRANCH   9  10
ENDBRANCH   8   9
ENDBRANCH   5   8
ENDBRANCH   1   2
BRANCH   1  16
ATOM     16  N   UNL     1       2.371   1.744  -1.477  0.00  0.00    +0.000 N 
ATOM     17  C   UNL     1       1.031   2.018  -1.550  0.00  0.00    +0.000 C 
ATOM     18  O   UNL     1       0.166   1.196  -1.271  0.00  0.00    +0.000 OA
ATOM     19  H   UNL     1       3.004   2.373  -1.961  0.00  0.00    +0.000 HD
BRANCH  17  20
ATOM     20  C   UNL     1       0.679   3.394  -1.925  0.00  0.00    +0.000 A 
ATOM     21  C   UNL     1      -0.523   3.942  -1.497  0.00  0.00    +0.000 A 
ATOM     22  S   UNL     1      -0.768   5.545  -2.027  0.00  0.00    +0.000 S 
ATOM     23  C   UNL     1       0.703   5.547  -2.882  0.00  0.00    +0.000 A 
ATOM     24  N   UNL     1       1.087   6.627  -3.613  0.00  0.00    +0.000 NA
ATOM     25  C   UNL     1       2.212   6.478  -4.231  0.00  0.00    +0.000 A 
ATOM     26  N   UNL     1       2.995   5.355  -4.172  0.00  0.00    +0.000 N 
ATOM     27  C   UNL     1       2.672   4.257  -3.412  0.00  0.00    +0.000 A 
ATOM     28  O   UNL     1       3.430   3.299  -3.312  0.00  0.00    +0.000 OA
ATOM     29  C   UNL     1       1.392   4.357  -2.729  0.00  0.00    +0.000 A 
ATOM     30  H   UNL     1       3.879   5.314  -4.657  0.00  0.00    +0.000 HD
ENDBRANCH  17  20
ENDBRANCH   1  16
BRANCH   1  31
ATOM     31  C   UNL     1       2.464  -0.142   0.192  0.00  0.00    +0.000 C 
BRANCH  31  32
ATOM     32  N   UNL     1       3.047  -1.449   0.536  0.00  0.00    +0.000 NA
ATOM     33  H   UNL     1       2.905  -1.617   1.531  0.00  0.00    +0.000 HD
ATOM     34  H   UNL     1       4.057  -1.419   0.396  0.00  0.00    +0.000 HD
ENDBRANCH  31  32
ENDBRANCH   1  31
TORSDOF 8
