REMARK  Name = 
REMARK  8 active torsions:
REMARK  status: ('A' for Active; 'I' for Inactive)
REMARK    1  A    between atoms: C_2  and  C_3
REMARK    2  A    between atoms: C_7  and  C_8
REMARK    3  A    between atoms: C_8  and  N_9
REMARK    4  A    between atoms: N_9  and  C_10
REMARK    5  A    between atoms: C_10  and  C_11
REMARK    6  A    between atoms: C_14  and  C_15
REMARK    7  A    between atoms: C_15  and  N_16
REMARK    8  A    between atoms: C_17  and  C_19
REMARK                            x       y       z     vdW  Elec       q    Type
REMARK                         _______ _______ _______ _____ _____    ______ ____
ROOT
ATOM      1  C   UNL     1      -5.847  -3.502  -0.029  0.00  0.00    +0.000 A 
ATOM      2  C   UNL     1      -6.676  -4.622  -0.039  0.00  0.00    +0.000 A 
ATOM      3  C   UNL     1      -8.056  -4.443  -0.114  0.00  0.00    +0.000 A 
ATOM      4  C   UNL     1      -8.582  -3.151  -0.178  0.00  0.00    +0.000 A 
ATOM      5  C   UNL     1      -7.679  -2.094  -0.134  0.00  0.00    +0.000 A 
ATOM      6  N   UNL     1      -6.335  -2.238  -0.074  0.00  0.00    +0.000 NA
ENDROOT
BRANCH   1   7
ATOM      7  C   UNL     1      -4.340  -3.676  -0.048  0.00  0.00    +0.000 C 
BRANCH   7   8
ATOM      8  N   UNL     1      -3.851  -4.473  -1.186  0.00  0.00    +0.000 NA
ATOM      9  H   UNL     1      -2.835  -4.546  -1.115  0.00  0.00    +0.000 HD
BRANCH   8  10
ATOM     10  C   UNL     1      -4.147  -3.803  -2.462  0.00  0.00    +0.000 C 
BRANCH  10  15
ATOM     11  C   UNL     1      -1.909  -5.102  -5.097  0.00  0.00    +0.000 A 
ATOM     12  C   UNL     1      -2.653  -6.080  -5.744  0.00  0.00    +0.000 A 
ATOM     13  C   UNL     1      -3.946  -6.325  -5.294  0.00  0.00    +0.000 A 
ATOM     14  C   UNL     1      -4.446  -5.587  -4.224  0.00  0.00    +0.000 A 
ATOM     15  C   UNL     1      -3.638  -4.613  -3.638  0.00  0.00    +0.000 A 
ATOM     16  N   UNL     1      -2.369  -4.372  -4.054  0.00  0.00    +0.000 NA
BRANCH  11  18
ATOM     17  N   UNL     1       0.509  -4.594  -5.900  0.00  0.00    +0.000 NA
ATOM     18  C   UNL     1      -0.570  -4.806  -5.523  0.00  0.00    +0.000 C 
ENDBRANCH  11  18
ENDBRANCH  10  15
ENDBRANCH   8  10
ENDBRANCH   7   8
ENDBRANCH   1   7
BRANCH   4  19
ATOM     19  C   UNL     1     -10.058  -2.896  -0.247  0.00  0.00    +0.000 C 
BRANCH  19  20
ATOM     20  N   UNL     1     -10.627  -2.782   1.071  0.00  0.00    +0.000 N 
ATOM     21  C   UNL     1     -11.972  -2.589   1.260  0.00  0.00    +0.000 C 
ATOM     22  O   UNL     1     -12.764  -2.543   0.322  0.00  0.00    +0.000 OA
ATOM     23  H   UNL     1      -9.990  -2.557   1.829  0.00  0.00    +0.000 HD
BRANCH  21  24
ATOM     24  C   UNL     1     -12.420  -2.504   2.655  0.00  0.00    +0.000 A 
ATOM     25  C   UNL     1     -13.722  -2.853   2.989  0.00  0.00    +0.000 A 
ATOM     26  S   UNL     1     -14.053  -2.733   4.659  0.00  0.00    +0.000 S 
ATOM     27  C   UNL     1     -12.482  -2.168   4.987  0.00  0.00    +0.000 A 
ATOM     28  N   UNL     1     -12.102  -1.842   6.252  0.00  0.00    +0.000 NA
ATOM     29  C   UNL     1     -10.890  -1.407   6.350  0.00  0.00    +0.000 A 
ATOM     30  N   UNL     1     -10.020  -1.274   5.301  0.00  0.00    +0.000 N 
ATOM     31  C   UNL     1     -10.348  -1.619   4.011  0.00  0.00    +0.000 A 
ATOM     32  O   UNL     1      -9.530  -1.540   3.102  0.00  0.00    +0.000 OA
ATOM     33  C   UNL     1     -11.708  -2.096   3.843  0.00  0.00    +0.000 A 
ATOM     34  H   UNL     1      -9.077  -0.943   5.445  0.00  0.00    +0.000 HD
ENDBRANCH  21  24
ENDBRANCH  19  20
ENDBRANCH   4  19
TORSDOF 8
