REMARK  Name = 
REMARK  9 active torsions:
REMARK  status: ('A' for Active; 'I' for Inactive)
REMARK    1  A    between atoms: C_1  and  O_2
REMARK    2  A    between atoms: O_2  and  C_3
REMARK    3  A    between atoms: C_10  and  C_11
REMARK    4  A    between atoms: N_13  and  C_14
REMARK    5  A    between atoms: C_14  and  C_15
REMARK    6  A    between atoms: C_18  and  C_19
REMARK    7  A    between atoms: C_19  and  N_20
REMARK    8  A    between atoms: N_20  and  C_21
REMARK    9  A    between atoms: C_21  and  C_22
REMARK                            x       y       z     vdW  Elec       q    Type
REMARK                         _______ _______ _______ _____ _____    ______ ____
ROOT
ATOM      1  C   UNL     1       2.755   2.927  -1.551  0.00  0.00    +0.000 C 
ENDROOT
BRANCH   1   2
ATOM      2  C   UNL     1       1.524   2.316  -2.180  0.00  0.00    +0.000 A 
ATOM      3  C   UNL     1       1.496   0.962  -2.540  0.00  0.00    +0.000 A 
ATOM      4  C   UNL     1       0.335   0.385  -3.071  0.00  0.00    +0.000 A 
ATOM      5  C   UNL     1      -0.824   1.150  -3.270  0.00  0.00    +0.000 A 
ATOM      6  C   UNL     1      -0.775   2.518  -2.968  0.00  0.00    +0.000 A 
ATOM      7  C   UNL     1       0.386   3.094  -2.433  0.00  0.00    +0.000 A 
BRANCH   5   8
ATOM      8  C   UNL     1      -2.096   0.513  -3.797  0.00  0.00    +0.000 C 
BRANCH   8   9
ATOM      9  N   UNL     1      -2.550  -0.562  -2.916  0.00  0.00    +0.000 NA
ATOM     10  H   UNL     1      -2.702  -0.186  -1.981  0.00  0.00    +0.000 HD
BRANCH   9  11
ATOM     11  C   UNL     1      -3.794  -1.177  -3.381  0.00  0.00    +0.000 C 
BRANCH  11  12
ATOM     12  C   UNL     1      -4.230  -2.288  -2.449  0.00  0.00    +0.000 A 
ATOM     13  C   UNL     1      -5.483  -2.259  -1.819  0.00  0.00    +0.000 A 
ATOM     14  C   UNL     1      -5.881  -3.305  -0.981  0.00  0.00    +0.000 A 
ATOM     15  C   UNL     1      -5.034  -4.390  -0.763  0.00  0.00    +0.000 A 
ATOM     16  C   UNL     1      -3.784  -4.428  -1.376  0.00  0.00    +0.000 A 
ATOM     17  C   UNL     1      -3.387  -3.386  -2.216  0.00  0.00    +0.000 A 
ENDBRANCH  11  12
ENDBRANCH   9  11
ENDBRANCH   8   9
ENDBRANCH   5   8
ENDBRANCH   1   2
BRANCH   1  20
ATOM     18  C   UNL     1       4.836   4.067  -2.244  0.00  0.00    +0.000 C 
ATOM     19  O   UNL     1       5.225   4.167  -1.085  0.00  0.00    +0.000 OA
ATOM     20  N   UNL     1       3.636   3.482  -2.547  0.00  0.00    +0.000 N 
ATOM     21  H   UNL     1       3.324   3.439  -3.506  0.00  0.00    +0.000 HD
BRANCH  18  29
ATOM     22  C   UNL     1       4.403   4.026  -5.658  0.00  0.00    +0.000 A 
ATOM     23  N   UNL     1       4.473   4.158  -6.997  0.00  0.00    +0.000 NA
ATOM     24  C   UNL     1       5.544   4.768  -7.510  0.00  0.00    +0.000 A 
ATOM     25  N   UNL     1       6.576   5.274  -6.840  0.00  0.00    +0.000 NA
ATOM     26  C   UNL     1       6.459   5.133  -5.508  0.00  0.00    +0.000 A 
ATOM     27  S   UNL     1       7.686   5.718  -4.492  0.00  0.00    +0.000 S 
ATOM     28  C   UNL     1       6.855   5.195  -3.103  0.00  0.00    +0.000 A 
ATOM     29  C   UNL     1       5.642   4.572  -3.374  0.00  0.00    +0.000 A 
ATOM     30  C   UNL     1       5.410   4.533  -4.818  0.00  0.00    +0.000 A 
BRANCH  22  32
ATOM     31  C   UNL     1       2.681   2.489  -6.029  0.00  0.00    +0.000 C 
ATOM     32  O   UNL     1       3.290   3.410  -5.129  0.00  0.00    +0.000 OA
ENDBRANCH  22  32
ENDBRANCH  18  29
ENDBRANCH   1  20
TORSDOF 8
