REMARK  Name = 
REMARK  7 active torsions:
REMARK  status: ('A' for Active; 'I' for Inactive)
REMARK    1  A    between atoms: N_1  and  C_2
REMARK    2  A    between atoms: C_2  and  C_3
REMARK    3  A    between atoms: C_6  and  O_7
REMARK    4  A    between atoms: O_7  and  C_8
REMARK    5  A    between atoms: C_8  and  C_9
REMARK    6  A    between atoms: C_11  and  C_12
REMARK    7  A    between atoms: C_17  and  C_18
REMARK                            x       y       z     vdW  Elec       q    Type
REMARK                         _______ _______ _______ _____ _____    ______ ____
ROOT
ATOM      1  C   UNL     1       3.833   7.256   2.670  0.00  0.00    +0.000 A 
ATOM      2  C   UNL     1       4.288   8.450   2.088  0.00  0.00    +0.000 A 
ATOM      3  C   UNL     1       4.426   9.623   2.843  0.00  0.00    +0.000 A 
ATOM      4  C   UNL     1       4.101   9.587   4.207  0.00  0.00    +0.000 A 
ATOM      5  C   UNL     1       3.631   8.407   4.810  0.00  0.00    +0.000 A 
ATOM      6  C   UNL     1       3.505   7.245   4.030  0.00  0.00    +0.000 A 
ENDROOT
BRANCH   3   7
ATOM      7  C   UNL     1       4.897  10.904   2.196  0.00  0.00    +0.000 C 
ATOM      8  F   UNL     1       5.120  10.788   0.857  0.00  0.00    +0.000 F 
ATOM      9  F   UNL     1       3.993  11.913   2.335  0.00  0.00    +0.000 F 
ATOM     10  F   UNL     1       6.061  11.364   2.730  0.00  0.00    +0.000 F 
ENDBRANCH   3   7
BRANCH   5  11
ATOM     11  C   UNL     1       3.233   8.378   6.267  0.00  0.00    +0.000 C 
ATOM     12  F   UNL     1       3.349   9.588   6.883  0.00  0.00    +0.000 F 
ATOM     13  F   UNL     1       1.937   7.997   6.441  0.00  0.00    +0.000 F 
ATOM     14  F   UNL     1       3.982   7.511   7.000  0.00  0.00    +0.000 F 
ENDBRANCH   5  11
BRANCH   1  15
ATOM     15  C   UNL     1       3.611   6.054   1.782  0.00  0.00    +0.000 C 
BRANCH  15  16
ATOM     16  O   UNL     1       3.949   4.827   2.430  0.00  0.00    +0.000 OA
BRANCH  16  20
ATOM     17  C   UNL     1       4.940   1.679  -0.142  0.00  0.00    +0.000 A 
ATOM     18  C   UNL     1       5.360   1.706   1.197  0.00  0.00    +0.000 A 
ATOM     19  C   UNL     1       4.980   2.753   2.043  0.00  0.00    +0.000 A 
ATOM     20  C   UNL     1       4.185   3.791   1.560  0.00  0.00    +0.000 A 
ATOM     21  C   UNL     1       3.707   3.732   0.248  0.00  0.00    +0.000 A 
ATOM     22  C   UNL     1       4.093   2.694  -0.599  0.00  0.00    +0.000 A 
BRANCH  17  23
ATOM     23  C   UNL     1       5.406   0.600  -1.083  0.00  0.00    +0.000 C 
BRANCH  23  24
ATOM     24  N   UNL     1       4.967  -0.719  -0.647  0.00  0.00    +0.000 NA
ATOM     25  H   UNL     1       5.179  -1.396  -1.377  0.00  0.00    +0.000 HD
ATOM     26  H   UNL     1       3.954  -0.709  -0.548  0.00  0.00    +0.000 HD
ENDBRANCH  23  24
ENDBRANCH  17  23
ENDBRANCH  16  20
ENDBRANCH  15  16
ENDBRANCH   1  15
TORSDOF 7
