REMARK  Name = 
REMARK  6 active torsions:
REMARK  status: ('A' for Active; 'I' for Inactive)
REMARK    1  A    between atoms: C_1  and  O_2
REMARK    2  A    between atoms: O_2  and  C_3
REMARK    3  A    between atoms: C_5  and  C_6
REMARK    4  A    between atoms: N_11  and  C_12
REMARK    5  A    between atoms: C_12  and  C_13
REMARK    6  A    between atoms: C_15  and  C_16
REMARK                            x       y       z     vdW  Elec       q    Type
REMARK                         _______ _______ _______ _____ _____    ______ ____
ROOT
ATOM      1  C   UNL     1       3.392  -0.637   1.044  0.00  0.00    +0.000 A 
ATOM      2  C   UNL     1       2.677  -1.473   1.854  0.00  0.00    +0.000 A 
ATOM      3  C   UNL     1       3.196  -1.610   3.115  0.00  0.00    +0.000 A 
ATOM      4  N   UNL     1       4.315  -0.982   3.562  0.00  0.00    +0.000 NA
ATOM      5  C   UNL     1       4.917  -0.172   2.689  0.00  0.00    +0.000 A 
ATOM      6  N   UNL     1       6.028   0.570   3.056  0.00  0.00    +0.000 N 
ATOM      7  N   UNL     1       4.501   0.016   1.434  0.00  0.00    +0.000 NA
ATOM      8  H   UNL     1       6.455   0.883   2.190  0.00  0.00    +0.000 HD
ENDROOT
BRANCH   3   9
ATOM      9  C   UNL     1       2.501  -2.502   4.094  0.00  0.00    +0.000 C 
ATOM     10  N   UNL     1       3.093  -2.602   5.324  0.00  0.00    +0.000 N 
ATOM     11  O   UNL     1       1.473  -3.107   3.822  0.00  0.00    +0.000 OA
ATOM     12  H   UNL     1       3.928  -2.066   5.529  0.00  0.00    +0.000 HD
ATOM     13  H   UNL     1       2.661  -3.169   6.038  0.00  0.00    +0.000 HD
ENDBRANCH   3   9
BRANCH   1  15
ATOM     14  C   UNL     1       3.727   0.393  -1.031  0.00  0.00    +0.000 C 
ATOM     15  O   UNL     1       2.916  -0.473  -0.242  0.00  0.00    +0.000 OA
ENDBRANCH   1  15
BRANCH   6  16
ATOM     16  C   UNL     1       6.938  -0.091   3.968  0.00  0.00    +0.000 C 
BRANCH  16  17
ATOM     17  C   UNL     1       8.139   0.795   4.189  0.00  0.00    +0.000 A 
ATOM     18  C   UNL     1       8.091   1.853   5.116  0.00  0.00    +0.000 A 
ATOM     19  C   UNL     1       9.186   2.718   5.327  0.00  0.00    +0.000 A 
ATOM     20  C   UNL     1      10.345   2.482   4.562  0.00  0.00    +0.000 A 
ATOM     21  C   UNL     1      10.408   1.435   3.638  0.00  0.00    +0.000 A 
ATOM     22  C   UNL     1       9.308   0.607   3.456  0.00  0.00    +0.000 A 
ATOM     23  F   UNL     1       9.382  -0.380   2.552  0.00  0.00    +0.000 F 
BRANCH  19  24
ATOM     24  C   UNL     1       9.115   3.828   6.311  0.00  0.00    +0.000 A 
ATOM     25  C   UNL     1       7.906   4.503   6.572  0.00  0.00    +0.000 A 
ATOM     26  C   UNL     1       7.826   5.536   7.511  0.00  0.00    +0.000 A 
ATOM     27  C   UNL     1       8.963   5.936   8.204  0.00  0.00    +0.000 A 
ATOM     28  C   UNL     1      10.172   5.295   7.957  0.00  0.00    +0.000 A 
ATOM     29 CL   UNL     1      11.587   5.793   8.802  0.00  0.00    +0.000 Cl
ATOM     30  C   UNL     1      10.250   4.251   7.030  0.00  0.00    +0.000 A 
ENDBRANCH  19  24
ENDBRANCH  16  17
ENDBRANCH   6  16
TORSDOF 5
