REMARK  Name = 
REMARK  10 active torsions:
REMARK  status: ('A' for Active; 'I' for Inactive)
REMARK    1  A    between atoms: C_1  and  O_2
REMARK    2  A    between atoms: O_2  and  C_3
REMARK    3  A    between atoms: C_5  and  N_6
REMARK    4  A    between atoms: N_6  and  C_7
REMARK    5  A    between atoms: C_7  and  C_8
REMARK    6  A    between atoms: C_8  and  C_9
REMARK    7  A    between atoms: C_8  and  C_10
REMARK    8  A    between atoms: C_14  and  C_15
REMARK    9  A    between atoms: C_15  and  N_16
REMARK   10  A    between atoms: C_20  and  C_21
REMARK                            x       y       z     vdW  Elec       q    Type
REMARK                         _______ _______ _______ _____ _____    ______ ____
ROOT
ATOM      1  N   UNL     1       0.165   3.376   5.548  0.00  0.00    +0.000 N 
ATOM      2  H   UNL     1      -0.416   2.657   5.973  0.00  0.00    +0.000 HD
ENDROOT
BRANCH   1   5
ATOM      3  C   UNL     1      -0.887   6.425   3.780  0.00  0.00    +0.000 A 
ATOM      4  C   UNL     1      -0.098   5.558   4.540  0.00  0.00    +0.000 A 
ATOM      5  C   UNL     1      -0.617   4.361   5.001  0.00  0.00    +0.000 A 
ATOM      6  N   UNL     1      -1.910   4.047   4.823  0.00  0.00    +0.000 NA
ATOM      7  C   UNL     1      -2.689   4.930   4.148  0.00  0.00    +0.000 A 
ATOM      8  C   UNL     1      -2.237   6.127   3.597  0.00  0.00    +0.000 A 
BRANCH   8   9
ATOM      9  C   UNL     1      -3.222   6.947   2.850  0.00  0.00    +0.000 C 
ATOM     10  N   UNL     1      -2.819   8.161   2.373  0.00  0.00    +0.000 N 
ATOM     11  O   UNL     1      -4.367   6.562   2.665  0.00  0.00    +0.000 OA
ATOM     12  H   UNL     1      -1.875   8.501   2.510  0.00  0.00    +0.000 HD
ATOM     13  H   UNL     1      -3.485   8.724   1.859  0.00  0.00    +0.000 HD
ENDBRANCH   8   9
BRANCH   3  15
ATOM     14  C   UNL     1       1.019   7.399   2.799  0.00  0.00    +0.000 C 
ATOM     15  O   UNL     1      -0.346   7.552   3.205  0.00  0.00    +0.000 OA
ENDBRANCH   3  15
ENDBRANCH   1   5
BRANCH   1  16
ATOM     16  C   UNL     1       1.481   3.600   6.121  0.00  0.00    +0.000 C 
BRANCH  16  17
ATOM     17  C   UNL     1       2.262   2.280   6.282  0.00  0.00    +0.000 C 
ATOM     18  C   UNL     1       2.682   1.720   4.912  0.00  0.00    +0.000 C 
BRANCH  17  19
ATOM     19  C   UNL     1       1.528   1.277   7.156  0.00  0.00    +0.000 A 
ATOM     20  C   UNL     1       1.613   1.376   8.551  0.00  0.00    +0.000 A 
ATOM     21  C   UNL     1       0.992   0.429   9.367  0.00  0.00    +0.000 A 
ATOM     22  C   UNL     1       0.278  -0.625   8.797  0.00  0.00    +0.000 A 
ATOM     23  C   UNL     1       0.148  -0.725   7.407  0.00  0.00    +0.000 A 
ATOM     24  C   UNL     1       0.760   0.242   6.601  0.00  0.00    +0.000 A 
BRANCH  23  25
ATOM     25  C   UNL     1      -0.592  -1.873   6.775  0.00  0.00    +0.000 C 
BRANCH  25  26
ATOM     26  N   UNL     1       0.150  -3.118   6.928  0.00  0.00    +0.000 NA
ATOM     27  H   UNL     1       1.071  -3.000   6.508  0.00  0.00    +0.000 HD
ATOM     28  H   UNL     1      -0.318  -3.850   6.398  0.00  0.00    +0.000 HD
ENDBRANCH  25  26
ENDBRANCH  23  25
ENDBRANCH  17  19
ENDBRANCH  16  17
ENDBRANCH   1  16
TORSDOF 8
