REMARK  Name = 
REMARK  7 active torsions:
REMARK  status: ('A' for Active; 'I' for Inactive)
REMARK    1  A    between atoms: C_1  and  C_2
REMARK    2  A    between atoms: C_2  and  N_3
REMARK    3  A    between atoms: C_2  and  C_16
REMARK    4  A    between atoms: C_4  and  C_6
REMARK    5  A    between atoms: C_19  and  C_20
REMARK    6  A    between atoms: C_20  and  N_21
REMARK    7  A    between atoms: C_22  and  C_24
REMARK                            x       y       z     vdW  Elec       q    Type
REMARK                         _______ _______ _______ _____ _____    ______ ____
ROOT
ATOM      1  C   UNL     1      12.346   0.904   6.412  0.00  0.00    +0.000 A 
ATOM      2  C   UNL     1      11.044   0.867   5.898  0.00  0.00    +0.000 A 
ATOM      3  C   UNL     1       9.951   1.246   6.688  0.00  0.00    +0.000 A 
ATOM      4  C   UNL     1      10.136   1.669   8.011  0.00  0.00    +0.000 A 
ATOM      5  C   UNL     1      11.433   1.684   8.537  0.00  0.00    +0.000 A 
ATOM      6  C   UNL     1      12.524   1.323   7.743  0.00  0.00    +0.000 A 
ENDROOT
BRANCH   1   8
ATOM      7  C   UNL     1      14.479   1.644   5.316  0.00  0.00    +0.000 C 
ATOM      8  C   UNL     1      13.534   0.468   5.558  0.00  0.00    +0.000 C 
BRANCH   8   9
ATOM      9  N   UNL     1      14.211  -0.629   6.220  0.00  0.00    +0.000 N 
ATOM     10  C   UNL     1      15.282  -1.303   5.698  0.00  0.00    +0.000 C 
ATOM     11  O   UNL     1      15.813  -1.018   4.630  0.00  0.00    +0.000 OA
ATOM     12  H   UNL     1      13.649  -1.109   6.914  0.00  0.00    +0.000 HD
BRANCH  10  13
ATOM     13  C   UNL     1      15.814  -2.370   6.551  0.00  0.00    +0.000 A 
ATOM     14  C   UNL     1      17.159  -2.700   6.526  0.00  0.00    +0.000 A 
ATOM     15  S   UNL     1      17.572  -3.942   7.623  0.00  0.00    +0.000 S 
ATOM     16  C   UNL     1      15.960  -4.097   8.139  0.00  0.00    +0.000 A 
ATOM     17  N   UNL     1      15.607  -5.014   9.079  0.00  0.00    +0.000 NA
ATOM     18  C   UNL     1      14.338  -5.030   9.359  0.00  0.00    +0.000 A 
ATOM     19  N   UNL     1      13.404  -4.210   8.791  0.00  0.00    +0.000 N 
ATOM     20  C   UNL     1      13.714  -3.262   7.856  0.00  0.00    +0.000 A 
ATOM     21  O   UNL     1      12.847  -2.517   7.403  0.00  0.00    +0.000 OA
ATOM     22  C   UNL     1      15.123  -3.208   7.497  0.00  0.00    +0.000 A 
ATOM     23  H   UNL     1      12.433  -4.255   9.063  0.00  0.00    +0.000 HD
ENDBRANCH  10  13
ENDBRANCH   8   9
ENDBRANCH   1   8
BRANCH   4  24
ATOM     24  C   UNL     1       8.971   2.124   8.847  0.00  0.00    +0.000 C 
BRANCH  24  25
ATOM     25  N   UNL     1       8.368   1.051   9.601  0.00  0.00    +0.000 N 
ATOM     26  C   UNL     1       7.305   1.327  10.437  0.00  0.00    +0.000 C 
ATOM     27  O   UNL     1       6.900   2.475  10.605  0.00  0.00    +0.000 OA
ATOM     28  H   UNL     1       8.641   0.097   9.418  0.00  0.00    +0.000 HD
BRANCH  26  29
ATOM     29  C   UNL     1       6.701   0.095  11.159  0.00  0.00    +0.000 C 
ATOM     30  C   UNL     1       5.512   0.479  12.051  0.00  0.00    +0.000 C 
ATOM     31  C   UNL     1       4.297   0.913  11.230  0.00  0.00    +0.000 C 
ATOM     32  C   UNL     1       3.963  -0.120  10.160  0.00  0.00    +0.000 C 
ATOM     33  C   UNL     1       5.190  -0.534   9.350  0.00  0.00    +0.000 C 
ATOM     34  N   UNL     1       6.293  -0.967  10.209  0.00  0.00    +0.000 NA
ATOM     35  H   UNL     1       7.078  -1.269   9.642  0.00  0.00    +0.000 HD
ENDBRANCH  26  29
ENDBRANCH  24  25
ENDBRANCH   4  24
TORSDOF 6
