REMARK  Name = 
REMARK  7 active torsions:
REMARK  status: ('A' for Active; 'I' for Inactive)
REMARK    1  A    between atoms: C_1  and  S_2
REMARK    2  A    between atoms: S_2  and  C_5
REMARK    3  A    between atoms: N_9  and  C_10
REMARK    4  A    between atoms: C_10  and  C_11
REMARK    5  A    between atoms: C_11  and  C_14
REMARK    6  A    between atoms: C_18  and  C_19
REMARK    7  A    between atoms: C_19  and  C_20
REMARK                            x       y       z     vdW  Elec       q    Type
REMARK                         _______ _______ _______ _____ _____    ______ ____
ROOT
ATOM      1  C   UNL     1       4.936  -3.149   7.382  0.00  0.00    +0.000 C 
ATOM      2  F   UNL     1       3.795  -3.866   7.600  0.00  0.00    +0.000 F 
ATOM      3  F   UNL     1       5.907  -4.069   7.119  0.00  0.00    +0.000 F 
ENDROOT
BRANCH   1   4
ATOM      4  C   UNL     1       5.295  -2.245   8.551  0.00  0.00    +0.000 A 
ATOM      5  C   UNL     1       6.637  -1.930   8.813  0.00  0.00    +0.000 A 
ATOM      6  C   UNL     1       6.960  -0.982   9.781  0.00  0.00    +0.000 A 
ATOM      7  C   UNL     1       5.949  -0.344  10.499  0.00  0.00    +0.000 A 
ATOM      8  C   UNL     1       4.603  -0.662  10.274  0.00  0.00    +0.000 A 
ATOM      9  C   UNL     1       4.286  -1.619   9.300  0.00  0.00    +0.000 A 
BRANCH   8  10
ATOM     10  C   UNL     1       3.511   0.033  11.053  0.00  0.00    +0.000 C 
BRANCH  10  11
ATOM     11  C   UNL     1       2.933   1.199  10.259  0.00  0.00    +0.000 C 
ATOM     12  C   UNL     1       3.814   2.445  10.049  0.00  0.00    +0.000 C 
ATOM     13  N   UNL     1       2.747   3.296  10.589  0.00  0.00    +0.000 NA
ATOM     14  C   UNL     1       2.003   2.125  11.065  0.00  0.00    +0.000 C 
ATOM     15  H   UNL     1       2.254   3.840   9.881  0.00  0.00    +0.000 HD
ENDBRANCH  10  11
ENDBRANCH   8  10
ENDBRANCH   1   4
BRANCH   1  16
ATOM     16  C   UNL     1       4.729  -2.244   6.140  0.00  0.00    +0.000 C 
BRANCH  16  21
ATOM     17  C   UNL     1       3.618  -0.861   1.428  0.00  0.00    +0.000 A 
ATOM     18  C   UNL     1       4.496  -0.279   2.329  0.00  0.00    +0.000 A 
ATOM     19  C   UNL     1       4.796  -0.966   3.501  0.00  0.00    +0.000 A 
ATOM     20  C   UNL     1       4.195  -2.197   3.759  0.00  0.00    +0.000 A 
ATOM     21  N   UNL     1       4.493  -2.962   4.880  0.00  0.00    +0.000 N 
ATOM     22  N   UNL     1       3.321  -2.747   2.892  0.00  0.00    +0.000 NA
ATOM     23  C   UNL     1       3.039  -2.073   1.748  0.00  0.00    +0.000 A 
ATOM     24  H   UNL     1       3.829  -3.734   4.930  0.00  0.00    +0.000 HD
BRANCH  17  26
ATOM     25  C   UNL     1       4.477  -0.685  -1.198  0.00  0.00    +0.000 C 
ATOM     26  S   UNL     1       3.237  -0.068  -0.095  0.00  0.00    +0.000 S 
ATOM     27  O   UNL     1       3.465   1.352   0.090  0.00  0.00    +0.000 OA
ATOM     28  O   UNL     1       1.947  -0.561  -0.532  0.00  0.00    +0.000 OA
ENDBRANCH  17  26
ENDBRANCH  16  21
ENDBRANCH   1  16
TORSDOF 6
