REMARK  Name = 
REMARK  5 active torsions:
REMARK  status: ('A' for Active; 'I' for Inactive)
REMARK    1  A    between atoms: N_1  and  C_2
REMARK    2  A    between atoms: C_2  and  C_3
REMARK    3  A    between atoms: C_3  and  C_4
REMARK    4  A    between atoms: C_7  and  C_8
REMARK    5  A    between atoms: C_8  and  N_9
REMARK                            x       y       z     vdW  Elec       q    Type
REMARK                         _______ _______ _______ _____ _____    ______ ____
ROOT
ATOM      1  C   UNL     1       4.412   0.288   1.348  0.00  0.00    +0.000 C 
ATOM      2  C   UNL     1       4.834   1.569   0.630  0.00  0.00    +0.000 C 
ATOM      3  C   UNL     1       6.347   1.695   0.526  0.00  0.00    +0.000 C 
ATOM      4  C   UNL     1       7.043   0.484  -0.110  0.00  0.00    +0.000 C 
ATOM      5  C   UNL     1       6.586  -0.812   0.590  0.00  0.00    +0.000 C 
ATOM      6  C   UNL     1       5.060  -0.934   0.677  0.00  0.00    +0.000 C 
ENDROOT
BRANCH   1   7
ATOM      7  C   UNL     1       2.863   0.223   1.396  0.00  0.00    +0.000 C 
BRANCH   7   8
ATOM      8  C   UNL     1       2.313  -1.014   2.096  0.00  0.00    +0.000 C 
BRANCH   8   9
ATOM      9  N   UNL     1       2.762  -1.085   3.479  0.00  0.00    +0.000 NA
ATOM     10  H   UNL     1       2.385  -1.926   3.913  0.00  0.00    +0.000 HD
ATOM     11  H   UNL     1       2.384  -0.297   4.007  0.00  0.00    +0.000 HD
ENDBRANCH   8   9
ENDBRANCH   7   8
ENDBRANCH   1   7
BRANCH   4  12
ATOM     12  C   UNL     1       8.588   0.631  -0.033  0.00  0.00    +0.000 C 
BRANCH  12  13
ATOM     13  N   UNL     1       9.160   1.796  -0.708  0.00  0.00    +0.000 N 
ATOM     14  C   UNL     1       9.565   1.777  -2.020  0.00  0.00    +0.000 A 
ATOM     15  C   UNL     1      10.019   3.030  -2.355  0.00  0.00    +0.000 A 
ATOM     16  C   UNL     1       9.889   3.856  -1.212  0.00  0.00    +0.000 A 
ATOM     17  C   UNL     1      10.134   5.223  -0.978  0.00  0.00    +0.000 A 
ATOM     18  C   UNL     1       9.875   5.751   0.283  0.00  0.00    +0.000 A 
ATOM     19  F   UNL     1      10.032   7.064   0.489  0.00  0.00    +0.000 F 
ATOM     20  C   UNL     1       9.456   4.944   1.333  0.00  0.00    +0.000 A 
ATOM     21  C   UNL     1       9.264   3.567   1.135  0.00  0.00    +0.000 A 
ATOM     22  C   UNL     1       9.420   3.048  -0.159  0.00  0.00    +0.000 A 
ENDBRANCH  12  13
ENDBRANCH   4  12
TORSDOF 5
