REMARK  Name = 
REMARK  7 active torsions:
REMARK  status: ('A' for Active; 'I' for Inactive)
REMARK    1  A    between atoms: C_1  and  O_2
REMARK    2  A    between atoms: O_2  and  C_3
REMARK    3  A    between atoms: C_5  and  C_6
REMARK    4  A    between atoms: C_11  and  O_12
REMARK    5  A    between atoms: O_12  and  C_13
REMARK    6  A    between atoms: C_13  and  C_14
REMARK    7  A    between atoms: C_18  and  C_19
REMARK                            x       y       z     vdW  Elec       q    Type
REMARK                         _______ _______ _______ _____ _____    ______ ____
ROOT
ATOM      1  C   UNL     1       3.095  -0.797  -0.910  0.00  0.00    +0.000 A 
ATOM      2  C   UNL     1       2.750  -0.831  -2.271  0.00  0.00    +0.000 A 
ATOM      3  C   UNL     1       3.459  -1.643  -3.163  0.00  0.00    +0.000 A 
ATOM      4  C   UNL     1       4.537  -2.396  -2.696  0.00  0.00    +0.000 A 
ATOM      5  C   UNL     1       4.863  -2.387  -1.340  0.00  0.00    +0.000 A 
ATOM      6  C   UNL     1       4.114  -1.634  -0.425  0.00  0.00    +0.000 A 
ENDROOT
BRANCH   3   7
ATOM      7  C   UNL     1       3.136  -1.721  -4.611  0.00  0.00    +0.000 C 
ATOM      8  N   UNL     1       1.853  -1.442  -4.989  0.00  0.00    +0.000 N 
ATOM      9  O   UNL     1       3.973  -2.066  -5.435  0.00  0.00    +0.000 OA
ATOM     10  H   UNL     1       1.087  -1.377  -4.335  0.00  0.00    +0.000 HD
ATOM     11  H   UNL     1       1.630  -1.600  -5.964  0.00  0.00    +0.000 HD
ENDBRANCH   3   7
BRANCH   1  13
ATOM     12  C   UNL     1       2.973   0.699   0.922  0.00  0.00    +0.000 C 
ATOM     13  O   UNL     1       2.316   0.054  -0.166  0.00  0.00    +0.000 OA
ENDBRANCH   1  13
BRANCH   6  14
ATOM     14  O   UNL     1       4.322  -1.699   0.933  0.00  0.00    +0.000 OA
BRANCH  14  15
ATOM     15  C   UNL     1       4.946  -2.900   1.393  0.00  0.00    +0.000 C 
BRANCH  15  16
ATOM     16  C   UNL     1       4.713  -3.141   2.867  0.00  0.00    +0.000 A 
ATOM     17  C   UNL     1       4.582  -4.464   3.323  0.00  0.00    +0.000 A 
ATOM     18  C   UNL     1       4.451  -4.742   4.683  0.00  0.00    +0.000 A 
ATOM     19  C   UNL     1       4.461  -3.701   5.608  0.00  0.00    +0.000 A 
ATOM     20  C   UNL     1       4.595  -2.378   5.173  0.00  0.00    +0.000 A 
ATOM     21  C   UNL     1       4.720  -2.099   3.805  0.00  0.00    +0.000 A 
BRANCH  20  22
ATOM     22  C   UNL     1       4.625  -1.311   6.131  0.00  0.00    +0.000 C 
ATOM     23  N   UNL     1       4.654  -0.453   6.912  0.00  0.00    +0.000 NA
ENDBRANCH  20  22
ENDBRANCH  15  16
ENDBRANCH  14  15
ENDBRANCH   6  14
TORSDOF 6
