REMARK  Name = 
REMARK  4 active torsions:
REMARK  status: ('A' for Active; 'I' for Inactive)
REMARK    1  A    between atoms: C_2  and  C_3
REMARK    2  A    between atoms: C_6  and  N_7
REMARK    3  A    between atoms: N_7  and  C_8
REMARK    4  A    between atoms: C_8  and  C_9
REMARK                            x       y       z     vdW  Elec       q    Type
REMARK                         _______ _______ _______ _____ _____    ______ ____
ROOT
ATOM      1  N   UNL     1       3.434  -0.219  -0.180  0.00  0.00    +0.000 N 
ATOM      2  H   UNL     1       2.523  -0.575   0.088  0.00  0.00    +0.000 HD
ENDROOT
BRANCH   1   6
ATOM      3  C   UNL     1       3.287   1.836  -3.870  0.00  0.00    +0.000 A 
ATOM      4  C   UNL     1       2.117   1.581  -3.156  0.00  0.00    +0.000 A 
ATOM      5  C   UNL     1       2.176   0.921  -1.922  0.00  0.00    +0.000 A 
ATOM      6  C   UNL     1       3.402   0.480  -1.409  0.00  0.00    +0.000 A 
ATOM      7  C   UNL     1       4.574   0.806  -2.108  0.00  0.00    +0.000 A 
ATOM      8  C   UNL     1       4.518   1.457  -3.338  0.00  0.00    +0.000 A 
BRANCH   3  10
ATOM      9  N   UNL     1       3.177   2.973  -6.195  0.00  0.00    +0.000 NA
ATOM     10  C   UNL     1       3.225   2.469  -5.152  0.00  0.00    +0.000 C 
ENDBRANCH   3  10
ENDBRANCH   1   6
BRANCH   1  11
ATOM     11  C   UNL     1       4.581  -1.109   0.135  0.00  0.00    +0.000 C 
ATOM     12  C   UNL     1       4.860  -2.225  -0.862  0.00  0.00    +0.000 C 
ATOM     13  C   UNL     1       4.335  -2.579   0.485  0.00  0.00    +0.000 C 
BRANCH  11  14
ATOM     14  C   UNL     1       5.633  -0.498   1.066  0.00  0.00    +0.000 A 
ATOM     15  C   UNL     1       5.229   0.198   2.223  0.00  0.00    +0.000 A 
ATOM     16  C   UNL     1       6.135   0.543   3.228  0.00  0.00    +0.000 A 
ATOM     17  C   UNL     1       7.478   0.212   3.090  0.00  0.00    +0.000 A 
ATOM     18  C   UNL     1       7.922  -0.399   1.922  0.00  0.00    +0.000 A 
ATOM     19  C   UNL     1       7.011  -0.730   0.914  0.00  0.00    +0.000 A 
ENDBRANCH  11  14
ENDBRANCH   1  11
TORSDOF 4
