REMARK  Name = 
REMARK  7 active torsions:
REMARK  status: ('A' for Active; 'I' for Inactive)
REMARK    1  A    between atoms: C_2  and  C_19
REMARK    2  A    between atoms: N_3  and  C_4
REMARK    3  A    between atoms: C_4  and  C_5
REMARK    4  A    between atoms: C_8  and  C_9
REMARK    5  A    between atoms: C_9  and  N_10
REMARK    6  A    between atoms: N_10  and  C_11
REMARK    7  A    between atoms: C_11  and  C_12
REMARK                            x       y       z     vdW  Elec       q    Type
REMARK                         _______ _______ _______ _____ _____    ______ ____
ROOT
ATOM      1  C   UNL     1       2.024   2.046   1.703  0.00  0.00    +0.000 C 
ENDROOT
BRANCH   1   2
ATOM      2  C   UNL     1       2.944   2.861   2.586  0.00  0.00    +0.000 A 
ATOM      3  N   UNL     1       2.819   4.200   2.550  0.00  0.00    +0.000 NA
ATOM      4  C   UNL     1       3.688   4.904   3.301  0.00  0.00    +0.000 A 
ATOM      5  C   UNL     1       4.677   4.336   4.074  0.00  0.00    +0.000 A 
ATOM      6  C   UNL     1       4.746   2.960   4.007  0.00  0.00    +0.000 A 
ATOM      7  N   UNL     1       3.914   2.204   3.260  0.00  0.00    +0.000 NA
BRANCH   5   8
ATOM      8  C   UNL     1       5.596   5.157   4.922  0.00  0.00    +0.000 C 
BRANCH   8   9
ATOM      9  N   UNL     1       4.839   5.916   5.921  0.00  0.00    +0.000 NA
ATOM     10  H   UNL     1       4.388   5.240   6.546  0.00  0.00    +0.000 HD
BRANCH   9  11
ATOM     11  C   UNL     1       5.708   6.741   6.767  0.00  0.00    +0.000 C 
BRANCH  11  12
ATOM     12  C   UNL     1       6.643   5.922   7.600  0.00  0.00    +0.000 A 
ATOM     13  N   UNL     1       6.454   4.684   8.020  0.00  0.00    +0.000 NA
ATOM     14  C   UNL     1       7.600   4.339   8.686  0.00  0.00    +0.000 A 
ATOM     15  C   UNL     1       8.496   5.379   8.680  0.00  0.00    +0.000 A 
ATOM     16  N   UNL     1       7.875   6.384   7.992  0.00  0.00    +0.000 N 
ATOM     17  H   UNL     1       8.257   7.297   7.788  0.00  0.00    +0.000 HD
ENDBRANCH  11  12
ENDBRANCH   9  11
ENDBRANCH   8   9
ENDBRANCH   5   8
ENDBRANCH   1   2
BRANCH   1  20
ATOM     18  O   UNL     1       0.804   0.867  -0.598  0.00  0.00    +0.000 OA
ATOM     19  C   UNL     1       1.998   1.124  -0.589  0.00  0.00    +0.000 C 
ATOM     20  N   UNL     1       2.652   1.769   0.432  0.00  0.00    +0.000 N 
ATOM     21  H   UNL     1       3.658   1.691   0.475  0.00  0.00    +0.000 HD
BRANCH  19  22
ATOM     22  C   UNL     1       2.955   0.579  -1.541  0.00  0.00    +0.000 A 
ATOM     23  C   UNL     1       2.887  -0.721  -2.007  0.00  0.00    +0.000 A 
ATOM     24  S   UNL     1       4.431  -1.277  -2.513  0.00  0.00    +0.000 S 
ATOM     25  C   UNL     1       5.126   0.265  -2.278  0.00  0.00    +0.000 A 
ATOM     26  N   UNL     1       6.463   0.489  -2.365  0.00  0.00    +0.000 NA
ATOM     27  C   UNL     1       6.802   1.730  -2.216  0.00  0.00    +0.000 A 
ATOM     28  N   UNL     1       5.922   2.771  -2.047  0.00  0.00    +0.000 N 
ATOM     29  C   UNL     1       4.560   2.599  -1.956  0.00  0.00    +0.000 A 
ATOM     30  O   UNL     1       3.787   3.538  -1.876  0.00  0.00    +0.000 OA
ATOM     31  C   UNL     1       4.162   1.203  -1.984  0.00  0.00    +0.000 A 
ATOM     32  H   UNL     1       6.246   3.730  -2.041  0.00  0.00    +0.000 HD
ENDBRANCH  19  22
ENDBRANCH   1  20
TORSDOF 7
