REMARK  Name = 
REMARK  8 active torsions:
REMARK  status: ('A' for Active; 'I' for Inactive)
REMARK    1  A    between atoms: C_1  and  C_2
REMARK    2  A    between atoms: C_5  and  C_6
REMARK    3  A    between atoms: C_6  and  N_7
REMARK    4  A    between atoms: N_7  and  C_8
REMARK    5  A    between atoms: C_8  and  C_9
REMARK    6  A    between atoms: C_12  and  C_13
REMARK    7  A    between atoms: C_13  and  N_14
REMARK    8  A    between atoms: C_15  and  C_17
REMARK                            x       y       z     vdW  Elec       q    Type
REMARK                         _______ _______ _______ _____ _____    ______ ____
ROOT
ATOM      1  C   UNL     1      -5.641   3.012  -0.052  0.00  0.00    +0.000 A 
ATOM      2  C   UNL     1      -4.700   4.041   0.026  0.00  0.00    +0.000 A 
ATOM      3  C   UNL     1      -5.124   5.366   0.009  0.00  0.00    +0.000 A 
ATOM      4  C   UNL     1      -6.485   5.636  -0.098  0.00  0.00    +0.000 A 
ATOM      5  N   UNL     1      -7.422   4.655  -0.141  0.00  0.00    +0.000 NA
ATOM      6  C   UNL     1      -6.982   3.376  -0.113  0.00  0.00    +0.000 A 
ENDROOT
BRANCH   1   7
ATOM      7  C   UNL     1      -5.227   1.568  -0.115  0.00  0.00    +0.000 C 
BRANCH   7   8
ATOM      8  N   UNL     1      -5.709   0.886  -1.318  0.00  0.00    +0.000 NA
ATOM      9  H   UNL     1      -5.417  -0.093  -1.284  0.00  0.00    +0.000 HD
BRANCH   8  10
ATOM     10  C   UNL     1      -5.137   1.455  -2.548  0.00  0.00    +0.000 C 
BRANCH  10  15
ATOM     11  C   UNL     1      -6.925  -1.498  -7.167  0.00  0.00    +0.000 C 
ATOM     12  C   UNL     1      -6.502  -0.697  -5.976  0.00  0.00    +0.000 A 
ATOM     13  C   UNL     1      -7.251   0.383  -5.512  0.00  0.00    +0.000 A 
ATOM     14  C   UNL     1      -6.813   1.095  -4.398  0.00  0.00    +0.000 A 
ATOM     15  C   UNL     1      -5.625   0.714  -3.777  0.00  0.00    +0.000 A 
ATOM     16  N   UNL     1      -4.883  -0.339  -4.204  0.00  0.00    +0.000 NA
ATOM     17  C   UNL     1      -5.335  -1.010  -5.289  0.00  0.00    +0.000 A 
ENDBRANCH  10  15
ENDBRANCH   8  10
ENDBRANCH   7   8
ENDBRANCH   1   7
BRANCH   4  18
ATOM     18  C   UNL     1      -6.976   7.061  -0.157  0.00  0.00    +0.000 C 
BRANCH  18  19
ATOM     19  N   UNL     1      -7.287   7.585   1.152  0.00  0.00    +0.000 N 
ATOM     20  C   UNL     1      -6.407   8.347   1.869  0.00  0.00    +0.000 C 
ATOM     21  O   UNL     1      -5.294   8.642   1.440  0.00  0.00    +0.000 OA
ATOM     22  H   UNL     1      -8.075   7.148   1.618  0.00  0.00    +0.000 HD
BRANCH  20  23
ATOM     23  C   UNL     1      -6.894   8.863   3.154  0.00  0.00    +0.000 A 
ATOM     24  C   UNL     1      -6.331  10.014   3.691  0.00  0.00    +0.000 A 
ATOM     25  S   UNL     1      -7.041  10.500   5.163  0.00  0.00    +0.000 S 
ATOM     26  C   UNL     1      -8.095   9.163   5.160  0.00  0.00    +0.000 A 
ATOM     27  N   UNL     1      -8.970   8.961   6.180  0.00  0.00    +0.000 NA
ATOM     28  C   UNL     1      -9.687   7.892   6.064  0.00  0.00    +0.000 A 
ATOM     29  N   UNL     1      -9.613   7.014   5.014  0.00  0.00    +0.000 N 
ATOM     30  C   UNL     1      -8.788   7.209   3.935  0.00  0.00    +0.000 A 
ATOM     31  O   UNL     1      -8.821   6.459   2.967  0.00  0.00    +0.000 OA
ATOM     32  C   UNL     1      -7.929   8.374   4.035  0.00  0.00    +0.000 A 
ATOM     33  H   UNL     1     -10.220   6.207   4.969  0.00  0.00    +0.000 HD
ENDBRANCH  20  23
ENDBRANCH  18  19
ENDBRANCH   4  18
TORSDOF 7
