REMARK  Name = 
REMARK  5 active torsions:
REMARK  status: ('A' for Active; 'I' for Inactive)
REMARK    1  A    between atoms: C_2  and  C_4
REMARK    2  A    between atoms: C_7  and  N_8
REMARK    3  A    between atoms: N_8  and  C_9
REMARK    4  A    between atoms: C_9  and  C_10
REMARK    5  A    between atoms: C_10  and  C_11
REMARK                            x       y       z     vdW  Elec       q    Type
REMARK                         _______ _______ _______ _____ _____    ______ ____
ROOT
ATOM      1  C   UNL     1       3.129   1.134  -0.835  0.00  0.00    +0.000 A 
ATOM      2  C   UNL     1       2.420   2.011  -1.659  0.00  0.00    +0.000 A 
ATOM      3  C   UNL     1       3.109   2.949  -2.431  0.00  0.00    +0.000 A 
ATOM      4  C   UNL     1       4.503   3.057  -2.357  0.00  0.00    +0.000 A 
ATOM      5  C   UNL     1       5.205   2.142  -1.565  0.00  0.00    +0.000 A 
ATOM      6  C   UNL     1       4.521   1.204  -0.786  0.00  0.00    +0.000 A 
ENDROOT
BRANCH   1   8
ATOM      7  N   UNL     1       1.221  -0.307  -0.450  0.00  0.00    +0.000 N 
ATOM      8  C   UNL     1       2.427   0.138   0.007  0.00  0.00    +0.000 C 
ATOM      9  O   UNL     1       2.918  -0.297   1.041  0.00  0.00    +0.000 OA
ATOM     10  H   UNL     1       0.799  -1.067   0.075  0.00  0.00    +0.000 HD
ATOM     11  H   UNL     1       0.915  -0.174  -1.402  0.00  0.00    +0.000 HD
ENDBRANCH   1   8
BRANCH   4  12
ATOM     12  N   UNL     1       5.243   4.006  -3.074  0.00  0.00    +0.000 N 
ATOM     13  H   UNL     1       5.615   3.578  -3.923  0.00  0.00    +0.000 HD
BRANCH  12  14
ATOM     14  C   UNL     1       4.610   5.294  -3.345  0.00  0.00    +0.000 C 
BRANCH  14  15
ATOM     15  C   UNL     1       4.311   6.048  -2.041  0.00  0.00    +0.000 C 
BRANCH  15  16
ATOM     16  C   UNL     1       3.653   7.373  -2.371  0.00  0.00    +0.000 C 
ATOM     17  C   UNL     1       3.211   8.285  -1.217  0.00  0.00    +0.000 C 
ATOM     18  O   UNL     1       1.942   8.531  -1.889  0.00  0.00    +0.000 OA
ATOM     19  C   UNL     1       2.149   7.332  -2.684  0.00  0.00    +0.000 C 
ENDBRANCH  15  16
ENDBRANCH  14  15
ENDBRANCH  12  14
ENDBRANCH   4  12
TORSDOF 5
