REMARK  Name = 
REMARK  4 active torsions:
REMARK  status: ('A' for Active; 'I' for Inactive)
REMARK    1  A    between atoms: C_2  and  C_4
REMARK    2  A    between atoms: C_7  and  O_8
REMARK    3  A    between atoms: O_8  and  C_9
REMARK    4  A    between atoms: C_9  and  C_10
REMARK                            x       y       z     vdW  Elec       q    Type
REMARK                         _______ _______ _______ _____ _____    ______ ____
ROOT
ATOM      1  C   UNL     1       2.945  -1.116   1.247  0.00  0.00    +0.000 A 
ATOM      2  C   UNL     1       3.598  -0.091   1.939  0.00  0.00    +0.000 A 
ATOM      3  C   UNL     1       4.513  -0.422   2.943  0.00  0.00    +0.000 A 
ATOM      4  C   UNL     1       4.724  -1.763   3.231  0.00  0.00    +0.000 A 
ATOM      5  N   UNL     1       4.115  -2.771   2.571  0.00  0.00    +0.000 NA
ATOM      6  C   UNL     1       3.238  -2.425   1.598  0.00  0.00    +0.000 A 
ENDROOT
BRANCH   1   8
ATOM      7  N   UNL     1       2.000   0.293  -0.500  0.00  0.00    +0.000 N 
ATOM      8  C   UNL     1       1.938  -0.883   0.192  0.00  0.00    +0.000 C 
ATOM      9  O   UNL     1       1.094  -1.727  -0.077  0.00  0.00    +0.000 OA
ATOM     10  H   UNL     1       1.366   0.383  -1.284  0.00  0.00    +0.000 HD
ATOM     11  H   UNL     1       2.812   0.896  -0.486  0.00  0.00    +0.000 HD
ENDBRANCH   1   8
BRANCH   4  12
ATOM     12  O   UNL     1       5.618  -2.061   4.240  0.00  0.00    +0.000 OA
BRANCH  12  13
ATOM     13  C   UNL     1       5.395  -3.369   4.770  0.00  0.00    +0.000 C 
BRANCH  13  14
ATOM     14  C   UNL     1       6.432  -3.665   5.827  0.00  0.00    +0.000 A 
ATOM     15  C   UNL     1       7.589  -4.392   5.502  0.00  0.00    +0.000 A 
ATOM     16  C   UNL     1       8.543  -4.690   6.479  0.00  0.00    +0.000 A 
ATOM     17  C   UNL     1       8.353  -4.256   7.789  0.00  0.00    +0.000 A 
ATOM     18  C   UNL     1       7.214  -3.526   8.110  0.00  0.00    +0.000 A 
ATOM     19  F   UNL     1       7.032  -3.111   9.370  0.00  0.00    +0.000 F 
ATOM     20  C   UNL     1       6.257  -3.224   7.145  0.00  0.00    +0.000 A 
ENDBRANCH  13  14
ENDBRANCH  12  13
ENDBRANCH   4  12
TORSDOF 4
