REMARK  Name = 
REMARK  6 active torsions:
REMARK  status: ('A' for Active; 'I' for Inactive)
REMARK    1  A    between atoms: C_1  and  O_2
REMARK    2  A    between atoms: O_2  and  C_3
REMARK    3  A    between atoms: C_6  and  C_7
REMARK    4  A    between atoms: C_11  and  C_12
REMARK    5  A    between atoms: C_12  and  N_13
REMARK    6  A    between atoms: C_17  and  C_18
REMARK                            x       y       z     vdW  Elec       q    Type
REMARK                         _______ _______ _______ _____ _____    ______ ____
ROOT
ATOM      1  C   UNL     1       6.584  -7.622  -0.434  0.00  0.00    +0.000 C 
ATOM      2  C   UNL     1       6.119  -8.976  -0.956  0.00  0.00    +0.000 C 
ATOM      3  C   UNL     1       5.341  -8.297   0.118  0.00  0.00    +0.000 C 
ENDROOT
BRANCH   1   4
ATOM      4  N   UNL     1       7.797  -7.543   0.404  0.00  0.00    +0.000 N 
ATOM      5  C   UNL     1       7.888  -6.776   1.578  0.00  0.00    +0.000 A 
ATOM      6  C   UNL     1       6.841  -6.625   2.485  0.00  0.00    +0.000 A 
ATOM      7  C   UNL     1       7.043  -5.937   3.686  0.00  0.00    +0.000 A 
ATOM      8  C   UNL     1       8.294  -5.397   3.957  0.00  0.00    +0.000 A 
ATOM      9  C   UNL     1       9.289  -5.592   3.012  0.00  0.00    +0.000 A 
ATOM     10  N   UNL     1       9.110  -6.262   1.840  0.00  0.00    +0.000 NA
ATOM     11  H   UNL     1       8.672  -7.373  -0.089  0.00  0.00    +0.000 HD
BRANCH   8  12
ATOM     12  C   UNL     1       8.602  -4.676   5.209  0.00  0.00    +0.000 C 
ATOM     13  N   UNL     1       7.567  -4.072   5.864  0.00  0.00    +0.000 N 
ATOM     14  O   UNL     1       9.750  -4.600   5.637  0.00  0.00    +0.000 OA
ATOM     15  H   UNL     1       6.650  -3.949   5.459  0.00  0.00    +0.000 HD
ATOM     16  H   UNL     1       7.800  -3.515   6.677  0.00  0.00    +0.000 HD
ENDBRANCH   8  12
ENDBRANCH   1   4
BRANCH   1  21
ATOM     17  C   UNL     1       5.490  -4.271  -1.991  0.00  0.00    +0.000 A 
ATOM     18  C   UNL     1       6.148  -4.312  -3.229  0.00  0.00    +0.000 A 
ATOM     19  C   UNL     1       6.944  -5.403  -3.575  0.00  0.00    +0.000 A 
ATOM     20  C   UNL     1       7.092  -6.471  -2.684  0.00  0.00    +0.000 A 
ATOM     21  C   UNL     1       6.452  -6.472  -1.434  0.00  0.00    +0.000 A 
ATOM     22  C   UNL     1       5.667  -5.358  -1.117  0.00  0.00    +0.000 A 
BRANCH  17  26
ATOM     23  C   UNL     1       3.043  -1.094  -0.626  0.00  0.00    +0.000 A 
ATOM     24  C   UNL     1       3.110  -1.334  -1.994  0.00  0.00    +0.000 A 
ATOM     25  C   UNL     1       3.908  -2.372  -2.475  0.00  0.00    +0.000 A 
ATOM     26  C   UNL     1       4.634  -3.147  -1.576  0.00  0.00    +0.000 A 
ATOM     27  N   UNL     1       4.564  -2.932  -0.236  0.00  0.00    +0.000 NA
ATOM     28  C   UNL     1       3.784  -1.922   0.203  0.00  0.00    +0.000 A 
BRANCH  23  30
ATOM     29  C   UNL     1       1.635   0.782  -0.880  0.00  0.00    +0.000 C 
ATOM     30  O   UNL     1       2.310  -0.115  -0.011  0.00  0.00    +0.000 OA
ENDBRANCH  23  30
ENDBRANCH  17  26
ENDBRANCH   1  21
TORSDOF 5
