REMARK  Name = 
REMARK  5 active torsions:
REMARK  status: ('A' for Active; 'I' for Inactive)
REMARK    1  A    between atoms: C_2  and  C_4
REMARK    2  A    between atoms: N_8  and  C_9
REMARK    3  A    between atoms: C_9  and  C_10
REMARK    4  A    between atoms: C_13  and  C_14
REMARK    5  A    between atoms: C_14  and  O_15
REMARK                            x       y       z     vdW  Elec       q    Type
REMARK                         _______ _______ _______ _____ _____    ______ ____
ROOT
ATOM      1  C   UNL     1       3.638   3.430  -1.179  0.00  0.00    +0.000 A 
ATOM      2  C   UNL     1       2.841   3.858  -0.120  0.00  0.00    +0.000 A 
ATOM      3  C   UNL     1       3.403   3.993   1.147  0.00  0.00    +0.000 A 
ATOM      4  C   UNL     1       4.751   3.728   1.334  0.00  0.00    +0.000 A 
ATOM      5  N   UNL     1       5.371   3.759   2.587  0.00  0.00    +0.000 N 
ATOM      6  N   UNL     1       5.535   3.314   0.312  0.00  0.00    +0.000 NA
ATOM      7  C   UNL     1       4.963   3.158  -0.913  0.00  0.00    +0.000 A 
ATOM      8  H   UNL     1       6.358   3.588   2.412  0.00  0.00    +0.000 HD
ENDROOT
BRANCH   1  10
ATOM      9  N   UNL     1       1.977   3.942  -2.867  0.00  0.00    +0.000 N 
ATOM     10  C   UNL     1       3.067   3.194  -2.525  0.00  0.00    +0.000 C 
ATOM     11  O   UNL     1       3.555   2.378  -3.289  0.00  0.00    +0.000 OA
ATOM     12  H   UNL     1       1.579   3.797  -3.786  0.00  0.00    +0.000 HD
ATOM     13  H   UNL     1       1.680   4.758  -2.351  0.00  0.00    +0.000 HD
ENDBRANCH   1  10
BRANCH   5  14
ATOM     14  C   UNL     1       5.061   4.693   3.683  0.00  0.00    +0.000 C 
ATOM     15  C   UNL     1       4.945   4.010   5.044  0.00  0.00    +0.000 C 
ATOM     16  C   UNL     1       3.764   4.719   4.477  0.00  0.00    +0.000 C 
BRANCH  14  17
ATOM     17  C   UNL     1       5.787   6.030   3.603  0.00  0.00    +0.000 A 
ATOM     18  C   UNL     1       5.214   7.115   2.919  0.00  0.00    +0.000 A 
ATOM     19  C   UNL     1       5.790   8.387   2.957  0.00  0.00    +0.000 A 
ATOM     20  C   UNL     1       6.977   8.605   3.664  0.00  0.00    +0.000 A 
ATOM     21  C   UNL     1       7.585   7.521   4.309  0.00  0.00    +0.000 A 
ATOM     22  C   UNL     1       7.000   6.255   4.273  0.00  0.00    +0.000 A 
BRANCH  20  23
ATOM     23  C   UNL     1       7.609   9.968   3.723  0.00  0.00    +0.000 C 
BRANCH  23  24
ATOM     24  O   UNL     1       7.732  10.406   5.070  0.00  0.00    +0.000 OA
ATOM     25  H   UNL     1       6.860  10.290   5.484  0.00  0.00    +0.000 HD
ENDBRANCH  23  24
ENDBRANCH  20  23
ENDBRANCH  14  17
ENDBRANCH   5  14
TORSDOF 5
