REMARK  Name = 
REMARK  6 active torsions:
REMARK  status: ('A' for Active; 'I' for Inactive)
REMARK    1  A    between atoms: C_2  and  C_26
REMARK    2  A    between atoms: N_3  and  C_4
REMARK    3  A    between atoms: C_4  and  C_5
REMARK    4  A    between atoms: C_8  and  C_9
REMARK    5  A    between atoms: C_9  and  N_10
REMARK    6  A    between atoms: C_11  and  C_13
REMARK                            x       y       z     vdW  Elec       q    Type
REMARK                         _______ _______ _______ _____ _____    ______ ____
ROOT
ATOM      1  C   UNL     1       3.289   3.423  -1.262  0.00  0.00    +0.000 A 
ATOM      2  C   UNL     1       2.960   4.780  -1.140  0.00  0.00    +0.000 A 
ATOM      3  C   UNL     1       3.854   5.775  -1.558  0.00  0.00    +0.000 A 
ATOM      4  C   UNL     1       5.101   5.436  -2.099  0.00  0.00    +0.000 A 
ATOM      5  C   UNL     1       5.411   4.080  -2.237  0.00  0.00    +0.000 A 
ATOM      6  F   UNL     1       6.586   3.717  -2.764  0.00  0.00    +0.000 F 
ATOM      7  C   UNL     1       4.524   3.083  -1.832  0.00  0.00    +0.000 A 
ENDROOT
BRANCH   1   8
ATOM      8  C   UNL     1       2.329   2.358  -0.801  0.00  0.00    +0.000 C 
BRANCH   8  11
ATOM      9  O   UNL     1       0.343   0.388  -0.556  0.00  0.00    +0.000 OA
ATOM     10  C   UNL     1       0.481   0.971  -1.626  0.00  0.00    +0.000 C 
ATOM     11  N   UNL     1       1.424   1.949  -1.843  0.00  0.00    +0.000 N 
ATOM     12  H   UNL     1       1.430   2.398  -2.753  0.00  0.00    +0.000 HD
BRANCH  10  13
ATOM     13  C   UNL     1      -0.352   0.689  -2.801  0.00  0.00    +0.000 A 
ATOM     14  C   UNL     1      -1.389  -0.229  -2.807  0.00  0.00    +0.000 A 
ATOM     15  S   UNL     1      -2.119  -0.296  -4.356  0.00  0.00    +0.000 S 
ATOM     16  C   UNL     1      -1.015   0.893  -4.907  0.00  0.00    +0.000 A 
ATOM     17  N   UNL     1      -0.149   1.343  -4.023  0.00  0.00    +0.000 NA
ENDBRANCH  10  13
ENDBRANCH   8  11
ENDBRANCH   1   8
BRANCH   4  18
ATOM     18  C   UNL     1       6.057   6.504  -2.555  0.00  0.00    +0.000 C 
BRANCH  18  19
ATOM     19  N   UNL     1       5.835   6.857  -3.936  0.00  0.00    +0.000 N 
ATOM     20  C   UNL     1       6.610   7.789  -4.578  0.00  0.00    +0.000 C 
ATOM     21  O   UNL     1       7.544   8.361  -4.022  0.00  0.00    +0.000 OA
ATOM     22  H   UNL     1       4.957   6.571  -4.353  0.00  0.00    +0.000 HD
BRANCH  20  23
ATOM     23  C   UNL     1       6.300   8.021  -5.994  0.00  0.00    +0.000 A 
ATOM     24  C   UNL     1       7.289   8.479  -6.855  0.00  0.00    +0.000 A 
ATOM     25  S   UNL     1       6.769   8.632  -8.473  0.00  0.00    +0.000 S 
ATOM     26  C   UNL     1       5.189   8.145  -8.070  0.00  0.00    +0.000 A 
ATOM     27  N   UNL     1       4.214   8.078  -9.015  0.00  0.00    +0.000 NA
ATOM     28  C   UNL     1       3.058   7.720  -8.563  0.00  0.00    +0.000 A 
ATOM     29  N   UNL     1       2.790   7.419  -7.253  0.00  0.00    +0.000 N 
ATOM     30  C   UNL     1       3.750   7.446  -6.270  0.00  0.00    +0.000 A 
ATOM     31  O   UNL     1       3.487   7.128  -5.115  0.00  0.00    +0.000 OA
ATOM     32  C   UNL     1       5.066   7.853  -6.723  0.00  0.00    +0.000 A 
ATOM     33  H   UNL     1       1.866   7.137  -6.965  0.00  0.00    +0.000 HD
ENDBRANCH  20  23
ENDBRANCH  18  19
ENDBRANCH   4  18
TORSDOF 6
