REMARK  Name = 
REMARK  10 active torsions:
REMARK  status: ('A' for Active; 'I' for Inactive)
REMARK    1  A    between atoms: N_1  and  C_2
REMARK    2  A    between atoms: C_2  and  C_3
REMARK    3  A    between atoms: C_3  and  N_4
REMARK    4  A    between atoms: N_4  and  C_5
REMARK    5  A    between atoms: C_5  and  C_6
REMARK    6  A    between atoms: C_8  and  C_9
REMARK    7  A    between atoms: C_9  and  N_10
REMARK    8  A    between atoms: C_11  and  C_13
REMARK    9  A    between atoms: C_25  and  C_26
REMARK   10  A    between atoms: C_26  and  N_27
REMARK                            x       y       z     vdW  Elec       q    Type
REMARK                         _______ _______ _______ _____ _____    ______ ____
ROOT
ATOM      1  C   UNL     1       6.454   0.217   2.671  0.00  0.00    +0.000 A 
ATOM      2  C   UNL     1       7.128   0.225   3.918  0.00  0.00    +0.000 A 
ATOM      3  C   UNL     1       8.525   0.175   4.014  0.00  0.00    +0.000 A 
ATOM      4  C   UNL     1       9.272   0.072   2.843  0.00  0.00    +0.000 A 
ATOM      5  C   UNL     1       8.636   0.108   1.604  0.00  0.00    +0.000 A 
ATOM      6  C   UNL     1       7.232   0.212   1.490  0.00  0.00    +0.000 A 
ENDROOT
BRANCH   1   7
ATOM      7  C   UNL     1       4.937   0.285   2.738  0.00  0.00    +0.000 C 
BRANCH   7   8
ATOM      8  N   UNL     1       4.172  -0.507   1.771  0.00  0.00    +0.000 NA
ATOM      9  H   UNL     1       3.190  -0.441   2.054  0.00  0.00    +0.000 HD
BRANCH   8  10
ATOM     10  C   UNL     1       4.501  -1.939   1.753  0.00  0.00    +0.000 C 
BRANCH  10  11
ATOM     11  C   UNL     1       4.165  -2.703   3.045  0.00  0.00    +0.000 C 
BRANCH  11  12
ATOM     12  N   UNL     1       2.773  -2.495   3.461  0.00  0.00    +0.000 NA
ATOM     13  H   UNL     1       2.593  -3.048   4.298  0.00  0.00    +0.000 HD
ATOM     14  H   UNL     1       2.154  -2.866   2.740  0.00  0.00    +0.000 HD
ENDBRANCH  11  12
ENDBRANCH  10  11
ENDBRANCH   8  10
ENDBRANCH   7   8
ENDBRANCH   1   7
BRANCH   3  15
ATOM     15  C   UNL     1       9.215   0.220   5.350  0.00  0.00    +0.000 C 
BRANCH  15  16
ATOM     16  N   UNL     1       9.340  -1.094   5.922  0.00  0.00    +0.000 N 
ATOM     17  C   UNL     1      10.488  -1.835   5.812  0.00  0.00    +0.000 C 
ATOM     18  O   UNL     1      11.489  -1.413   5.240  0.00  0.00    +0.000 OA
ATOM     19  H   UNL     1       8.482  -1.542   6.222  0.00  0.00    +0.000 HD
BRANCH  17  20
ATOM     20  C   UNL     1      10.492  -3.143   6.485  0.00  0.00    +0.000 A 
ATOM     21  C   UNL     1      11.703  -3.742   6.798  0.00  0.00    +0.000 A 
ATOM     22  S   UNL     1      11.539  -5.224   7.623  0.00  0.00    +0.000 S 
ATOM     23  C   UNL     1       9.841  -5.147   7.539  0.00  0.00    +0.000 A 
ATOM     24  N   UNL     1       9.074  -6.146   8.050  0.00  0.00    +0.000 NA
ATOM     25  C   UNL     1       7.804  -5.978   7.888  0.00  0.00    +0.000 A 
ATOM     26  N   UNL     1       7.232  -4.896   7.270  0.00  0.00    +0.000 N 
ATOM     27  C   UNL     1       7.963  -3.836   6.791  0.00  0.00    +0.000 A 
ATOM     28  O   UNL     1       7.412  -2.840   6.331  0.00  0.00    +0.000 OA
ATOM     29  C   UNL     1       9.401  -3.992   6.915  0.00  0.00    +0.000 A 
ATOM     30  H   UNL     1       6.229  -4.811   7.204  0.00  0.00    +0.000 HD
ENDBRANCH  17  20
ENDBRANCH  15  16
ENDBRANCH   3  15
BRANCH   6  31
ATOM     31  C   UNL     1       6.680   0.370   0.082  0.00  0.00    +0.000 C 
BRANCH  31  32
ATOM     32  N   UNL     1       6.882   1.734  -0.358  0.00  0.00    +0.000 N 
ATOM     33  C   UNL     1       6.233   2.143  -1.500  0.00  0.00    +0.000 A 
ATOM     34  N   UNL     1       5.824   1.248  -2.415  0.00  0.00    +0.000 NA
ATOM     35  C   UNL     1       5.256   1.732  -3.544  0.00  0.00    +0.000 A 
ATOM     36  C   UNL     1       5.087   3.070  -3.797  0.00  0.00    +0.000 A 
ATOM     37 CL   UNL     1       4.379   3.651  -5.240  0.00  0.00    +0.000 Cl
ATOM     38  C   UNL     1       5.531   3.906  -2.804  0.00  0.00    +0.000 A 
ATOM     39  N   UNL     1       6.093   3.470  -1.652  0.00  0.00    +0.000 NA
ATOM     40  H   UNL     1       6.857   2.458   0.346  0.00  0.00    +0.000 HD
ENDBRANCH  31  32
ENDBRANCH   6  31
TORSDOF 10
