REMARK  Name = 
REMARK  9 active torsions:
REMARK  status: ('A' for Active; 'I' for Inactive)
REMARK    1  A    between atoms: C_1  and  C_2
REMARK    2  A    between atoms: C_2  and  N_3
REMARK    3  A    between atoms: C_2  and  C_19
REMARK    4  A    between atoms: N_3  and  C_4
REMARK    5  A    between atoms: C_4  and  C_5
REMARK    6  A    between atoms: C_8  and  C_9
REMARK    7  A    between atoms: C_9  and  N_10
REMARK    8  A    between atoms: N_10  and  C_11
REMARK    9  A    between atoms: C_11  and  C_12
REMARK                            x       y       z     vdW  Elec       q    Type
REMARK                         _______ _______ _______ _____ _____    ______ ____
ROOT
ATOM      1  C   UNL     1       2.546   1.338   1.882  0.00  0.00    +0.000 C 
ENDROOT
BRANCH   1   2
ATOM      2  C   UNL     1       3.112   1.533   3.260  0.00  0.00    +0.000 A 
ATOM      3  C   UNL     1       4.487   1.540   3.491  0.00  0.00    +0.000 A 
ATOM      4  C   UNL     1       4.967   1.800   4.767  0.00  0.00    +0.000 A 
ATOM      5  C   UNL     1       4.060   2.059   5.793  0.00  0.00    +0.000 A 
ATOM      6  N   UNL     1       2.719   2.065   5.594  0.00  0.00    +0.000 NA
ATOM      7  C   UNL     1       2.280   1.789   4.347  0.00  0.00    +0.000 A 
BRANCH   5   8
ATOM      8  C   UNL     1       4.569   2.332   7.192  0.00  0.00    +0.000 C 
BRANCH   8   9
ATOM      9  N   UNL     1       4.718   1.172   8.050  0.00  0.00    +0.000 NA
ATOM     10  H   UNL     1       3.840   0.656   8.152  0.00  0.00    +0.000 HD
BRANCH   9  11
ATOM     11  C   UNL     1       5.679   0.172   7.544  0.00  0.00    +0.000 C 
BRANCH  11  12
ATOM     12  C   UNL     1       5.778  -1.021   8.439  0.00  0.00    +0.000 C 
ATOM     13  N   UNL     1       4.729  -1.817   8.771  0.00  0.00    +0.000 NA
ATOM     14  C   UNL     1       5.190  -2.695   9.684  0.00  0.00    +0.000 C 
ATOM     15  C   UNL     1       6.535  -2.460   9.869  0.00  0.00    +0.000 C 
ATOM     16  N   UNL     1       6.903  -1.442   9.065  0.00  0.00    +0.000 NA
ENDBRANCH  11  12
ENDBRANCH   9  11
ENDBRANCH   8   9
ENDBRANCH   5   8
ENDBRANCH   1   2
BRANCH   1  17
ATOM     17  N   UNL     1       2.941   0.064   1.284  0.00  0.00    +0.000 NA
ATOM     18  H   UNL     1       3.959   0.015   1.260  0.00  0.00    +0.000 HD
BRANCH  17  20
ATOM     19  C   UNL     1       0.911  -0.077  -0.165  0.00  0.00    +0.000 C 
ATOM     20  C   UNL     1       2.443  -0.096  -0.086  0.00  0.00    +0.000 C 
BRANCH  20  21
ATOM     21  C   UNL     1       2.991  -1.414  -0.601  0.00  0.00    +0.000 A 
ATOM     22  C   UNL     1       2.687  -2.651  -0.048  0.00  0.00    +0.000 A 
ATOM     23  S   UNL     1       3.406  -3.958  -0.876  0.00  0.00    +0.000 S 
ATOM     24  C   UNL     1       4.174  -2.916  -1.979  0.00  0.00    +0.000 A 
ATOM     25  N   UNL     1       4.963  -3.402  -2.975  0.00  0.00    +0.000 NA
ATOM     26  C   UNL     1       5.498  -2.493  -3.720  0.00  0.00    +0.000 A 
ATOM     27  N   UNL     1       5.312  -1.143  -3.566  0.00  0.00    +0.000 N 
ATOM     28  C   UNL     1       4.516  -0.599  -2.580  0.00  0.00    +0.000 A 
ATOM     29  O   UNL     1       4.376   0.614  -2.476  0.00  0.00    +0.000 OA
ATOM     30  C   UNL     1       3.890  -1.586  -1.717  0.00  0.00    +0.000 A 
ATOM     31  H   UNL     1       5.765  -0.484  -4.178  0.00  0.00    +0.000 HD
ENDBRANCH  20  21
ENDBRANCH  17  20
ENDBRANCH   1  17
TORSDOF 8
