REMARK  Name = 
REMARK  10 active torsions:
REMARK  status: ('A' for Active; 'I' for Inactive)
REMARK    1  A    between atoms: C_1  and  C_2
REMARK    2  A    between atoms: C_2  and  C_3
REMARK    3  A    between atoms: C_3  and  N_4
REMARK    4  A    between atoms: C_3  and  C_20
REMARK    5  A    between atoms: N_4  and  C_5
REMARK    6  A    between atoms: C_5  and  C_6
REMARK    7  A    between atoms: C_9  and  C_10
REMARK    8  A    between atoms: C_10  and  N_11
REMARK    9  A    between atoms: N_11  and  C_12
REMARK   10  A    between atoms: C_12  and  C_13
REMARK                            x       y       z     vdW  Elec       q    Type
REMARK                         _______ _______ _______ _____ _____    ______ ____
ROOT
ATOM      1  C   UNL     1       1.046  -2.248   0.937  0.00  0.00    +0.000 C 
ENDROOT
BRANCH   1   2
ATOM      2  C   UNL     1       0.647  -3.702   0.810  0.00  0.00    +0.000 A 
ATOM      3  C   UNL     1       0.937  -4.636   1.813  0.00  0.00    +0.000 A 
ATOM      4  C   UNL     1       0.583  -5.980   1.647  0.00  0.00    +0.000 A 
ATOM      5  C   UNL     1      -0.081  -6.409   0.493  0.00  0.00    +0.000 A 
ATOM      6  C   UNL     1      -0.387  -5.472  -0.499  0.00  0.00    +0.000 A 
ATOM      7  C   UNL     1      -0.026  -4.133  -0.341  0.00  0.00    +0.000 A 
BRANCH   5   8
ATOM      8  C   UNL     1      -0.441  -7.862   0.299  0.00  0.00    +0.000 C 
BRANCH   8   9
ATOM      9  N   UNL     1      -1.341  -8.323   1.353  0.00  0.00    +0.000 NA
ATOM     10  H   UNL     1      -2.194  -7.770   1.296  0.00  0.00    +0.000 HD
BRANCH   9  11
ATOM     11  C   UNL     1      -1.679  -9.729   1.156  0.00  0.00    +0.000 C 
BRANCH  11  12
ATOM     12  C   UNL     1      -2.578 -10.188   2.242  0.00  0.00    +0.000 A 
ATOM     13  C   UNL     1      -3.580 -11.134   2.274  0.00  0.00    +0.000 A 
ATOM     14  C   UNL     1      -4.056 -11.106   3.596  0.00  0.00    +0.000 A 
ATOM     15  N   UNL     1      -3.404 -10.223   4.357  0.00  0.00    +0.000 NA
ATOM     16  N   UNL     1      -2.506  -9.686   3.512  0.00  0.00    +0.000 N 
ATOM     17  H   UNL     1      -1.880  -8.959   3.850  0.00  0.00    +0.000 HD
ENDBRANCH  11  12
ENDBRANCH   9  11
ENDBRANCH   8   9
ENDBRANCH   5   8
ENDBRANCH   1   2
BRANCH   1  18
ATOM     18  N   UNL     1       2.500  -2.101   0.976  0.00  0.00    +0.000 NA
ATOM     19  H   UNL     1       2.847  -2.595   1.797  0.00  0.00    +0.000 HD
BRANCH  18  20
ATOM     20  C   UNL     1       2.949  -0.702   1.066  0.00  0.00    +0.000 C 
BRANCH  20  21
ATOM     21  C   UNL     1       4.468  -0.715   1.200  0.00  0.00    +0.000 A 
ATOM     22  C   UNL     1       5.314  -1.630   0.586  0.00  0.00    +0.000 A 
ATOM     23  S   UNL     1       6.968  -1.348   0.900  0.00  0.00    +0.000 S 
ATOM     24  C   UNL     1       6.614   0.025   1.841  0.00  0.00    +0.000 A 
ATOM     25  N   UNL     1       7.606   0.785   2.379  0.00  0.00    +0.000 NA
ATOM     26  C   UNL     1       7.185   1.817   3.032  0.00  0.00    +0.000 A 
ATOM     27  N   UNL     1       5.866   2.142   3.222  0.00  0.00    +0.000 N 
ATOM     28  C   UNL     1       4.828   1.361   2.765  0.00  0.00    +0.000 A 
ATOM     29  O   UNL     1       3.662   1.612   3.049  0.00  0.00    +0.000 OA
ATOM     30  C   UNL     1       5.252   0.234   1.955  0.00  0.00    +0.000 A 
ATOM     31  H   UNL     1       5.608   2.942   3.780  0.00  0.00    +0.000 HD
ENDBRANCH  20  21
BRANCH  20  33
ATOM     32  C   UNL     1       2.963  -0.244  -1.495  0.00  0.00    +0.000 C 
ATOM     33  C   UNL     1       2.484   0.189  -0.111  0.00  0.00    +0.000 C 
ENDBRANCH  20  33
ENDBRANCH  18  20
ENDBRANCH   1  18
TORSDOF 9
