REMARK  Name = 
REMARK  7 active torsions:
REMARK  status: ('A' for Active; 'I' for Inactive)
REMARK    1  A    between atoms: N_1  and  C_2
REMARK    2  A    between atoms: C_2  and  C_3
REMARK    3  A    between atoms: C_6  and  O_7
REMARK    4  A    between atoms: O_7  and  C_8
REMARK    5  A    between atoms: C_8  and  C_9
REMARK    6  A    between atoms: C_9  and  C_10
REMARK    7  A    between atoms: C_13  and  C_14
REMARK                            x       y       z     vdW  Elec       q    Type
REMARK                         _______ _______ _______ _____ _____    ______ ____
ROOT
ATOM      1  C   UNL     1       3.905   3.315  -5.315  0.00  0.00    +0.000 C 
ENDROOT
BRANCH   1   2
ATOM      2  O   UNL     1       4.268   1.981  -4.948  0.00  0.00    +0.000 OA
BRANCH   2   6
ATOM      3  C   UNL     1       3.218   0.531  -1.163  0.00  0.00    +0.000 A 
ATOM      4  C   UNL     1       2.895   1.851  -1.501  0.00  0.00    +0.000 A 
ATOM      5  C   UNL     1       3.231   2.375  -2.753  0.00  0.00    +0.000 A 
ATOM      6  C   UNL     1       3.898   1.585  -3.689  0.00  0.00    +0.000 A 
ATOM      7  C   UNL     1       4.235   0.272  -3.353  0.00  0.00    +0.000 A 
ATOM      8  C   UNL     1       3.899  -0.255  -2.101  0.00  0.00    +0.000 A 
BRANCH   3   9
ATOM      9  C   UNL     1       2.838  -0.016   0.188  0.00  0.00    +0.000 C 
BRANCH   9  10
ATOM     10  N   UNL     1       1.393   0.015   0.384  0.00  0.00    +0.000 NA
ATOM     11  H   UNL     1       1.164  -0.434   1.267  0.00  0.00    +0.000 HD
ATOM     12  H   UNL     1       0.952  -0.539  -0.349  0.00  0.00    +0.000 HD
ENDBRANCH   9  10
ENDBRANCH   3   9
ENDBRANCH   2   6
ENDBRANCH   1   2
BRANCH   1  13
ATOM     13  C   UNL     1       4.367   3.581  -6.745  0.00  0.00    +0.000 C 
BRANCH  13  14
ATOM     14  C   UNL     1       4.017   4.982  -7.185  0.00  0.00    +0.000 A 
ATOM     15  C   UNL     1       4.887   6.046  -6.918  0.00  0.00    +0.000 A 
ATOM     16  C   UNL     1       4.558   7.346  -7.312  0.00  0.00    +0.000 A 
ATOM     17  C   UNL     1       3.351   7.607  -7.975  0.00  0.00    +0.000 A 
ATOM     18  C   UNL     1       2.474   6.540  -8.226  0.00  0.00    +0.000 A 
ATOM     19  C   UNL     1       2.802   5.241  -7.832  0.00  0.00    +0.000 A 
BRANCH  17  20
ATOM     20  C   UNL     1       2.988   9.002  -8.421  0.00  0.00    +0.000 C 
ATOM     21  F   UNL     1       3.926   9.938  -8.104  0.00  0.00    +0.000 F 
ATOM     22  F   UNL     1       2.817   9.089  -9.770  0.00  0.00    +0.000 F 
ATOM     23  F   UNL     1       1.823   9.440  -7.868  0.00  0.00    +0.000 F 
ENDBRANCH  17  20
ENDBRANCH  13  14
ENDBRANCH   1  13
TORSDOF 7
