REMARK  Name = 
REMARK  7 active torsions:
REMARK  status: ('A' for Active; 'I' for Inactive)
REMARK    1  A    between atoms: C_2  and  C_4
REMARK    2  A    between atoms: C_7  and  N_8
REMARK    3  A    between atoms: N_8  and  C_9
REMARK    4  A    between atoms: C_9  and  C_10
REMARK    5  A    between atoms: C_10  and  C_12
REMARK    6  A    between atoms: C_14  and  S_15
REMARK    7  A    between atoms: S_15  and  C_16
REMARK                            x       y       z     vdW  Elec       q    Type
REMARK                         _______ _______ _______ _____ _____    ______ ____
ROOT
ATOM      1  C   UNL     1       4.956  -5.553  -2.161  0.00  0.00    +0.000 C 
ENDROOT
BRANCH   1   2
ATOM      2  N   UNL     1       5.442  -4.536  -1.196  0.00  0.00    +0.000 N 
ATOM      3  H   UNL     1       6.097  -4.936  -0.523  0.00  0.00    +0.000 HD
BRANCH   2   7
ATOM      4  C   UNL     1       2.546  -2.228   0.844  0.00  0.00    +0.000 A 
ATOM      5  C   UNL     1       3.809  -2.444   1.401  0.00  0.00    +0.000 A 
ATOM      6  C   UNL     1       4.761  -3.196   0.701  0.00  0.00    +0.000 A 
ATOM      7  C   UNL     1       4.460  -3.774  -0.541  0.00  0.00    +0.000 A 
ATOM      8  C   UNL     1       3.218  -3.478  -1.116  0.00  0.00    +0.000 A 
ATOM      9  C   UNL     1       2.255  -2.745  -0.420  0.00  0.00    +0.000 A 
BRANCH   4  11
ATOM     10  N   UNL     1       1.873  -0.533   2.459  0.00  0.00    +0.000 N 
ATOM     11  C   UNL     1       1.476  -1.482   1.556  0.00  0.00    +0.000 C 
ATOM     12  O   UNL     1       0.292  -1.673   1.324  0.00  0.00    +0.000 OA
ATOM     13  H   UNL     1       1.135   0.048   2.837  0.00  0.00    +0.000 HD
ATOM     14  H   UNL     1       2.810  -0.163   2.464  0.00  0.00    +0.000 HD
ENDBRANCH   4  11
ENDBRANCH   2   7
ENDBRANCH   1   2
BRANCH   1  15
ATOM     15  C   UNL     1       5.905  -6.763  -2.249  0.00  0.00    +0.000 C 
ATOM     16  F   UNL     1       6.021  -7.287  -0.984  0.00  0.00    +0.000 F 
BRANCH  15  17
ATOM     17  C   UNL     1       5.443  -7.795  -3.263  0.00  0.00    +0.000 A 
ATOM     18  C   UNL     1       5.745  -9.149  -3.070  0.00  0.00    +0.000 A 
ATOM     19  C   UNL     1       5.462 -10.062  -4.087  0.00  0.00    +0.000 A 
ATOM     20  C   UNL     1       4.880  -9.601  -5.263  0.00  0.00    +0.000 A 
ATOM     21  C   UNL     1       4.593  -8.252  -5.370  0.00  0.00    +0.000 A 
ATOM     22  N   UNL     1       4.866  -7.348  -4.406  0.00  0.00    +0.000 NA
BRANCH  19  23
ATOM     23  S   UNL     1       6.092 -11.729  -4.022  0.00  0.00    +0.000 S 
BRANCH  23  24
ATOM     24  C   UNL     1       4.704 -12.635  -3.251  0.00  0.00    +0.000 C 
ATOM     25  C   UNL     1       5.033 -14.154  -3.211  0.00  0.00    +0.000 C 
ATOM     26  C   UNL     1       3.606 -14.436  -3.702  0.00  0.00    +0.000 C 
ATOM     27  C   UNL     1       3.548 -12.982  -4.217  0.00  0.00    +0.000 C 
ENDBRANCH  23  24
ENDBRANCH  19  23
ENDBRANCH  15  17
ENDBRANCH   1  15
TORSDOF 7
