REMARK  Name = 
REMARK  6 active torsions:
REMARK  status: ('A' for Active; 'I' for Inactive)
REMARK    1  A    between atoms: N_1  and  C_2
REMARK    2  A    between atoms: C_2  and  C_3
REMARK    3  A    between atoms: C_3  and  C_4
REMARK    4  A    between atoms: C_7  and  C_8
REMARK    5  A    between atoms: C_8  and  N_9
REMARK    6  A    between atoms: C_15  and  N_16
REMARK                            x       y       z     vdW  Elec       q    Type
REMARK                         _______ _______ _______ _____ _____    ______ ____
ROOT
ATOM      1  C   UNL     1       8.937  -0.252  -1.139  0.00  0.00    +0.000 C 
ENDROOT
BRANCH   1   2
ATOM      2  N   UNL     1       9.905  -1.281  -1.476  0.00  0.00    +0.000 N 
ATOM      3  C   UNL     1      10.588  -1.980  -0.489  0.00  0.00    +0.000 A 
ATOM      4  C   UNL     1      11.428  -2.844  -1.186  0.00  0.00    +0.000 A 
ATOM      5  C   UNL     1      11.769  -2.105  -2.347  0.00  0.00    +0.000 A 
ATOM      6  C   UNL     1      12.877  -2.109  -3.204  0.00  0.00    +0.000 A 
ATOM      7  C   UNL     1      12.809  -1.365  -4.374  0.00  0.00    +0.000 A 
ATOM      8  C   UNL     1      11.626  -0.719  -4.754  0.00  0.00    +0.000 A 
ATOM      9  C   UNL     1      10.512  -0.740  -3.897  0.00  0.00    +0.000 A 
ATOM     10  C   UNL     1      10.652  -1.324  -2.638  0.00  0.00    +0.000 A 
BRANCH   8  11
ATOM     11  N   UNL     1      11.508  -0.248  -6.067  0.00  0.00    +0.000 N 
ATOM     12  H   UNL     1      12.379   0.080  -6.468  0.00  0.00    +0.000 HD
ATOM     13  H   UNL     1      10.734   0.396  -6.214  0.00  0.00    +0.000 HD
ENDBRANCH   8  11
ENDBRANCH   1   2
BRANCH   1  17
ATOM     14  C   UNL     1       4.743  -1.350  -1.574  0.00  0.00    +0.000 A 
ATOM     15  C   UNL     1       5.411  -1.529  -0.341  0.00  0.00    +0.000 A 
ATOM     16  C   UNL     1       6.769  -1.187  -0.195  0.00  0.00    +0.000 A 
ATOM     17  C   UNL     1       7.492  -0.657  -1.274  0.00  0.00    +0.000 A 
ATOM     18  C   UNL     1       6.833  -0.473  -2.493  0.00  0.00    +0.000 A 
ATOM     19  C   UNL     1       5.483  -0.812  -2.644  0.00  0.00    +0.000 A 
BRANCH  14  20
ATOM     20  C   UNL     1       3.322  -1.765  -1.759  0.00  0.00    +0.000 C 
BRANCH  20  21
ATOM     21  C   UNL     1       2.325  -0.636  -1.484  0.00  0.00    +0.000 C 
BRANCH  21  22
ATOM     22  N   UNL     1       0.947  -1.086  -1.693  0.00  0.00    +0.000 NA
ATOM     23  H   UNL     1       0.306  -0.317  -1.508  0.00  0.00    +0.000 HD
ATOM     24  H   UNL     1       0.720  -1.817  -1.019  0.00  0.00    +0.000 HD
ENDBRANCH  21  22
ENDBRANCH  20  21
ENDBRANCH  14  20
ENDBRANCH   1  17
TORSDOF 6
