REMARK  Name = 
REMARK  10 active torsions:
REMARK  status: ('A' for Active; 'I' for Inactive)
REMARK    1  A    between atoms: C_1  and  O_2
REMARK    2  A    between atoms: O_2  and  C_3
REMARK    3  A    between atoms: C_10  and  C_11
REMARK    4  A    between atoms: N_13  and  C_14
REMARK    5  A    between atoms: C_14  and  C_15
REMARK    6  A    between atoms: C_18  and  O_19
REMARK    7  A    between atoms: O_19  and  C_20
REMARK    8  A    between atoms: C_20  and  C_21
REMARK    9  A    between atoms: C_21  and  O_22
REMARK   10  A    between atoms: C_21  and  C_23
REMARK                            x       y       z     vdW  Elec       q    Type
REMARK                         _______ _______ _______ _____ _____    ______ ____
ROOT
ATOM      1  C   UNL     1       1.344   2.960  -1.317  0.00  0.00    +0.000 A 
ATOM      2  C   UNL     1       1.217   1.664  -1.832  0.00  0.00    +0.000 A 
ATOM      3  C   UNL     1       0.042   1.259  -2.477  0.00  0.00    +0.000 A 
ATOM      4  C   UNL     1      -1.023   2.148  -2.628  0.00  0.00    +0.000 A 
ATOM      5  C   UNL     1      -0.874   3.462  -2.179  0.00  0.00    +0.000 A 
ATOM      6  C   UNL     1       0.301   3.869  -1.534  0.00  0.00    +0.000 A 
ENDROOT
BRANCH   1   7
ATOM      7  C   UNL     1       2.576   3.356  -0.544  0.00  0.00    +0.000 C 
BRANCH   7  10
ATOM      8  C   UNL     1       4.813   4.300  -0.919  0.00  0.00    +0.000 C 
ATOM      9  O   UNL     1       5.098   4.180   0.271  0.00  0.00    +0.000 OA
ATOM     10  N   UNL     1       3.593   3.908  -1.400  0.00  0.00    +0.000 N 
ATOM     11  H   UNL     1       3.365   4.032  -2.376  0.00  0.00    +0.000 HD
BRANCH   8  19
ATOM     12  C   UNL     1       4.733   4.793  -4.319  0.00  0.00    +0.000 A 
ATOM     13  N   UNL     1       4.933   5.150  -5.603  0.00  0.00    +0.000 NA
ATOM     14  C   UNL     1       6.077   5.769  -5.908  0.00  0.00    +0.000 A 
ATOM     15  N   UNL     1       7.071   6.075  -5.078  0.00  0.00    +0.000 NA
ATOM     16  C   UNL     1       6.823   5.715  -3.807  0.00  0.00    +0.000 A 
ATOM     17  S   UNL     1       7.986   6.015  -2.607  0.00  0.00    +0.000 S 
ATOM     18  C   UNL     1       6.992   5.341  -1.405  0.00  0.00    +0.000 A 
ATOM     19  C   UNL     1       5.767   4.884  -1.879  0.00  0.00    +0.000 A 
ATOM     20  C   UNL     1       5.680   5.087  -3.322  0.00  0.00    +0.000 A 
BRANCH  12  22
ATOM     21  C   UNL     1       2.975   3.453  -5.091  0.00  0.00    +0.000 C 
ATOM     22  O   UNL     1       3.555   4.156  -3.997  0.00  0.00    +0.000 OA
ENDBRANCH  12  22
ENDBRANCH   8  19
ENDBRANCH   7  10
ENDBRANCH   1   7
BRANCH   4  23
ATOM     23  O   UNL     1      -2.243   1.849  -3.176  0.00  0.00    +0.000 OA
BRANCH  23  24
ATOM     24  C   UNL     1      -2.435   0.495  -3.616  0.00  0.00    +0.000 C 
BRANCH  24  25
ATOM     25  C   UNL     1      -3.847   0.305  -4.186  0.00  0.00    +0.000 C 
BRANCH  25  26
ATOM     26  C   UNL     1      -4.021  -1.158  -4.574  0.00  0.00    +0.000 A 
ATOM     27  N   UNL     1      -4.463  -2.029  -3.646  0.00  0.00    +0.000 NA
ATOM     28  C   UNL     1      -4.589  -3.312  -4.041  0.00  0.00    +0.000 A 
ATOM     29  C   UNL     1      -4.277  -3.756  -5.305  0.00  0.00    +0.000 A 
ATOM     30  C   UNL     1      -3.818  -2.795  -6.172  0.00  0.00    +0.000 A 
ATOM     31  N   UNL     1      -3.679  -1.496  -5.840  0.00  0.00    +0.000 NA
ENDBRANCH  25  26
BRANCH  25  32
ATOM     32  O   UNL     1      -4.018   1.152  -5.342  0.00  0.00    +0.000 OA
ATOM     33  H   UNL     1      -3.857   0.571  -6.112  0.00  0.00    +0.000 HD
ENDBRANCH  25  32
ENDBRANCH  24  25
ENDBRANCH  23  24
ENDBRANCH   4  23
TORSDOF 9
