REMARK  Name = 
REMARK  6 active torsions:
REMARK  status: ('A' for Active; 'I' for Inactive)
REMARK    1  A    between atoms: C_2  and  C_25
REMARK    2  A    between atoms: N_3  and  C_4
REMARK    3  A    between atoms: C_4  and  C_5
REMARK    4  A    between atoms: C_8  and  C_9
REMARK    5  A    between atoms: C_9  and  N_10
REMARK    6  A    between atoms: C_11  and  C_13
REMARK                            x       y       z     vdW  Elec       q    Type
REMARK                         _______ _______ _______ _____ _____    ______ ____
ROOT
ATOM      1  C   UNL     1       3.210   3.651   0.602  0.00  0.00    +0.000 A 
ATOM      2  C   UNL     1       2.748   4.952   0.360  0.00  0.00    +0.000 A 
ATOM      3  C   UNL     1       3.595   6.055   0.525  0.00  0.00    +0.000 A 
ATOM      4  C   UNL     1       4.929   5.880   0.914  0.00  0.00    +0.000 A 
ATOM      5  C   UNL     1       5.390   4.579   1.158  0.00  0.00    +0.000 A 
ATOM      6  C   UNL     1       4.544   3.476   0.992  0.00  0.00    +0.000 A 
ENDROOT
BRANCH   1   7
ATOM      7  C   UNL     1       2.281   2.472   0.461  0.00  0.00    +0.000 C 
BRANCH   7  10
ATOM      8  O   UNL     1       0.792   0.273  -0.353  0.00  0.00    +0.000 OA
ATOM      9  C   UNL     1       1.450   0.874  -1.200  0.00  0.00    +0.000 C 
ATOM     10  N   UNL     1       2.224   1.968  -0.891  0.00  0.00    +0.000 N 
ATOM     11  H   UNL     1       2.605   2.537  -1.635  0.00  0.00    +0.000 HD
BRANCH   9  12
ATOM     12  C   UNL     1       1.453   0.485  -2.585  0.00  0.00    +0.000 A 
ATOM     13  C   UNL     1       2.193   0.893  -3.679  0.00  0.00    +0.000 A 
ATOM     14  C   UNL     1       1.734   0.104  -4.751  0.00  0.00    +0.000 A 
ATOM     15  N   UNL     1       0.771  -0.740  -4.382  0.00  0.00    +0.000 NA
ATOM     16  N   UNL     1       0.627  -0.498  -3.065  0.00  0.00    +0.000 N 
ATOM     17  H   UNL     1      -0.055  -1.037  -2.539  0.00  0.00    +0.000 HD
ENDBRANCH   9  12
ENDBRANCH   7  10
ENDBRANCH   1   7
BRANCH   4  18
ATOM     18  C   UNL     1       5.851   7.062   1.086  0.00  0.00    +0.000 C 
BRANCH  18  19
ATOM     19  N   UNL     1       5.831   7.572   2.435  0.00  0.00    +0.000 N 
ATOM     20  C   UNL     1       6.557   8.687   2.776  0.00  0.00    +0.000 C 
ATOM     21  O   UNL     1       7.214   9.311   1.946  0.00  0.00    +0.000 OA
ATOM     22  H   UNL     1       5.505   6.946   3.165  0.00  0.00    +0.000 HD
BRANCH  20  23
ATOM     23  C   UNL     1       6.460   9.140   4.169  0.00  0.00    +0.000 A 
ATOM     24  C   UNL     1       6.722  10.469   4.480  0.00  0.00    +0.000 A 
ATOM     25  S   UNL     1       6.512  10.840   6.132  0.00  0.00    +0.000 S 
ATOM     26  C   UNL     1       6.118   9.226   6.500  0.00  0.00    +0.000 A 
ATOM     27  N   UNL     1       5.845   8.847   7.777  0.00  0.00    +0.000 NA
ATOM     28  C   UNL     1       5.595   7.588   7.918  0.00  0.00    +0.000 A 
ATOM     29  N   UNL     1       5.587   6.675   6.895  0.00  0.00    +0.000 N 
ATOM     30  C   UNL     1       5.827   7.017   5.585  0.00  0.00    +0.000 A 
ATOM     31  O   UNL     1       5.771   6.184   4.687  0.00  0.00    +0.000 OA
ATOM     32  C   UNL     1       6.127   8.420   5.375  0.00  0.00    +0.000 A 
ATOM     33  H   UNL     1       5.374   5.705   7.071  0.00  0.00    +0.000 HD
ENDBRANCH  20  23
ENDBRANCH  18  19
ENDBRANCH   4  18
TORSDOF 6
