REMARK  Name = 
REMARK  11 active torsions:
REMARK  status: ('A' for Active; 'I' for Inactive)
REMARK    1  A    between atoms: N_1  and  C_2
REMARK    2  A    between atoms: C_2  and  C_3
REMARK    3  A    between atoms: C_3  and  N_4
REMARK    4  A    between atoms: N_4  and  C_5
REMARK    5  A    between atoms: C_5  and  C_6
REMARK    6  A    between atoms: C_5  and  C_21
REMARK    7  A    between atoms: C_6  and  C_7
REMARK    8  A    between atoms: C_10  and  C_11
REMARK    9  A    between atoms: C_11  and  N_12
REMARK   10  A    between atoms: N_12  and  C_13
REMARK   11  A    between atoms: C_21  and  C_23
REMARK                            x       y       z     vdW  Elec       q    Type
REMARK                         _______ _______ _______ _____ _____    ______ ____
ROOT
ATOM      1  C   UNL     1       5.037   1.995  -1.756  0.00  0.00    +0.000 C 
ENDROOT
BRANCH   1   2
ATOM      2  N   UNL     1       4.661   0.966  -0.735  0.00  0.00    +0.000 NA
ATOM      3  H   UNL     1       5.131   0.091  -0.983  0.00  0.00    +0.000 HD
BRANCH   2   4
ATOM      4  C   UNL     1       3.232   0.658  -0.636  0.00  0.00    +0.000 C 
BRANCH   4   5
ATOM      5  C   UNL     1       2.617  -0.010  -1.882  0.00  0.00    +0.000 C 
BRANCH   5   6
ATOM      6  N   UNL     1       3.325  -1.241  -2.264  0.00  0.00    +0.000 NA
ATOM      7  H   UNL     1       2.795  -1.688  -3.014  0.00  0.00    +0.000 HD
ATOM      8  H   UNL     1       3.279  -1.896  -1.480  0.00  0.00    +0.000 HD
ENDBRANCH   5   6
ENDBRANCH   4   5
ENDBRANCH   2   4
ENDBRANCH   1   2
BRANCH   1   9
ATOM      9  C   UNL     1       6.577   2.145  -1.657  0.00  0.00    +0.000 C 
ATOM     10  O   UNL     1       7.080   3.001  -0.923  0.00  0.00    +0.000 OA
BRANCH   9  11
ATOM     11  C   UNL     1       7.464   1.166  -2.322  0.00  0.00    +0.000 A 
ATOM     12  C   UNL     1       8.756   0.983  -1.848  0.00  0.00    +0.000 A 
ATOM     13  S   UNL     1       9.561  -0.337  -2.570  0.00  0.00    +0.000 S 
ATOM     14  C   UNL     1       8.223  -0.670  -3.567  0.00  0.00    +0.000 A 
ATOM     15  N   UNL     1       8.209  -1.754  -4.388  0.00  0.00    +0.000 NA
ATOM     16  C   UNL     1       7.122  -1.883  -5.070  0.00  0.00    +0.000 A 
ATOM     17  N   UNL     1       6.077  -1.000  -5.061  0.00  0.00    +0.000 N 
ATOM     18  C   UNL     1       6.150   0.200  -4.403  0.00  0.00    +0.000 A 
ATOM     19  O   UNL     1       5.421   1.140  -4.708  0.00  0.00    +0.000 OA
ATOM     20  C   UNL     1       7.232   0.285  -3.438  0.00  0.00    +0.000 A 
ATOM     21  H   UNL     1       5.320  -1.093  -5.719  0.00  0.00    +0.000 HD
ENDBRANCH   9  11
ENDBRANCH   1   9
BRANCH   1  22
ATOM     22  C   UNL     1       4.321   3.357  -1.578  0.00  0.00    +0.000 C 
BRANCH  22  23
ATOM     23  C   UNL     1       4.572   4.512  -2.542  0.00  0.00    +0.000 A 
ATOM     24  C   UNL     1       3.571   5.493  -2.656  0.00  0.00    +0.000 A 
ATOM     25  C   UNL     1       3.830   6.726  -3.263  0.00  0.00    +0.000 A 
ATOM     26  C   UNL     1       5.095   7.007  -3.788  0.00  0.00    +0.000 A 
ATOM     27  C   UNL     1       6.064   6.002  -3.767  0.00  0.00    +0.000 A 
ATOM     28  C   UNL     1       5.799   4.768  -3.165  0.00  0.00    +0.000 A 
BRANCH  26  29
ATOM     29  C   UNL     1       5.433   8.387  -4.292  0.00  0.00    +0.000 C 
BRANCH  29  30
ATOM     30  N   UNL     1       5.891   9.214  -3.173  0.00  0.00    +0.000 N 
ATOM     31  H   UNL     1       6.559   8.718  -2.588  0.00  0.00    +0.000 HD
BRANCH  30  32
ATOM     32  C   UNL     1       6.277  10.535  -3.435  0.00  0.00    +0.000 A 
ATOM     33  C   UNL     1       5.698  11.310  -4.441  0.00  0.00    +0.000 A 
ATOM     34  C   UNL     1       6.087  12.634  -4.593  0.00  0.00    +0.000 A 
ATOM     35  N   UNL     1       6.995  13.245  -3.808  0.00  0.00    +0.000 NA
ATOM     36  C   UNL     1       7.511  12.501  -2.810  0.00  0.00    +0.000 A 
ATOM     37  C   UNL     1       7.177  11.173  -2.578  0.00  0.00    +0.000 A 
ENDBRANCH  30  32
ENDBRANCH  29  30
ENDBRANCH  26  29
ENDBRANCH  22  23
ENDBRANCH   1  22
TORSDOF 11
