REMARK  Name = 
REMARK  6 active torsions:
REMARK  status: ('A' for Active; 'I' for Inactive)
REMARK    1  A    between atoms: C_1  and  C_2
REMARK    2  A    between atoms: C_2  and  N_3
REMARK    3  A    between atoms: C_2  and  C_16
REMARK    4  A    between atoms: C_4  and  C_6
REMARK    5  A    between atoms: C_19  and  O_20
REMARK    6  A    between atoms: O_20  and  C_21
REMARK                            x       y       z     vdW  Elec       q    Type
REMARK                         _______ _______ _______ _____ _____    ______ ____
ROOT
ATOM      1  C   UNL     1       2.891  -1.459   0.315  0.00  0.00    +0.000 C 
ATOM      2  C   UNL     1       2.424  -0.053  -0.063  0.00  0.00    +0.000 C 
ENDROOT
BRANCH   2   3
ATOM      3  C   UNL     1       2.921   0.433  -1.413  0.00  0.00    +0.000 A 
ATOM      4  C   UNL     1       3.155   1.806  -1.577  0.00  0.00    +0.000 A 
ATOM      5  C   UNL     1       3.593   2.317  -2.799  0.00  0.00    +0.000 A 
ATOM      6  C   UNL     1       3.870   1.458  -3.864  0.00  0.00    +0.000 A 
ATOM      7  C   UNL     1       3.598   0.097  -3.732  0.00  0.00    +0.000 A 
ATOM      8  C   UNL     1       3.115  -0.411  -2.519  0.00  0.00    +0.000 A 
BRANCH   6   9
ATOM      9  O   UNL     1       4.368   1.873  -5.082  0.00  0.00    +0.000 OA
BRANCH   9  10
ATOM     10  C   UNL     1       5.230   2.942  -5.122  0.00  0.00    +0.000 A 
ATOM     11  C   UNL     1       6.131   3.270  -4.108  0.00  0.00    +0.000 A 
ATOM     12  C   UNL     1       6.892   4.429  -4.210  0.00  0.00    +0.000 A 
ATOM     13  C   UNL     1       6.785   5.182  -5.367  0.00  0.00    +0.000 A 
ATOM     14  N   UNL     1       5.985   4.855  -6.405  0.00  0.00    +0.000 NA
ATOM     15  C   UNL     1       5.226   3.740  -6.258  0.00  0.00    +0.000 A 
ENDBRANCH   9  10
ENDBRANCH   6   9
ENDBRANCH   2   3
BRANCH   2  16
ATOM     16  N   UNL     1       0.978   0.046  -0.016  0.00  0.00    +0.000 N 
ATOM     17  C   UNL     1       0.304   0.299   1.152  0.00  0.00    +0.000 C 
ATOM     18  O   UNL     1       0.887   0.507   2.213  0.00  0.00    +0.000 OA
ATOM     19  H   UNL     1       0.467  -0.274  -0.832  0.00  0.00    +0.000 HD
BRANCH  17  20
ATOM     20  C   UNL     1      -1.158   0.370   1.063  0.00  0.00    +0.000 A 
ATOM     21  C   UNL     1      -1.866   1.152   1.965  0.00  0.00    +0.000 A 
ATOM     22  S   UNL     1      -3.553   1.116   1.722  0.00  0.00    +0.000 S 
ATOM     23  C   UNL     1      -3.397   0.021   0.430  0.00  0.00    +0.000 A 
ATOM     24  N   UNL     1      -4.494  -0.463  -0.213  0.00  0.00    +0.000 NA
ATOM     25  C   UNL     1      -4.232  -1.304  -1.156  0.00  0.00    +0.000 A 
ATOM     26  N   UNL     1      -2.970  -1.702  -1.519  0.00  0.00    +0.000 N 
ATOM     27  C   UNL     1      -1.828  -1.208  -0.935  0.00  0.00    +0.000 A 
ATOM     28  O   UNL     1      -0.714  -1.511  -1.339  0.00  0.00    +0.000 OA
ATOM     29  C   UNL     1      -2.074  -0.285   0.163  0.00  0.00    +0.000 A 
ATOM     30  H   UNL     1      -2.832  -2.347  -2.284  0.00  0.00    +0.000 HD
ENDBRANCH  17  20
ENDBRANCH   2  16
TORSDOF 5
