REMARK  Name = 
REMARK  8 active torsions:
REMARK  status: ('A' for Active; 'I' for Inactive)
REMARK    1  A    between atoms: C_1  and  O_2
REMARK    2  A    between atoms: O_2  and  C_3
REMARK    3  A    between atoms: C_5  and  C_6
REMARK    4  A    between atoms: C_6  and  N_7
REMARK    5  A    between atoms: C_8  and  C_10
REMARK    6  A    between atoms: C_22  and  C_23
REMARK    7  A    between atoms: C_23  and  N_24
REMARK    8  A    between atoms: N_24  and  C_25
REMARK                            x       y       z     vdW  Elec       q    Type
REMARK                         _______ _______ _______ _____ _____    ______ ____
ROOT
ATOM      1  C   UNL     1       3.005  -1.058   0.698  0.00  0.00    +0.000 A 
ATOM      2  C   UNL     1       2.721  -2.426   0.805  0.00  0.00    +0.000 A 
ATOM      3  C   UNL     1       3.519  -3.260   1.592  0.00  0.00    +0.000 A 
ATOM      4  C   UNL     1       4.606  -2.676   2.226  0.00  0.00    +0.000 A 
ATOM      5  N   UNL     1       4.903  -1.357   2.170  0.00  0.00    +0.000 NA
ATOM      6  C   UNL     1       4.105  -0.553   1.407  0.00  0.00    +0.000 A 
ENDROOT
BRANCH   1   8
ATOM      7  C   UNL     1       0.962  -0.592  -0.400  0.00  0.00    +0.000 C 
ATOM      8  O   UNL     1       2.298  -0.202  -0.103  0.00  0.00    +0.000 OA
ENDBRANCH   1   8
BRANCH   3   9
ATOM      9  C   UNL     1       3.260  -4.736   1.697  0.00  0.00    +0.000 C 
BRANCH   9  10
ATOM     10  N   UNL     1       3.956  -5.459   0.669  0.00  0.00    +0.000 N 
ATOM     11  C   UNL     1       3.814  -6.815   0.507  0.00  0.00    +0.000 C 
ATOM     12  O   UNL     1       3.064  -7.482   1.208  0.00  0.00    +0.000 OA
ATOM     13  H   UNL     1       4.759  -5.000   0.250  0.00  0.00    +0.000 HD
BRANCH  11  14
ATOM     14  C   UNL     1       4.565  -7.406  -0.608  0.00  0.00    +0.000 A 
ATOM     15  C   UNL     1       4.128  -8.586  -1.193  0.00  0.00    +0.000 A 
ATOM     16  S   UNL     1       5.087  -9.091  -2.512  0.00  0.00    +0.000 S 
ATOM     17  C   UNL     1       6.155  -7.782  -2.311  0.00  0.00    +0.000 A 
ATOM     18  N   UNL     1       7.242  -7.632  -3.114  0.00  0.00    +0.000 NA
ATOM     19  C   UNL     1       7.979  -6.609  -2.833  0.00  0.00    +0.000 A 
ATOM     20  N   UNL     1       7.725  -5.716  -1.825  0.00  0.00    +0.000 N 
ATOM     21  C   UNL     1       6.623  -5.811  -1.010  0.00  0.00    +0.000 A 
ATOM     22  O   UNL     1       6.394  -4.968  -0.148  0.00  0.00    +0.000 OA
ATOM     23  C   UNL     1       5.770  -6.956  -1.270  0.00  0.00    +0.000 A 
ATOM     24  H   UNL     1       8.329  -4.922  -1.667  0.00  0.00    +0.000 HD
ENDBRANCH  11  14
ENDBRANCH   9  10
ENDBRANCH   3   9
BRANCH   6  25
ATOM     25  C   UNL     1       4.509   0.916   1.351  0.00  0.00    +0.000 C 
BRANCH  25  26
ATOM     26  N   UNL     1       3.505   1.849   1.893  0.00  0.00    +0.000 NA
ATOM     27  H   UNL     1       3.306   1.576   2.852  0.00  0.00    +0.000 HD
BRANCH  26  28
ATOM     28  C   UNL     1       4.008   3.211   1.872  0.00  0.00    +0.000 C 
ATOM     29  C   UNL     1       2.995   4.201   2.431  0.00  0.00    +0.000 C 
ATOM     30  C   UNL     1       3.507   5.498   1.854  0.00  0.00    +0.000 C 
ATOM     31  C   UNL     1       3.955   5.069   0.472  0.00  0.00    +0.000 C 
ATOM     32  O   UNL     1       4.286   3.673   0.545  0.00  0.00    +0.000 OA
ENDBRANCH  26  28
ENDBRANCH  25  26
ENDBRANCH   6  25
TORSDOF 7
