REMARK  Name = 
REMARK  10 active torsions:
REMARK  status: ('A' for Active; 'I' for Inactive)
REMARK    1  A    between atoms: C_1  and  O_2
REMARK    2  A    between atoms: O_2  and  C_3
REMARK    3  A    between atoms: C_10  and  C_11
REMARK    4  A    between atoms: N_13  and  C_14
REMARK    5  A    between atoms: C_14  and  C_15
REMARK    6  A    between atoms: C_18  and  O_19
REMARK    7  A    between atoms: O_19  and  C_20
REMARK    8  A    between atoms: C_20  and  C_21
REMARK    9  A    between atoms: C_21  and  O_22
REMARK   10  A    between atoms: C_21  and  C_23
REMARK                            x       y       z     vdW  Elec       q    Type
REMARK                         _______ _______ _______ _____ _____    ______ ____
ROOT
ATOM      1  C   UNL     1       1.827  -0.070   3.485  0.00  0.00    +0.000 A 
ATOM      2  C   UNL     1       0.539  -0.542   3.764  0.00  0.00    +0.000 A 
ATOM      3  C   UNL     1      -0.522   0.349   3.959  0.00  0.00    +0.000 A 
ATOM      4  C   UNL     1      -0.314   1.726   3.865  0.00  0.00    +0.000 A 
ATOM      5  C   UNL     1       0.961   2.199   3.547  0.00  0.00    +0.000 A 
ATOM      6  C   UNL     1       2.023   1.310   3.351  0.00  0.00    +0.000 A 
ENDROOT
BRANCH   1   7
ATOM      7  C   UNL     1       2.966  -1.036   3.289  0.00  0.00    +0.000 C 
BRANCH   7  10
ATOM      8  C   UNL     1       3.996  -2.343   1.480  0.00  0.00    +0.000 C 
ATOM      9  O   UNL     1       4.769  -2.883   2.267  0.00  0.00    +0.000 OA
ATOM     10  N   UNL     1       3.082  -1.420   1.906  0.00  0.00    +0.000 N 
ATOM     11  H   UNL     1       2.494  -0.942   1.238  0.00  0.00    +0.000 HD
BRANCH   8  19
ATOM     12  C   UNL     1       2.051  -1.367  -1.189  0.00  0.00    +0.000 A 
ATOM     13  N   UNL     1       1.461  -1.165  -2.383  0.00  0.00    +0.000 NA
ATOM     14  C   UNL     1       1.954  -1.811  -3.444  0.00  0.00    +0.000 A 
ATOM     15  N   UNL     1       2.986  -2.649  -3.463  0.00  0.00    +0.000 NA
ATOM     16  C   UNL     1       3.549  -2.817  -2.255  0.00  0.00    +0.000 A 
ATOM     17  S   UNL     1       4.882  -3.856  -2.090  0.00  0.00    +0.000 S 
ATOM     18  C   UNL     1       4.979  -3.548  -0.423  0.00  0.00    +0.000 A 
ATOM     19  C   UNL     1       4.016  -2.661   0.043  0.00  0.00    +0.000 A 
ATOM     20  C   UNL     1       3.161  -2.222  -1.059  0.00  0.00    +0.000 A 
BRANCH  12  22
ATOM     21  C   UNL     1       0.208  -0.269  -0.249  0.00  0.00    +0.000 C 
ATOM     22  O   UNL     1       1.569  -0.669  -0.101  0.00  0.00    +0.000 OA
ENDBRANCH  12  22
ENDBRANCH   8  19
ENDBRANCH   7  10
ENDBRANCH   1   7
BRANCH   4  23
ATOM     23  O   UNL     1      -1.262   2.692   4.068  0.00  0.00    +0.000 OA
BRANCH  23  24
ATOM     24  C   UNL     1      -2.597   2.234   4.336  0.00  0.00    +0.000 C 
BRANCH  24  25
ATOM     25  C   UNL     1      -3.571   3.425   4.433  0.00  0.00    +0.000 C 
BRANCH  25  26
ATOM     26  C   UNL     1      -3.791   4.250   3.177  0.00  0.00    +0.000 A 
ATOM     27  C   UNL     1      -3.123   4.009   1.968  0.00  0.00    +0.000 A 
ATOM     28  C   UNL     1      -3.386   4.785   0.835  0.00  0.00    +0.000 A 
ATOM     29  C   UNL     1      -4.323   5.811   0.893  0.00  0.00    +0.000 A 
ATOM     30  C   UNL     1      -4.995   6.069   2.084  0.00  0.00    +0.000 A 
ATOM     31  C   UNL     1      -4.729   5.296   3.217  0.00  0.00    +0.000 A 
ENDBRANCH  25  26
BRANCH  25  32
ATOM     32  O   UNL     1      -3.158   4.292   5.492  0.00  0.00    +0.000 OA
ATOM     33  H   UNL     1      -2.319   4.692   5.191  0.00  0.00    +0.000 HD
ENDBRANCH  25  32
ENDBRANCH  24  25
ENDBRANCH  23  24
ENDBRANCH   4  23
TORSDOF 9
