REMARK  Name = 
REMARK  10 active torsions:
REMARK  status: ('A' for Active; 'I' for Inactive)
REMARK    1  A    between atoms: C_1  and  C_2
REMARK    2  A    between atoms: N_6  and  C_7
REMARK    3  A    between atoms: C_7  and  C_8
REMARK    4  A    between atoms: C_8  and  O_9
REMARK    5  A    between atoms: C_8  and  C_10
REMARK    6  A    between atoms: C_13  and  C_14
REMARK    7  A    between atoms: C_14  and  C_15
REMARK    8  A    between atoms: C_15  and  C_16
REMARK    9  A    between atoms: C_15  and  N_17
REMARK   10  A    between atoms: C_18  and  C_20
REMARK                            x       y       z     vdW  Elec       q    Type
REMARK                         _______ _______ _______ _____ _____    ______ ____
ROOT
ATOM      1  C   UNL     1      -0.782   3.548   8.488  0.00  0.00    +0.000 C 
ENDROOT
BRANCH   1   5
ATOM      2  C   UNL     1      -1.652   4.794   4.418  0.00  0.00    +0.000 A 
ATOM      3  C   UNL     1      -0.412   4.219   4.739  0.00  0.00    +0.000 A 
ATOM      4  C   UNL     1      -0.117   3.831   6.051  0.00  0.00    +0.000 A 
ATOM      5  C   UNL     1      -1.052   4.013   7.076  0.00  0.00    +0.000 A 
ATOM      6  C   UNL     1      -2.280   4.602   6.767  0.00  0.00    +0.000 A 
ATOM      7  C   UNL     1      -2.578   4.984   5.458  0.00  0.00    +0.000 A 
BRANCH   2   8
ATOM      8  C   UNL     1      -1.923   5.199   2.974  0.00  0.00    +0.000 C 
BRANCH   8   9
ATOM      9  O   UNL     1      -1.814   4.036   2.152  0.00  0.00    +0.000 OA
ATOM     10  H   UNL     1      -2.583   3.478   2.355  0.00  0.00    +0.000 HD
ENDBRANCH   8   9
BRANCH   8  11
ATOM     11  C   UNL     1      -3.298   5.897   2.770  0.00  0.00    +0.000 C 
BRANCH  11  17
ATOM     12  C   UNL     1      -5.333   8.410   3.518  0.00  0.00    +0.000 C 
ATOM     13  C   UNL     1      -5.177   8.378   1.994  0.00  0.00    +0.000 C 
ATOM     14  C   UNL     1      -4.057   9.318   1.522  0.00  0.00    +0.000 C 
ATOM     15  C   UNL     1      -2.676   8.666   1.545  0.00  0.00    +0.000 C 
ATOM     16  C   UNL     1      -2.697   7.310   0.839  0.00  0.00    +0.000 C 
ATOM     17  N   UNL     1      -3.662   6.375   1.425  0.00  0.00    +0.000 NA
ATOM     18  C   UNL     1      -5.015   6.959   1.400  0.00  0.00    +0.000 C 
ENDBRANCH  11  17
ENDBRANCH   8  11
ENDBRANCH   2   8
ENDBRANCH   1   5
BRANCH   1  19
ATOM     19  C   UNL     1       0.392   4.265   9.178  0.00  0.00    +0.000 C 
ATOM     20  C   UNL     1       0.684   3.642  10.546  0.00  0.00    +0.000 C 
BRANCH  19  21
ATOM     21  N   UNL     1       0.207   5.711   9.267  0.00  0.00    +0.000 N 
ATOM     22  C   UNL     1      -0.776   6.310  10.015  0.00  0.00    +0.000 C 
ATOM     23  O   UNL     1      -1.560   5.675  10.714  0.00  0.00    +0.000 OA
ATOM     24  H   UNL     1       0.626   6.252   8.515  0.00  0.00    +0.000 HD
BRANCH  22  25
ATOM     25  C   UNL     1      -0.817   7.775   9.989  0.00  0.00    +0.000 A 
ATOM     26  C   UNL     1      -1.353   8.457  11.073  0.00  0.00    +0.000 A 
ATOM     27  S   UNL     1      -1.336  10.151  10.891  0.00  0.00    +0.000 S 
ATOM     28  C   UNL     1      -0.648  10.029   9.339  0.00  0.00    +0.000 A 
ATOM     29  N   UNL     1      -0.407  11.141   8.594  0.00  0.00    +0.000 NA
ATOM     30  C   UNL     1       0.074  10.901   7.421  0.00  0.00    +0.000 A 
ATOM     31  N   UNL     1       0.351   9.651   6.929  0.00  0.00    +0.000 N 
ATOM     32  C   UNL     1       0.191   8.507   7.674  0.00  0.00    +0.000 A 
ATOM     33  O   UNL     1       0.569   7.416   7.257  0.00  0.00    +0.000 OA
ATOM     34  C   UNL     1      -0.398   8.716   8.981  0.00  0.00    +0.000 A 
ATOM     35  H   UNL     1       0.760   9.535   6.014  0.00  0.00    +0.000 HD
ENDBRANCH  22  25
ENDBRANCH  19  21
ENDBRANCH   1  19
TORSDOF 8
