REMARK  Name = 
REMARK  10 active torsions:
REMARK  status: ('A' for Active; 'I' for Inactive)
REMARK    1  A    between atoms: N_1  and  C_2
REMARK    2  A    between atoms: C_2  and  C_3
REMARK    3  A    between atoms: C_3  and  N_4
REMARK    4  A    between atoms: N_4  and  C_5
REMARK    5  A    between atoms: N_4  and  C_26
REMARK    6  A    between atoms: C_5  and  C_6
REMARK    7  A    between atoms: C_9  and  C_10
REMARK    8  A    between atoms: C_10  and  N_11
REMARK    9  A    between atoms: C_12  and  C_14
REMARK   10  A    between atoms: C_26  and  C_27
REMARK                            x       y       z     vdW  Elec       q    Type
REMARK                         _______ _______ _______ _____ _____    ______ ____
ROOT
ATOM      1  C   UNL     1       4.506   1.088  -1.038  0.00  0.00    +0.000 A 
ATOM      2  C   UNL     1       4.686  -0.225  -1.490  0.00  0.00    +0.000 A 
ATOM      3  C   UNL     1       4.211  -0.615  -2.752  0.00  0.00    +0.000 A 
ATOM      4  C   UNL     1       3.585   0.310  -3.601  0.00  0.00    +0.000 A 
ATOM      5  C   UNL     1       3.449   1.633  -3.165  0.00  0.00    +0.000 A 
ATOM      6  C   UNL     1       3.905   2.017  -1.903  0.00  0.00    +0.000 A 
ENDROOT
BRANCH   1   7
ATOM      7  C   UNL     1       4.883   1.501   0.376  0.00  0.00    +0.000 C 
BRANCH   7   8
ATOM      8  N   UNL     1       6.280   1.935   0.571  0.00  0.00    +0.000 NA
BRANCH   8   9
ATOM      9  C   UNL     1       6.543   2.220   2.011  0.00  0.00    +0.000 C 
BRANCH   9  10
ATOM     10  C   UNL     1       5.752   3.397   2.646  0.00  0.00    +0.000 C 
BRANCH  10  11
ATOM     11  N   UNL     1       6.113   3.644   4.043  0.00  0.00    +0.000 NA
ATOM     12  H   UNL     1       5.556   4.435   4.379  0.00  0.00    +0.000 HD
ATOM     13  H   UNL     1       7.080   3.968   4.079  0.00  0.00    +0.000 HD
ENDBRANCH  10  11
ENDBRANCH   9  10
ENDBRANCH   8   9
BRANCH   8  14
ATOM     14  C   UNL     1       6.587   3.108  -0.274  0.00  0.00    +0.000 C 
BRANCH  14  15
ATOM     15  C   UNL     1       8.023   3.590  -0.226  0.00  0.00    +0.000 A 
ATOM     16  C   UNL     1       9.063   2.741  -0.601  0.00  0.00    +0.000 A 
ATOM     17  C   UNL     1      10.360   3.242  -0.624  0.00  0.00    +0.000 A 
ATOM     18  C   UNL     1      10.582   4.570  -0.277  0.00  0.00    +0.000 A 
ATOM     19  C   UNL     1       9.494   5.341   0.097  0.00  0.00    +0.000 A 
ATOM     20  N   UNL     1       8.226   4.884   0.136  0.00  0.00    +0.000 NA
ENDBRANCH  14  15
ENDBRANCH   8  14
ENDBRANCH   7   8
ENDBRANCH   1   7
BRANCH   4  21
ATOM     21  C   UNL     1       3.012  -0.100  -4.934  0.00  0.00    +0.000 C 
BRANCH  21  22
ATOM     22  N   UNL     1       1.633  -0.507  -4.807  0.00  0.00    +0.000 N 
ATOM     23  C   UNL     1       0.913  -0.949  -5.887  0.00  0.00    +0.000 C 
ATOM     24  O   UNL     1       1.402  -1.039  -7.010  0.00  0.00    +0.000 OA
ATOM     25  H   UNL     1       1.136  -0.189  -3.980  0.00  0.00    +0.000 HD
BRANCH  23  26
ATOM     26  C   UNL     1      -0.466  -1.379  -5.614  0.00  0.00    +0.000 A 
ATOM     27  C   UNL     1      -1.074  -2.317  -6.436  0.00  0.00    +0.000 A 
ATOM     28  S   UNL     1      -2.653  -2.735  -5.943  0.00  0.00    +0.000 S 
ATOM     29  C   UNL     1      -2.595  -1.633  -4.641  0.00  0.00    +0.000 A 
ATOM     30  N   UNL     1      -3.666  -1.472  -3.820  0.00  0.00    +0.000 NA
ATOM     31  C   UNL     1      -3.490  -0.583  -2.897  0.00  0.00    +0.000 A 
ATOM     32  N   UNL     1      -2.347   0.145  -2.717  0.00  0.00    +0.000 N 
ATOM     33  C   UNL     1      -1.229  -0.011  -3.505  0.00  0.00    +0.000 A 
ATOM     34  O   UNL     1      -0.203   0.619  -3.285  0.00  0.00    +0.000 OA
ATOM     35  C   UNL     1      -1.380  -0.982  -4.572  0.00  0.00    +0.000 A 
ATOM     36  H   UNL     1      -2.271   0.817  -1.968  0.00  0.00    +0.000 HD
ENDBRANCH  23  26
ENDBRANCH  21  22
ENDBRANCH   4  21
TORSDOF 10
