REMARK  Name = 
REMARK  5 active torsions:
REMARK  status: ('A' for Active; 'I' for Inactive)
REMARK    1  A    between atoms: N_1  and  C_2
REMARK    2  A    between atoms: C_2  and  C_3
REMARK    3  A    between atoms: C_6  and  O_7
REMARK    4  A    between atoms: O_7  and  C_8
REMARK    5  A    between atoms: C_8  and  C_9
REMARK                            x       y       z     vdW  Elec       q    Type
REMARK                         _______ _______ _______ _____ _____    ______ ____
ROOT
ATOM      1  C   UNL     1       2.918  -1.126  -0.818  0.00  0.00    +0.000 A 
ATOM      2  C   UNL     1       3.952  -1.076  -1.764  0.00  0.00    +0.000 A 
ATOM      3  C   UNL     1       4.384  -2.240  -2.407  0.00  0.00    +0.000 A 
ATOM      4  C   UNL     1       3.799  -3.467  -2.103  0.00  0.00    +0.000 A 
ATOM      5  C   UNL     1       2.737  -3.518  -1.200  0.00  0.00    +0.000 A 
ATOM      6  C   UNL     1       2.307  -2.357  -0.554  0.00  0.00    +0.000 A 
ENDROOT
BRANCH   1   7
ATOM      7  C   UNL     1       2.484   0.113  -0.078  0.00  0.00    +0.000 C 
BRANCH   7   8
ATOM      8  N   UNL     1       1.975   1.134  -0.984  0.00  0.00    +0.000 NA
ATOM      9  H   UNL     1       1.611   1.911  -0.436  0.00  0.00    +0.000 HD
ATOM     10  H   UNL     1       1.185   0.749  -1.500  0.00  0.00    +0.000 HD
ENDBRANCH   7   8
ENDBRANCH   1   7
BRANCH   4  11
ATOM     11  O   UNL     1       4.333  -4.554  -2.745  0.00  0.00    +0.000 OA
BRANCH  11  12
ATOM     12  C   UNL     1       4.091  -5.813  -2.114  0.00  0.00    +0.000 C 
BRANCH  12  13
ATOM     13  C   UNL     1       5.104  -6.814  -2.589  0.00  0.00    +0.000 A 
ATOM     14  C   UNL     1       6.476  -6.564  -2.486  0.00  0.00    +0.000 A 
ATOM     15  C   UNL     1       7.386  -7.539  -2.882  0.00  0.00    +0.000 A 
ATOM     16  C   UNL     1       6.891  -8.737  -3.365  0.00  0.00    +0.000 A 
ATOM     17  N   UNL     1       5.574  -9.020  -3.472  0.00  0.00    +0.000 NA
ATOM     18  C   UNL     1       4.713  -8.053  -3.083  0.00  0.00    +0.000 A 
ENDBRANCH  12  13
ENDBRANCH  11  12
ENDBRANCH   4  11
TORSDOF 5
