REMARK  Name = 
REMARK  5 active torsions:
REMARK  status: ('A' for Active; 'I' for Inactive)
REMARK    1  A    between atoms: C_2  and  C_4
REMARK    2  A    between atoms: C_7  and  O_8
REMARK    3  A    between atoms: O_8  and  C_9
REMARK    4  A    between atoms: C_9  and  C_10
REMARK    5  A    between atoms: C_14  and  C_15
REMARK                            x       y       z     vdW  Elec       q    Type
REMARK                         _______ _______ _______ _____ _____    ______ ____
ROOT
ATOM      1  C   UNL     1       4.640   4.467  -3.978  0.00  0.00    +0.000 C 
ENDROOT
BRANCH   1   2
ATOM      2  C   UNL     1       5.424   5.126  -5.081  0.00  0.00    +0.000 A 
ATOM      3  C   UNL     1       6.209   4.370  -5.943  0.00  0.00    +0.000 A 
ATOM      4  N   UNL     1       6.904   4.887  -6.977  0.00  0.00    +0.000 NA
ATOM      5  C   UNL     1       6.807   6.226  -7.166  0.00  0.00    +0.000 A 
ATOM      6  C   UNL     1       6.033   7.095  -6.393  0.00  0.00    +0.000 A 
ATOM      7  C   UNL     1       5.326   6.496  -5.340  0.00  0.00    +0.000 A 
BRANCH   6   8
ATOM      8  C   UNL     1       5.950   8.546  -6.659  0.00  0.00    +0.000 A 
ATOM      9  C   UNL     1       6.068   9.064  -7.962  0.00  0.00    +0.000 A 
ATOM     10  C   UNL     1       5.974  10.437  -8.213  0.00  0.00    +0.000 A 
ATOM     11  C   UNL     1       5.749  11.324  -7.166  0.00  0.00    +0.000 A 
ATOM     12  C   UNL     1       5.629  10.836  -5.870  0.00  0.00    +0.000 A 
ATOM     13 CL   UNL     1       5.341  11.923  -4.567  0.00  0.00    +0.000 Cl
ATOM     14  C   UNL     1       5.735   9.468  -5.616  0.00  0.00    +0.000 A 
ENDBRANCH   6   8
ENDBRANCH   1   2
BRANCH   1  15
ATOM     15  O   UNL     1       4.496   5.349  -2.853  0.00  0.00    +0.000 OA
BRANCH  15  19
ATOM     16  C   UNL     1       2.273   3.650   0.169  0.00  0.00    +0.000 A 
ATOM     17  C   UNL     1       2.761   4.950   0.327  0.00  0.00    +0.000 A 
ATOM     18  C   UNL     1       3.517   5.522  -0.700  0.00  0.00    +0.000 A 
ATOM     19  C   UNL     1       3.756   4.769  -1.844  0.00  0.00    +0.000 A 
ATOM     20  N   UNL     1       3.304   3.509  -2.009  0.00  0.00    +0.000 NA
ATOM     21  C   UNL     1       2.584   2.972  -0.999  0.00  0.00    +0.000 A 
BRANCH  16  23
ATOM     22  N   UNL     1       0.666   3.743   1.981  0.00  0.00    +0.000 N 
ATOM     23  C   UNL     1       1.450   2.955   1.184  0.00  0.00    +0.000 C 
ATOM     24  O   UNL     1       1.431   1.737   1.269  0.00  0.00    +0.000 OA
ATOM     25  H   UNL     1       0.020   3.259   2.592  0.00  0.00    +0.000 HD
ATOM     26  H   UNL     1       0.463   4.707   1.760  0.00  0.00    +0.000 HD
ENDBRANCH  16  23
ENDBRANCH  15  19
ENDBRANCH   1  15
TORSDOF 5
