REMARK  Name = 
REMARK  8 active torsions:
REMARK  status: ('A' for Active; 'I' for Inactive)
REMARK    1  A    between atoms: C_1  and  C_2
REMARK    2  A    between atoms: C_2  and  O_3
REMARK    3  A    between atoms: O_3  and  C_4
REMARK    4  A    between atoms: C_8  and  C_9
REMARK    5  A    between atoms: C_9  and  C_10
REMARK    6  A    between atoms: C_10  and  N_11
REMARK    7  A    between atoms: N_11  and  C_12
REMARK    8  A    between atoms: C_15  and  C_16
REMARK                            x       y       z     vdW  Elec       q    Type
REMARK                         _______ _______ _______ _____ _____    ______ ____
ROOT
ATOM      1  C   UNL     1       5.550   1.228  -6.024  0.00  0.00    +0.000 C 
ENDROOT
BRANCH   1   2
ATOM      2  N   UNL     1       5.891   2.125  -7.132  0.00  0.00    +0.000 N 
ATOM      3  H   UNL     1       6.875   2.385  -7.133  0.00  0.00    +0.000 HD
BRANCH   2   4
ATOM      4  C   UNL     1       5.471   1.732  -8.418  0.00  0.00    +0.000 A 
ATOM      5  C   UNL     1       4.301   0.997  -8.646  0.00  0.00    +0.000 A 
ATOM      6  C   UNL     1       3.883   0.676  -9.942  0.00  0.00    +0.000 A 
ATOM      7  C   UNL     1       4.605   1.119 -11.049  0.00  0.00    +0.000 A 
ATOM      8  C   UNL     1       5.757   1.884 -10.846  0.00  0.00    +0.000 A 
ATOM      9  C   UNL     1       6.172   2.199  -9.540  0.00  0.00    +0.000 A 
BRANCH   7  10
ATOM     10  C   UNL     1       4.107   0.747 -12.398  0.00  0.00    +0.000 C 
ATOM     11  N   UNL     1       4.452   1.561 -13.443  0.00  0.00    +0.000 N 
ATOM     12  O   UNL     1       3.380  -0.223 -12.577  0.00  0.00    +0.000 OA
ATOM     13  H   UNL     1       4.821   2.493 -13.306  0.00  0.00    +0.000 HD
ATOM     14  H   UNL     1       3.995   1.366 -14.325  0.00  0.00    +0.000 HD
ENDBRANCH   7  10
ENDBRANCH   2   4
ENDBRANCH   1   2
BRANCH   1  15
ATOM     15  C   UNL     1       6.075   1.760  -4.684  0.00  0.00    +0.000 C 
BRANCH  15  20
ATOM     16  C   UNL     1       4.113  -0.130  -1.998  0.00  0.00    +0.000 A 
ATOM     17  C   UNL     1       5.000  -1.162  -1.700  0.00  0.00    +0.000 A 
ATOM     18  C   UNL     1       6.254  -1.209  -2.311  0.00  0.00    +0.000 A 
ATOM     19  C   UNL     1       6.619  -0.240  -3.244  0.00  0.00    +0.000 A 
ATOM     20  C   UNL     1       5.729   0.788  -3.578  0.00  0.00    +0.000 A 
ATOM     21  C   UNL     1       4.478   0.838  -2.941  0.00  0.00    +0.000 A 
BRANCH  16  22
ATOM     22  O   UNL     1       2.861   0.024  -1.453  0.00  0.00    +0.000 OA
BRANCH  22  24
ATOM     23  C   UNL     1       1.915  -2.113  -0.708  0.00  0.00    +0.000 C 
ATOM     24  C   UNL     1       2.452  -0.747  -0.289  0.00  0.00    +0.000 C 
ATOM     25  C   UNL     1       3.330  -0.685   0.985  0.00  0.00    +0.000 C 
ATOM     26  O   UNL     1       2.419   0.230   1.635  0.00  0.00    +0.000 OA
ATOM     27  C   UNL     1       1.428  -0.007   0.609  0.00  0.00    +0.000 C 
ENDBRANCH  22  24
ENDBRANCH  16  22
ENDBRANCH  15  20
ENDBRANCH   1  15
TORSDOF 7
