REMARK  Name = 
REMARK  8 active torsions:
REMARK  status: ('A' for Active; 'I' for Inactive)
REMARK    1  A    between atoms: C_1  and  S_2
REMARK    2  A    between atoms: S_2  and  C_3
REMARK    3  A    between atoms: C_5  and  C_6
REMARK    4  A    between atoms: C_11  and  N_12
REMARK    5  A    between atoms: N_12  and  C_13
REMARK    6  A    between atoms: C_13  and  C_14
REMARK    7  A    between atoms: C_17  and  O_18
REMARK    8  A    between atoms: O_18  and  C_19
REMARK                            x       y       z     vdW  Elec       q    Type
REMARK                         _______ _______ _______ _____ _____    ______ ____
ROOT
ATOM      1  N   UNL     1       4.062  -0.504  -2.363  0.00  0.00    +0.000 N 
ATOM      2  H   UNL     1       3.513  -0.634  -3.208  0.00  0.00    +0.000 HD
ENDROOT
BRANCH   1   8
ATOM      3  C   UNL     1       5.643   1.319  -1.616  0.00  0.00    +0.000 A 
ATOM      4  C   UNL     1       6.114   2.604  -1.951  0.00  0.00    +0.000 A 
ATOM      5  C   UNL     1       5.644   3.281  -3.078  0.00  0.00    +0.000 A 
ATOM      6  C   UNL     1       4.706   2.626  -3.845  0.00  0.00    +0.000 A 
ATOM      7  N   UNL     1       4.237   1.387  -3.564  0.00  0.00    +0.000 NA
ATOM      8  C   UNL     1       4.697   0.724  -2.466  0.00  0.00    +0.000 A 
BRANCH   5   9
ATOM      9  C   UNL     1       6.169   4.635  -3.383  0.00  0.00    +0.000 C 
ATOM     10  N   UNL     1       5.701   5.298  -4.479  0.00  0.00    +0.000 N 
ATOM     11  O   UNL     1       7.005   5.163  -2.664  0.00  0.00    +0.000 OA
ATOM     12  H   UNL     1       5.015   4.967  -5.137  0.00  0.00    +0.000 HD
ATOM     13  H   UNL     1       6.095   6.217  -4.644  0.00  0.00    +0.000 HD
ENDBRANCH   5   9
BRANCH   3  15
ATOM     14  C   UNL     1       5.490   1.426   1.143  0.00  0.00    +0.000 C 
ATOM     15  S   UNL     1       6.409   0.598  -0.173  0.00  0.00    +0.000 S 
ENDBRANCH   3  15
ENDBRANCH   1   8
BRANCH   1  16
ATOM     16  C   UNL     1       4.234  -1.654  -1.486  0.00  0.00    +0.000 C 
ATOM     17  C   UNL     1       2.908  -2.197  -0.932  0.00  0.00    +0.000 C 
ATOM     18  C   UNL     1       3.917  -1.619  -0.004  0.00  0.00    +0.000 C 
BRANCH  16  19
ATOM     19  C   UNL     1       5.243  -2.693  -1.985  0.00  0.00    +0.000 A 
ATOM     20  C   UNL     1       6.588  -2.654  -1.589  0.00  0.00    +0.000 A 
ATOM     21  C   UNL     1       7.523  -3.614  -1.983  0.00  0.00    +0.000 A 
ATOM     22  C   UNL     1       7.117  -4.700  -2.742  0.00  0.00    +0.000 A 
ATOM     23  C   UNL     1       5.798  -4.743  -3.199  0.00  0.00    +0.000 A 
ATOM     24  C   UNL     1       4.878  -3.748  -2.836  0.00  0.00    +0.000 A 
BRANCH  22  25
ATOM     25  O   UNL     1       7.901  -5.749  -3.108  0.00  0.00    +0.000 OA
BRANCH  25  26
ATOM     26  C   UNL     1       8.989  -6.121  -2.269  0.00  0.00    +0.000 C 
ATOM     27  F   UNL     1       8.955  -5.577  -1.034  0.00  0.00    +0.000 F 
ATOM     28  F   UNL     1       8.968  -7.465  -2.117  0.00  0.00    +0.000 F 
ATOM     29  F   UNL     1      10.155  -5.784  -2.862  0.00  0.00    +0.000 F 
ENDBRANCH  25  26
ENDBRANCH  22  25
ENDBRANCH  16  19
ENDBRANCH   1  16
TORSDOF 7
