REMARK  Name = 
REMARK  6 active torsions:
REMARK  status: ('A' for Active; 'I' for Inactive)
REMARK    1  A    between atoms: C_2  and  C_19
REMARK    2  A    between atoms: N_3  and  C_4
REMARK    3  A    between atoms: C_4  and  C_5
REMARK    4  A    between atoms: C_8  and  C_9
REMARK    5  A    between atoms: C_9  and  O_10
REMARK    6  A    between atoms: C_9  and  C_11
REMARK                            x       y       z     vdW  Elec       q    Type
REMARK                         _______ _______ _______ _____ _____    ______ ____
ROOT
ATOM      1  C   UNL     1       2.283   2.075   1.447  0.00  0.00    +0.000 C 
ENDROOT
BRANCH   1   2
ATOM      2  C   UNL     1       3.210   3.083   2.073  0.00  0.00    +0.000 A 
ATOM      3  C   UNL     1       3.035   4.450   1.827  0.00  0.00    +0.000 A 
ATOM      4  C   UNL     1       3.853   5.396   2.451  0.00  0.00    +0.000 A 
ATOM      5  C   UNL     1       4.879   4.995   3.321  0.00  0.00    +0.000 A 
ATOM      6  C   UNL     1       5.088   3.620   3.518  0.00  0.00    +0.000 A 
ATOM      7  C   UNL     1       4.263   2.675   2.902  0.00  0.00    +0.000 A 
BRANCH   5   8
ATOM      8  C   UNL     1       5.724   6.040   4.036  0.00  0.00    +0.000 C 
BRANCH   8   9
ATOM      9  C   UNL     1       7.205   5.970   3.699  0.00  0.00    +0.000 A 
ATOM     10  C   UNL     1       7.631   6.173   2.376  0.00  0.00    +0.000 A 
ATOM     11  C   UNL     1       8.984   6.085   2.040  0.00  0.00    +0.000 A 
ATOM     12  C   UNL     1       9.930   5.803   3.022  0.00  0.00    +0.000 A 
ATOM     13  C   UNL     1       9.528   5.623   4.343  0.00  0.00    +0.000 A 
ATOM     14  C   UNL     1       8.177   5.711   4.680  0.00  0.00    +0.000 A 
ENDBRANCH   8   9
BRANCH   8  15
ATOM     15  O   UNL     1       5.527   5.936   5.450  0.00  0.00    +0.000 OA
ATOM     16  H   UNL     1       5.259   5.022   5.638  0.00  0.00    +0.000 HD
ENDBRANCH   8  15
ENDBRANCH   5   8
ENDBRANCH   1   2
BRANCH   1  19
ATOM     17  O   UNL     1       1.400   3.123  -1.007  0.00  0.00    +0.000 OA
ATOM     18  C   UNL     1       2.270   2.256  -1.011  0.00  0.00    +0.000 C 
ATOM     19  N   UNL     1       2.732   1.673   0.141  0.00  0.00    +0.000 N 
ATOM     20  H   UNL     1       3.564   1.094   0.107  0.00  0.00    +0.000 HD
BRANCH  18  21
ATOM     21  C   UNL     1       2.830   1.746  -2.267  0.00  0.00    +0.000 A 
ATOM     22  C   UNL     1       2.106   1.877  -3.446  0.00  0.00    +0.000 A 
ATOM     23  S   UNL     1       2.902   1.236  -4.810  0.00  0.00    +0.000 S 
ATOM     24  C   UNL     1       4.258   0.801  -3.884  0.00  0.00    +0.000 A 
ATOM     25  N   UNL     1       5.349   0.231  -4.466  0.00  0.00    +0.000 NA
ATOM     26  C   UNL     1       6.321  -0.010  -3.651  0.00  0.00    +0.000 A 
ATOM     27  N   UNL     1       6.298   0.253  -2.302  0.00  0.00    +0.000 N 
ATOM     28  C   UNL     1       5.188   0.742  -1.661  0.00  0.00    +0.000 A 
ATOM     29  O   UNL     1       5.143   0.815  -0.438  0.00  0.00    +0.000 OA
ATOM     30  C   UNL     1       4.092   1.098  -2.538  0.00  0.00    +0.000 A 
ATOM     31  H   UNL     1       7.078  -0.002  -1.717  0.00  0.00    +0.000 HD
ENDBRANCH  18  21
ENDBRANCH   1  19
TORSDOF 6
