REMARK  Name = 
REMARK  8 active torsions:
REMARK  status: ('A' for Active; 'I' for Inactive)
REMARK    1  A    between atoms: C_1  and  N_2
REMARK    2  A    between atoms: N_2  and  C_3
REMARK    3  A    between atoms: C_3  and  C_4
REMARK    4  A    between atoms: C_7  and  C_8
REMARK    5  A    between atoms: C_8  and  N_9
REMARK    6  A    between atoms: N_9  and  C_10
REMARK    7  A    between atoms: C_10  and  C_11
REMARK    8  A    between atoms: C_18  and  C_20
REMARK                            x       y       z     vdW  Elec       q    Type
REMARK                         _______ _______ _______ _____ _____    ______ ____
ROOT
ATOM      1  C   UNL     1       3.187   0.843  -0.955  0.00  0.00    +0.000 C 
ENDROOT
BRANCH   1   2
ATOM      2  C   UNL     1       2.271   1.758  -1.725  0.00  0.00    +0.000 A 
ATOM      3  C   UNL     1       1.227   1.220  -2.487  0.00  0.00    +0.000 A 
ATOM      4  C   UNL     1       0.338   2.059  -3.153  0.00  0.00    +0.000 A 
ATOM      5  C   UNL     1       0.453   3.453  -3.051  0.00  0.00    +0.000 A 
ATOM      6  C   UNL     1       1.526   3.988  -2.323  0.00  0.00    +0.000 A 
ATOM      7  C   UNL     1       2.429   3.147  -1.666  0.00  0.00    +0.000 A 
BRANCH   5   8
ATOM      8  C   UNL     1      -0.534   4.370  -3.743  0.00  0.00    +0.000 C 
BRANCH   8   9
ATOM      9  N   UNL     1      -1.865   3.768  -3.779  0.00  0.00    +0.000 NA
ATOM     10  H   UNL     1      -2.190   3.639  -2.819  0.00  0.00    +0.000 HD
BRANCH   9  11
ATOM     11  C   UNL     1      -2.846   4.599  -4.479  0.00  0.00    +0.000 C 
BRANCH  11  12
ATOM     12  C   UNL     1      -4.189   3.852  -4.504  0.00  0.00    +0.000 C 
ATOM     13  C   UNL     1      -5.307   4.633  -5.172  0.00  0.00    +0.000 C 
ATOM     14  C   UNL     1      -6.543   3.884  -4.707  0.00  0.00    +0.000 C 
ATOM     15  C   UNL     1      -6.164   3.315  -3.345  0.00  0.00    +0.000 C 
ATOM     16  N   UNL     1      -4.740   3.605  -3.159  0.00  0.00    +0.000 NA
ATOM     17  H   UNL     1      -4.265   2.807  -2.738  0.00  0.00    +0.000 HD
ENDBRANCH  11  12
ENDBRANCH   9  11
ENDBRANCH   8   9
ENDBRANCH   5   8
ENDBRANCH   1   2
BRANCH   1  19
ATOM     18  C   UNL     1       4.640   0.716  -3.018  0.00  0.00    +0.000 C 
ATOM     19  N   UNL     1       4.399   0.366  -1.623  0.00  0.00    +0.000 N 
ATOM     20  C   UNL     1       5.479  -0.202  -0.924  0.00  0.00    +0.000 C 
ATOM     21  O   UNL     1       6.562  -0.399  -1.470  0.00  0.00    +0.000 OA
BRANCH  20  22
ATOM     22  C   UNL     1       5.294  -0.607   0.478  0.00  0.00    +0.000 A 
ATOM     23  C   UNL     1       4.204  -1.317   0.953  0.00  0.00    +0.000 A 
ATOM     24  S   UNL     1       4.311  -1.707   2.612  0.00  0.00    +0.000 S 
ATOM     25  C   UNL     1       5.885  -1.068   2.713  0.00  0.00    +0.000 A 
ATOM     26  N   UNL     1       6.614  -1.176   3.854  0.00  0.00    +0.000 NA
ATOM     27  C   UNL     1       7.813  -0.710   3.763  0.00  0.00    +0.000 A 
ATOM     28  N   UNL     1       8.333  -0.106   2.645  0.00  0.00    +0.000 N 
ATOM     29  C   UNL     1       7.588   0.151   1.516  0.00  0.00    +0.000 A 
ATOM     30  O   UNL     1       8.002   0.901   0.642  0.00  0.00    +0.000 OA
ATOM     31  C   UNL     1       6.277  -0.474   1.526  0.00  0.00    +0.000 A 
ATOM     32  H   UNL     1       9.255   0.303   2.663  0.00  0.00    +0.000 HD
ENDBRANCH  20  22
ENDBRANCH   1  19
TORSDOF 7
