REMARK  Name = 
REMARK  9 active torsions:
REMARK  status: ('A' for Active; 'I' for Inactive)
REMARK    1  A    between atoms: C_1  and  O_2
REMARK    2  A    between atoms: O_2  and  C_3
REMARK    3  A    between atoms: C_10  and  C_11
REMARK    4  A    between atoms: N_13  and  C_14
REMARK    5  A    between atoms: C_14  and  C_15
REMARK    6  A    between atoms: C_18  and  N_19
REMARK    7  A    between atoms: N_19  and  C_20
REMARK    8  A    between atoms: C_20  and  C_21
REMARK    9  A    between atoms: C_25  and  C_26
REMARK                            x       y       z     vdW  Elec       q    Type
REMARK                         _______ _______ _______ _____ _____    ______ ____
ROOT
ATOM      1  C   UNL     1       2.388  -3.043   1.745  0.00  0.00    +0.000 A 
ATOM      2  C   UNL     1       1.628  -4.095   2.269  0.00  0.00    +0.000 A 
ATOM      3  C   UNL     1       0.764  -3.882   3.347  0.00  0.00    +0.000 A 
ATOM      4  C   UNL     1       0.661  -2.625   3.948  0.00  0.00    +0.000 A 
ATOM      5  C   UNL     1       1.341  -1.556   3.352  0.00  0.00    +0.000 A 
ATOM      6  C   UNL     1       2.207  -1.760   2.272  0.00  0.00    +0.000 A 
ENDROOT
BRANCH   4   7
ATOM      7  N   UNL     1      -0.179  -2.341   5.032  0.00  0.00    +0.000 N 
ATOM      8  H   UNL     1      -1.060  -1.970   4.675  0.00  0.00    +0.000 HD
BRANCH   7   9
ATOM      9  C   UNL     1      -0.398  -3.382   6.035  0.00  0.00    +0.000 C 
BRANCH   9  10
ATOM     10  C   UNL     1       0.087  -2.902   7.418  0.00  0.00    +0.000 C 
ATOM     11  C   UNL     1      -0.073  -4.026   8.459  0.00  0.00    +0.000 C 
ATOM     12  C   UNL     1      -1.538  -4.262   8.830  0.00  0.00    +0.000 C 
ATOM     13  N   UNL     1      -2.164  -3.015   9.266  0.00  0.00    +0.000 N 
ATOM     14  C   UNL     1      -2.786  -2.775  10.481  0.00  0.00    +0.000 C 
ATOM     15  C   UNL     1      -2.845  -3.857  11.532  0.00  0.00    +0.000 C 
ATOM     16  O   UNL     1      -3.299  -1.684  10.746  0.00  0.00    +0.000 OA
ATOM     17  C   UNL     1      -2.087  -1.919   8.296  0.00  0.00    +0.000 C 
ATOM     18  C   UNL     1      -0.633  -1.639   7.924  0.00  0.00    +0.000 C 
ENDBRANCH   9  10
ENDBRANCH   7   9
ENDBRANCH   4   7
BRANCH   1  19
ATOM     19  C   UNL     1       3.370  -3.303   0.635  0.00  0.00    +0.000 C 
BRANCH  19  22
ATOM     20  C   UNL     1       2.234  -4.179  -1.377  0.00  0.00    +0.000 C 
ATOM     21  O   UNL     1       2.202  -5.322  -0.926  0.00  0.00    +0.000 OA
ATOM     22  N   UNL     1       2.773  -3.143  -0.666  0.00  0.00    +0.000 N 
ATOM     23  H   UNL     1       2.730  -2.205  -1.033  0.00  0.00    +0.000 HD
BRANCH  20  31
ATOM     24  C   UNL     1       2.037  -1.290  -3.246  0.00  0.00    +0.000 A 
ATOM     25  N   UNL     1       1.918  -0.351  -4.206  0.00  0.00    +0.000 NA
ATOM     26  C   UNL     1       1.427  -0.723  -5.391  0.00  0.00    +0.000 A 
ATOM     27  N   UNL     1       1.015  -1.938  -5.741  0.00  0.00    +0.000 NA
ATOM     28  C   UNL     1       1.161  -2.846  -4.761  0.00  0.00    +0.000 A 
ATOM     29  S   UNL     1       0.679  -4.451  -5.029  0.00  0.00    +0.000 S 
ATOM     30  C   UNL     1       1.177  -4.912  -3.472  0.00  0.00    +0.000 A 
ATOM     31  C   UNL     1       1.720  -3.874  -2.723  0.00  0.00    +0.000 A 
ATOM     32  C   UNL     1       1.680  -2.628  -3.488  0.00  0.00    +0.000 A 
BRANCH  24  34
ATOM     33  C   UNL     1       2.350   0.474  -1.745  0.00  0.00    +0.000 C 
ATOM     34  O   UNL     1       2.557  -0.908  -2.027  0.00  0.00    +0.000 OA
ENDBRANCH  24  34
ENDBRANCH  20  31
ENDBRANCH  19  22
ENDBRANCH   1  19
TORSDOF 7
