REMARK  Name = 
REMARK  8 active torsions:
REMARK  status: ('A' for Active; 'I' for Inactive)
REMARK    1  A    between atoms: C_1  and  C_2
REMARK    2  A    between atoms: C_2  and  N_3
REMARK    3  A    between atoms: C_2  and  C_26
REMARK    4  A    between atoms: N_3  and  C_4
REMARK    5  A    between atoms: C_4  and  C_5
REMARK    6  A    between atoms: C_8  and  C_9
REMARK    7  A    between atoms: C_9  and  N_10
REMARK    8  A    between atoms: C_11  and  C_13
REMARK                            x       y       z     vdW  Elec       q    Type
REMARK                         _______ _______ _______ _____ _____    ______ ____
ROOT
ATOM      1  C   UNL     1      -1.009   0.272   1.416  0.00  0.00    +0.000 A 
ATOM      2  C   UNL     1      -1.794  -0.561   2.229  0.00  0.00    +0.000 A 
ATOM      3  C   UNL     1      -3.186  -0.434   2.254  0.00  0.00    +0.000 A 
ATOM      4  C   UNL     1      -3.828   0.522   1.455  0.00  0.00    +0.000 A 
ATOM      5  C   UNL     1      -3.040   1.353   0.656  0.00  0.00    +0.000 A 
ATOM      6  F   UNL     1      -3.616   2.299  -0.100  0.00  0.00    +0.000 F 
ATOM      7  C   UNL     1      -1.650   1.234   0.627  0.00  0.00    +0.000 A 
ENDROOT
BRANCH   1   8
ATOM      8  C   UNL     1       0.499   0.173   1.441  0.00  0.00    +0.000 C 
BRANCH   8   9
ATOM      9  N   UNL     1       0.951  -1.172   1.098  0.00  0.00    +0.000 NA
ATOM     10  H   UNL     1       0.606  -1.398   0.162  0.00  0.00    +0.000 HD
BRANCH   9  12
ATOM     11  C   UNL     1       3.088  -0.972   2.409  0.00  0.00    +0.000 C 
ATOM     12  C   UNL     1       2.423  -1.303   1.066  0.00  0.00    +0.000 C 
BRANCH  12  13
ATOM     13  C   UNL     1       2.829  -2.717   0.649  0.00  0.00    +0.000 A 
ATOM     14  C   UNL     1       2.376  -3.825   1.368  0.00  0.00    +0.000 A 
ATOM     15  C   UNL     1       2.794  -5.096   0.991  0.00  0.00    +0.000 A 
ATOM     16  C   UNL     1       3.646  -5.234  -0.096  0.00  0.00    +0.000 A 
ATOM     17  C   UNL     1       4.040  -4.089  -0.767  0.00  0.00    +0.000 A 
ATOM     18  N   UNL     1       3.655  -2.839  -0.422  0.00  0.00    +0.000 NA
ENDBRANCH  12  13
ENDBRANCH   9  12
ENDBRANCH   8   9
ENDBRANCH   1   8
BRANCH   4  19
ATOM     19  C   UNL     1      -5.323   0.670   1.499  0.00  0.00    +0.000 C 
BRANCH  19  20
ATOM     20  N   UNL     1      -5.710   1.592   2.537  0.00  0.00    +0.000 N 
ATOM     21  C   UNL     1      -6.903   1.497   3.209  0.00  0.00    +0.000 C 
ATOM     22  O   UNL     1      -7.690   0.573   3.035  0.00  0.00    +0.000 OA
ATOM     23  H   UNL     1      -5.237   2.489   2.519  0.00  0.00    +0.000 HD
BRANCH  21  24
ATOM     24  C   UNL     1      -7.142   2.537   4.218  0.00  0.00    +0.000 A 
ATOM     25  C   UNL     1      -7.939   2.267   5.322  0.00  0.00    +0.000 A 
ATOM     26  S   UNL     1      -8.048   3.571   6.417  0.00  0.00    +0.000 S 
ATOM     27  C   UNL     1      -7.074   4.558   5.429  0.00  0.00    +0.000 A 
ATOM     28  N   UNL     1      -6.779   5.838   5.783  0.00  0.00    +0.000 NA
ATOM     29  C   UNL     1      -6.047   6.473   4.928  0.00  0.00    +0.000 A 
ATOM     30  N   UNL     1      -5.583   5.945   3.752  0.00  0.00    +0.000 N 
ATOM     31  C   UNL     1      -5.840   4.656   3.362  0.00  0.00    +0.000 A 
ATOM     32  O   UNL     1      -5.378   4.198   2.322  0.00  0.00    +0.000 OA
ATOM     33  C   UNL     1      -6.661   3.896   4.287  0.00  0.00    +0.000 A 
ATOM     34  H   UNL     1      -5.000   6.490   3.131  0.00  0.00    +0.000 HD
ENDBRANCH  21  24
ENDBRANCH  19  20
ENDBRANCH   4  19
TORSDOF 7
