REMARK  Name = 
REMARK  5 active torsions:
REMARK  status: ('A' for Active; 'I' for Inactive)
REMARK    1  A    between atoms: C_2  and  C_4
REMARK    2  A    between atoms: C_7  and  N_8
REMARK    3  A    between atoms: N_8  and  C_9
REMARK    4  A    between atoms: C_9  and  C_10
REMARK    5  A    between atoms: C_13  and  C_14
REMARK                            x       y       z     vdW  Elec       q    Type
REMARK                         _______ _______ _______ _____ _____    ______ ____
ROOT
ATOM      1  C   UNL     1       5.922  -1.913   4.975  0.00  0.00    +0.000 C 
ATOM      2  C   UNL     1       5.935  -0.657   5.844  0.00  0.00    +0.000 C 
ATOM      3  C   UNL     1       6.805  -0.729   4.641  0.00  0.00    +0.000 C 
ATOM      4  F   UNL     1       8.167  -0.838   4.861  0.00  0.00    +0.000 F 
ENDROOT
BRANCH   1   5
ATOM      5  C   UNL     1       6.560  -3.182   5.527  0.00  0.00    +0.000 A 
ATOM      6  C   UNL     1       6.261  -3.683   6.801  0.00  0.00    +0.000 A 
ATOM      7  C   UNL     1       6.770  -4.913   7.226  0.00  0.00    +0.000 A 
ATOM      8  C   UNL     1       7.577  -5.653   6.365  0.00  0.00    +0.000 A 
ATOM      9  N   UNL     1       7.927  -5.171   5.141  0.00  0.00    +0.000 NA
ATOM     10  C   UNL     1       7.426  -3.968   4.769  0.00  0.00    +0.000 A 
BRANCH   8  11
ATOM     11  C   UNL     1       8.046  -7.047   6.763  0.00  0.00    +0.000 C 
ATOM     12  F   UNL     1       7.613  -7.424   8.004  0.00  0.00    +0.000 F 
ATOM     13  F   UNL     1       7.597  -8.019   5.917  0.00  0.00    +0.000 F 
ATOM     14  F   UNL     1       9.403  -7.173   6.799  0.00  0.00    +0.000 F 
ENDBRANCH   8  11
ENDBRANCH   1   5
BRANCH   1  15
ATOM     15  N   UNL     1       4.638  -2.163   4.273  0.00  0.00    +0.000 N 
ATOM     16  H   UNL     1       3.917  -2.602   4.844  0.00  0.00    +0.000 HD
BRANCH  15  20
ATOM     17  C   UNL     1       4.170  -3.067   0.269  0.00  0.00    +0.000 A 
ATOM     18  N   UNL     1       5.429  -2.784   0.676  0.00  0.00    +0.000 NA
ATOM     19  C   UNL     1       5.566  -2.510   1.994  0.00  0.00    +0.000 A 
ATOM     20  C   UNL     1       4.538  -2.532   2.921  0.00  0.00    +0.000 A 
ATOM     21  C   UNL     1       3.299  -2.812   2.357  0.00  0.00    +0.000 A 
ATOM     22  N   UNL     1       3.080  -3.091   1.056  0.00  0.00    +0.000 NA
BRANCH  17  24
ATOM     23  N   UNL     1       5.133  -3.291  -1.964  0.00  0.00    +0.000 N 
ATOM     24  C   UNL     1       3.984  -3.344  -1.205  0.00  0.00    +0.000 C 
ATOM     25  O   UNL     1       2.903  -3.595  -1.726  0.00  0.00    +0.000 OA
ATOM     26  H   UNL     1       5.070  -3.461  -2.957  0.00  0.00    +0.000 HD
ATOM     27  H   UNL     1       6.020  -3.081  -1.530  0.00  0.00    +0.000 HD
ENDBRANCH  17  24
ENDBRANCH  15  20
ENDBRANCH   1  15
TORSDOF 5
