REMARK  Name = 
REMARK  7 active torsions:
REMARK  status: ('A' for Active; 'I' for Inactive)
REMARK    1  A    between atoms: N_1  and  C_2
REMARK    2  A    between atoms: C_2  and  C_3
REMARK    3  A    between atoms: C_7  and  S_8
REMARK    4  A    between atoms: S_8  and  C_9
REMARK    5  A    between atoms: C_9  and  C_10
REMARK    6  A    between atoms: C_10  and  C_11
REMARK    7  A    between atoms: C_14  and  C_15
REMARK                            x       y       z     vdW  Elec       q    Type
REMARK                         _______ _______ _______ _____ _____    ______ ____
ROOT
ATOM      1  C   UNL     1       6.029   3.298  -4.630  0.00  0.00    +0.000 C 
ENDROOT
BRANCH   1   2
ATOM      2  S   UNL     1       5.634   1.604  -4.055  0.00  0.00    +0.000 S 
BRANCH   2   7
ATOM      3  C   UNL     1       3.243   1.923  -0.762  0.00  0.00    +0.000 A 
ATOM      4  C   UNL     1       2.087   2.516  -1.290  0.00  0.00    +0.000 A 
ATOM      5  C   UNL     1       1.993   2.800  -2.652  0.00  0.00    +0.000 A 
ATOM      6  C   UNL     1       3.064   2.515  -3.501  0.00  0.00    +0.000 A 
ATOM      7  C   UNL     1       4.239   1.955  -2.992  0.00  0.00    +0.000 A 
ATOM      8  C   UNL     1       4.314   1.642  -1.628  0.00  0.00    +0.000 A 
BRANCH   3   9
ATOM      9  C   UNL     1       3.343   1.631   0.714  0.00  0.00    +0.000 C 
BRANCH   9  10
ATOM     10  N   UNL     1       2.271   0.753   1.168  0.00  0.00    +0.000 NA
ATOM     11  H   UNL     1       2.416   0.529   2.151  0.00  0.00    +0.000 HD
ATOM     12  H   UNL     1       2.332  -0.129   0.660  0.00  0.00    +0.000 HD
ENDBRANCH   9  10
ENDBRANCH   3   9
ENDBRANCH   2   7
ENDBRANCH   1   2
BRANCH   1  13
ATOM     13  C   UNL     1       7.268   3.295  -5.533  0.00  0.00    +0.000 C 
BRANCH  13  14
ATOM     14  C   UNL     1       7.589   4.683  -6.052  0.00  0.00    +0.000 A 
ATOM     15  C   UNL     1       8.433   5.536  -5.329  0.00  0.00    +0.000 A 
ATOM     16  C   UNL     1       8.697   6.831  -5.791  0.00  0.00    +0.000 A 
ATOM     17  C   UNL     1       8.131   7.289  -6.987  0.00  0.00    +0.000 A 
ATOM     18  C   UNL     1       7.291   6.441  -7.715  0.00  0.00    +0.000 A 
ATOM     19  C   UNL     1       7.023   5.147  -7.248  0.00  0.00    +0.000 A 
BRANCH  17  20
ATOM     20  C   UNL     1       8.415   8.690  -7.408  0.00  0.00    +0.000 C 
ATOM     21  N   UNL     1       8.313   8.987  -8.738  0.00  0.00    +0.000 N 
ATOM     22  O   UNL     1       8.757   9.544  -6.601  0.00  0.00    +0.000 OA
ATOM     23  H   UNL     1       8.259   8.286  -9.457  0.00  0.00    +0.000 HD
ATOM     24  H   UNL     1       8.610   9.918  -9.011  0.00  0.00    +0.000 HD
ENDBRANCH  17  20
ENDBRANCH  13  14
ENDBRANCH   1  13
TORSDOF 7
