REMARK  Name = 
REMARK  8 active torsions:
REMARK  status: ('A' for Active; 'I' for Inactive)
REMARK    1  A    between atoms: C_1  and  C_2
REMARK    2  A    between atoms: C_4  and  O_5
REMARK    3  A    between atoms: O_5  and  C_6
REMARK    4  A    between atoms: C_6  and  C_7
REMARK    5  A    between atoms: C_7  and  C_10
REMARK    6  A    between atoms: C_14  and  N_15
REMARK    7  A    between atoms: N_15  and  C_16
REMARK    8  A    between atoms: C_23  and  C_24
REMARK                            x       y       z     vdW  Elec       q    Type
REMARK                         _______ _______ _______ _____ _____    ______ ____
ROOT
ATOM      1  C   UNL     1      -2.065   4.829   0.050  0.00  0.00    +0.000 C 
ATOM      2  F   UNL     1      -2.896   4.734   1.130  0.00  0.00    +0.000 F 
ATOM      3  F   UNL     1      -2.880   4.767  -1.045  0.00  0.00    +0.000 F 
ENDROOT
BRANCH   1   4
ATOM      4  C   UNL     1      -1.253   6.116   0.074  0.00  0.00    +0.000 A 
ATOM      5  C   UNL     1      -0.849   6.728  -1.121  0.00  0.00    +0.000 A 
ATOM      6  C   UNL     1      -0.071   7.886  -1.092  0.00  0.00    +0.000 A 
ATOM      7  C   UNL     1       0.334   8.435   0.128  0.00  0.00    +0.000 A 
ATOM      8  C   UNL     1      -0.045   7.841   1.333  0.00  0.00    +0.000 A 
ATOM      9  C   UNL     1      -0.860   6.699   1.293  0.00  0.00    +0.000 A 
BRANCH   8  10
ATOM     10  N   UNL     1       0.336   8.353   2.592  0.00  0.00    +0.000 N 
ATOM     11  H   UNL     1      -0.478   8.722   3.085  0.00  0.00    +0.000 HD
BRANCH  10  12
ATOM     12  C   UNL     1       1.553   9.070   2.876  0.00  0.00    +0.000 C 
ATOM     13  C   UNL     1       1.656   9.506   4.356  0.00  0.00    +0.000 C 
ATOM     14  N   UNL     1       2.143  10.830   3.914  0.00  0.00    +0.000 NA
ATOM     15  C   UNL     1       1.561  10.581   2.575  0.00  0.00    +0.000 C 
ATOM     16  H   UNL     1       3.162  10.899   3.908  0.00  0.00    +0.000 HD
ENDBRANCH  10  12
ENDBRANCH   8  10
ENDBRANCH   1   4
BRANCH   1  17
ATOM     17  C   UNL     1      -1.126   3.606   0.038  0.00  0.00    +0.000 C 
BRANCH  17  18
ATOM     18  O   UNL     1      -1.850   2.362  -0.019  0.00  0.00    +0.000 OA
BRANCH  18  22
ATOM     19  C   UNL     1       2.508  -0.005   0.043  0.00  0.00    +0.000 C 
ATOM     20  C   UNL     1       1.005  -0.052  -0.014  0.00  0.00    +0.000 A 
ATOM     21  C   UNL     1       0.304   1.172   0.007  0.00  0.00    +0.000 A 
ATOM     22  C   UNL     1      -1.091   1.219  -0.036  0.00  0.00    +0.000 A 
ATOM     23  C   UNL     1      -1.799   0.019  -0.105  0.00  0.00    +0.000 A 
ATOM     24  C   UNL     1      -1.123  -1.211  -0.130  0.00  0.00    +0.000 A 
ATOM     25  C   UNL     1       0.279  -1.259  -0.075  0.00  0.00    +0.000 A 
BRANCH  25  26
ATOM     26  C   UNL     1       0.981  -2.584  -0.126  0.00  0.00    +0.000 C 
ATOM     27  N   UNL     1       0.319  -3.671   0.377  0.00  0.00    +0.000 N 
ATOM     28  O   UNL     1       2.112  -2.722  -0.574  0.00  0.00    +0.000 OA
ATOM     29  H   UNL     1      -0.526  -3.604   0.925  0.00  0.00    +0.000 HD
ATOM     30  H   UNL     1       0.838  -4.536   0.414  0.00  0.00    +0.000 HD
ENDBRANCH  25  26
ENDBRANCH  18  22
ENDBRANCH  17  18
ENDBRANCH   1  17
TORSDOF 7
