REMARK  Name = 
REMARK  5 active torsions:
REMARK  status: ('A' for Active; 'I' for Inactive)
REMARK    1  A    between atoms: N_1  and  C_2
REMARK    2  A    between atoms: C_2  and  C_3
REMARK    3  A    between atoms: C_3  and  C_4
REMARK    4  A    between atoms: C_7  and  C_8
REMARK    5  A    between atoms: C_8  and  N_9
REMARK                            x       y       z     vdW  Elec       q    Type
REMARK                         _______ _______ _______ _____ _____    ______ ____
ROOT
ATOM      1  C   UNL     1       4.651   0.775   1.145  0.00  0.00    +0.000 A 
ATOM      2  C   UNL     1       5.428   1.920   1.335  0.00  0.00    +0.000 A 
ATOM      3  C   UNL     1       6.834   1.818   1.432  0.00  0.00    +0.000 A 
ATOM      4  C   UNL     1       7.472   0.572   1.320  0.00  0.00    +0.000 A 
ATOM      5  C   UNL     1       6.688  -0.560   1.121  0.00  0.00    +0.000 A 
ATOM      6  C   UNL     1       5.295  -0.461   1.023  0.00  0.00    +0.000 A 
ENDROOT
BRANCH   1   7
ATOM      7  C   UNL     1       3.144   0.854   1.104  0.00  0.00    +0.000 C 
BRANCH   7   8
ATOM      8  C   UNL     1       2.568   1.090  -0.298  0.00  0.00    +0.000 C 
BRANCH   8   9
ATOM      9  N   UNL     1       1.113   1.132  -0.275  0.00  0.00    +0.000 NA
ATOM     10  H   UNL     1       0.768   1.338  -1.214  0.00  0.00    +0.000 HD
ATOM     11  H   UNL     1       0.792   1.911   0.310  0.00  0.00    +0.000 HD
ENDBRANCH   8   9
ENDBRANCH   7   8
ENDBRANCH   1   7
BRANCH   4  12
ATOM     12  C   UNL     1       8.990   0.463   1.381  0.00  0.00    +0.000 C 
BRANCH  12  13
ATOM     13  N   UNL     1       9.497   0.169   2.731  0.00  0.00    +0.000 N 
ATOM     14  C   UNL     1       9.613   1.166   3.704  0.00  0.00    +0.000 A 
ATOM     15  C   UNL     1      10.128   0.515   4.790  0.00  0.00    +0.000 A 
ATOM     16  C   UNL     1      11.001  -0.438   4.260  0.00  0.00    +0.000 A 
ATOM     17  C   UNL     1      12.189  -1.058   4.684  0.00  0.00    +0.000 A 
ATOM     18  C   UNL     1      12.712  -2.078   3.899  0.00  0.00    +0.000 A 
ATOM     19  F   UNL     1      13.916  -2.581   4.198  0.00  0.00    +0.000 F 
ATOM     20  C   UNL     1      12.015  -2.577   2.803  0.00  0.00    +0.000 A 
ATOM     21  C   UNL     1      10.833  -1.977   2.360  0.00  0.00    +0.000 A 
ATOM     22  C   UNL     1      10.405  -0.827   3.045  0.00  0.00    +0.000 A 
ENDBRANCH  12  13
ENDBRANCH   4  12
TORSDOF 5
