REMARK  Name = 
REMARK  4 active torsions:
REMARK  status: ('A' for Active; 'I' for Inactive)
REMARK    1  A    between atoms: C_2  and  C_4
REMARK    2  A    between atoms: N_8  and  C_9
REMARK    3  A    between atoms: C_9  and  C_10
REMARK    4  A    between atoms: C_14  and  C_15
REMARK                            x       y       z     vdW  Elec       q    Type
REMARK                         _______ _______ _______ _____ _____    ______ ____
ROOT
ATOM      1  C   UNL     1       4.702   4.125  -4.500  0.00  0.00    +0.000 C 
ENDROOT
BRANCH   1   6
ATOM      2  C   UNL     1       7.968   3.016  -0.668  0.00  0.00    +0.000 A 
ATOM      3  C   UNL     1       7.756   2.392  -1.893  0.00  0.00    +0.000 A 
ATOM      4  C   UNL     1       6.805   2.915  -2.766  0.00  0.00    +0.000 A 
ATOM      5  C   UNL     1       6.072   4.039  -2.403  0.00  0.00    +0.000 A 
ATOM      6  N   UNL     1       5.105   4.595  -3.190  0.00  0.00    +0.000 N 
ATOM      7  N   UNL     1       6.260   4.643  -1.210  0.00  0.00    +0.000 NA
ATOM      8  C   UNL     1       7.190   4.120  -0.366  0.00  0.00    +0.000 A 
ATOM      9  H   UNL     1       4.695   5.432  -2.804  0.00  0.00    +0.000 HD
BRANCH   2  11
ATOM     10  N   UNL     1      10.051   1.864  -0.216  0.00  0.00    +0.000 N 
ATOM     11  C   UNL     1       8.975   2.535   0.298  0.00  0.00    +0.000 C 
ATOM     12  O   UNL     1       8.871   2.752   1.497  0.00  0.00    +0.000 OA
ATOM     13  H   UNL     1      10.785   1.614   0.433  0.00  0.00    +0.000 HD
ATOM     14  H   UNL     1      10.280   1.874  -1.201  0.00  0.00    +0.000 HD
ENDBRANCH   2  11
ENDBRANCH   1   6
BRANCH   1  15
ATOM     15  C   UNL     1       5.538   4.717  -5.622  0.00  0.00    +0.000 A 
ATOM     16  C   UNL     1       5.516   6.092  -5.835  0.00  0.00    +0.000 A 
ATOM     17  C   UNL     1       6.219   6.614  -6.911  0.00  0.00    +0.000 A 
ATOM     18  C   UNL     1       6.930   5.752  -7.739  0.00  0.00    +0.000 A 
ATOM     19  C   UNL     1       6.935   4.382  -7.470  0.00  0.00    +0.000 A 
ATOM     20  N   UNL     1       6.237   3.863  -6.423  0.00  0.00    +0.000 NA
BRANCH  19  21
ATOM     21  C   UNL     1       7.647   3.418  -8.340  0.00  0.00    +0.000 A 
ATOM     22  C   UNL     1       8.812   3.776  -9.052  0.00  0.00    +0.000 A 
ATOM     23  C   UNL     1       9.436   2.891  -9.940  0.00  0.00    +0.000 A 
ATOM     24  C   UNL     1       8.915   1.615 -10.123  0.00  0.00    +0.000 A 
ATOM     25  C   UNL     1       7.789   1.234  -9.405  0.00  0.00    +0.000 A 
ATOM     26  F   UNL     1       7.289   0.003  -9.578  0.00  0.00    +0.000 F 
ATOM     27  C   UNL     1       7.162   2.111  -8.522  0.00  0.00    +0.000 A 
ENDBRANCH  19  21
ENDBRANCH   1  15
TORSDOF 4
